<!-- generated on 2020-12-18 16:29:44.442031 by ipykernel_launcher.py v1_2_0+5214-53edc58fcd
-->
<nodes>
	<node id="1" type="from" x="-216.175" y="171.5947"/>
	<node id="2" type="to" x="12.688500000000001" y="43.81245"/>
	<node id="3" type="from" x="13.882950000000001" y="46.00645"/>
	<node id="4" type="to" x="-214.95625" y="173.7775"/>
	<node id="5" type="from" x="80.21495" y="136.63205"/>
	<node id="6" type="to" x="22.9159" y="50.465599999999995"/>
	<node id="7" type="from" x="27.343224999999997" y="48.143100000000004"/>
	<node id="8" type="to" x="84.7125" y="134.447725"/>
	<node id="9" type="from" x="-75.034975" y="-95.98355"/>
	<node id="10" type="to" x="18.337375" y="32.33454999999999"/>
	<node id="11" type="from" x="27.63295" y="34.0272"/>
	<node id="12" type="to" x="120.59440000000001" y="-48.2629"/>
	<node id="13" type="from" x="122.24365" y="-46.384100000000004"/>
	<node id="14" type="to" x="29.177750000000003" y="35.9904"/>
</nodes>
