<routes>
	<vehicle depart="0.1" departLane="0" departPos="21.499029037535493" departSpeed="6.7309468" id="330" type="bicycle">
		<route edges=":41_0 7583"/>
	</vehicle>
	<vehicle depart="0.1" departLane="1" departPos="17.356763073216385" departSpeed="0.39368641" id="320" type="passenger">
		<route edges="7243 7552"/>
	</vehicle>
	<vehicle depart="0.1" departLane="0" departPos="6.648877323262675" departSpeed="1.3777673" id="322" type="passenger">
		<route edges="7243 7300"/>
	</vehicle>
	<vehicle depart="0.1" departLane="1" departPos="19.79410484322852" departSpeed="2.2515485" id="325" type="passenger">
		<route edges=":43_0 7243"/>
	</vehicle>
	<vehicle depart="0.1" departLane="1" departPos="10.688655656891708" departSpeed="2.2678365" id="329" type="passenger">
		<route edges=":43_0 7243"/>
	</vehicle>
	<vehicle depart="0.1" departLane="1" departPos="2.5" departSpeed="2.3239918" id="333" type="passenger">
		<route edges=":43_0 7243"/>
	</vehicle>
	<vehicle depart="0.1" departLane="0" departPos="18.62078409153325" departSpeed="10.636261" id="334" type="passenger">
		<route edges=":41_0 7583"/>
	</vehicle>
	<vehicle depart="0.1" departLane="0" departPos="16.327786695717023" departSpeed="2.7080235" id="336" type="passenger">
		<route edges="7543 7243"/>
	</vehicle>
	<vehicle depart="0.1" departLane="0" departPos="7.5764217801000475" departSpeed="3.9194138" id="340" type="passenger">
		<route edges="7543 7243"/>
	</vehicle>
	<vehicle depart="0.1" departLane="0" departPos="8.604682967132938" departSpeed="4.1430699" id="344" type="passenger">
		<route edges="10929 7543"/>
	</vehicle>
</routes>
