<routes>
	<vehicle depart="0.1" departLane="0" departPos="12.477788574348462" departSpeed="6.2491537" id="39" type="bicycle">
		<route edges=":57_0 9493"/>
	</vehicle>
	<vehicle depart="0.1" departLane="0" departPos="6.3473950789107345" departSpeed="0.007630482" id="32" type="passenger">
		<route edges=":57_5 9094"/>
	</vehicle>
	<vehicle depart="0.1" departLane="0" departPos="50.52464650732318" departSpeed="0.28873824" id="38" type="passenger">
		<route edges="9492 9489"/>
	</vehicle>
	<vehicle depart="0.1" departLane="0" departPos="15.978956563717894" departSpeed="13.022405" id="322" type="passenger">
		<route edges=":54_0 9093 9489"/>
	</vehicle>
	<vehicle depart="0.1" departLane="0" departPos="8.493808837407407" departSpeed="0.90516048" id="324" type="passenger">
		<route edges=":54_5 9097"/>
	</vehicle>
	<vehicle depart="0.1" departLane="0" departPos="69.84914319692656" departSpeed="0.07145794" id="327" type="passenger">
		<route edges="9490 9493"/>
	</vehicle>
	<vehicle depart="0.1" departLane="0" departPos="62.334615560126046" departSpeed="0.085679111" id="332" type="passenger">
		<route edges="9490 9493"/>
	</vehicle>
	<vehicle depart="0.1" departLane="0" departPos="54.846428377293265" departSpeed="0.0054707325" id="337" type="passenger">
		<route edges="9490 9493"/>
	</vehicle>
	<vehicle depart="0.1" departLane="0" departPos="47.266837127896224" departSpeed="0.097104076" id="342" type="passenger">
		<route edges="9490 9493"/>
	</vehicle>
</routes>
