<routes>
	<vehicle depart="0.1" departLane="0" departPos="51.66651891140965" departSpeed="7.6952842" id="385" type="bus">
		<route edges="52095 52008"/>
	</vehicle>
	<vehicle depart="0.1" departLane="0" departPos="35.80391352214967" departSpeed="0.0" id="31" type="passenger">
		<route edges="52007 52094"/>
	</vehicle>
	<vehicle depart="0.1" departLane="0" departPos="34.02319829543704" departSpeed="0.0" id="313" type="passenger">
		<route edges="51888 52097"/>
	</vehicle>
	<vehicle depart="0.1" departLane="0" departPos="24.813171958059694" departSpeed="2.73207" id="332" type="passenger">
		<route edges=":56_5 52098"/>
	</vehicle>
	<vehicle depart="0.1" departLane="0" departPos="34.82818568425166" departSpeed="10.435565" id="354" type="passenger">
		<route edges=":57_5 52101 52493 51907"/>
	</vehicle>
	<vehicle depart="0.1" departLane="0" departPos="22.579976014995562" departSpeed="5.7578739" id="362" type="passenger">
		<route edges="52008 52011"/>
	</vehicle>
	<vehicle depart="0.1" departLane="0" departPos="10.103319810476922" departSpeed="7.4179154" id="367" type="passenger">
		<route edges="52008 52011"/>
	</vehicle>
	<vehicle depart="0.1" departLane="0" departPos="58.74291926630192" departSpeed="10.259008" id="373" type="passenger">
		<route edges="52095 52098"/>
	</vehicle>
</routes>
