<routes>
	<vehicle depart="0.1" departLane="0" departPos="1.0" departSpeed="5.9532835" id="330" type="bicycle">
		<route edges=":25_2 2324"/>
	</vehicle>
	<vehicle depart="0.1" departLane="1" departPos="68.59910152706226" departSpeed="4.9958701" id="328" type="bus">
		<route edges="2370 2365"/>
	</vehicle>
	<vehicle depart="0.1" departLane="0" departPos="35.30460544915896" departSpeed="10.93885" id="312" type="passenger">
		<route edges=":24_2 2287"/>
	</vehicle>
	<vehicle depart="0.1" departLane="0" departPos="29.501770485150935" departSpeed="0.93341217" id="313" type="passenger">
		<route edges=":24_4 2365"/>
	</vehicle>
	<vehicle depart="0.1" departLane="0" departPos="26.199125820202532" departSpeed="0.12734275" id="314" type="passenger">
		<route edges=":25_1 2368"/>
	</vehicle>
	<vehicle depart="0.1" departLane="0" departPos="12.701814264304547" departSpeed="0.0" id="321" type="passenger">
		<route edges="2327 2324"/>
	</vehicle>
	<vehicle depart="0.1" departLane="0" departPos="20.434482933660238" departSpeed="9.6511078" id="324" type="passenger">
		<route edges=":24_2 2287"/>
	</vehicle>
	<vehicle depart="0.1" departLane="0" departPos="5.636376621333151" departSpeed="9.6807989" id="343" type="passenger">
		<route edges=":25_2 2324"/>
	</vehicle>
	<vehicle depart="0.1" departLane="0" departPos="4.772859455302251" departSpeed="1.5238071" id="34" type="motorcycle">
		<route edges=":25_5 2324"/>
	</vehicle>
	<vehicle depart="0.1" departLane="0" departPos="23.899780101130602" departSpeed="12.122897" id="347" type="truck">
		<route edges="2370 2365"/>
	</vehicle>
</routes>
