<!-- generated on Tue Feb  9 22:22:52 2021 by Eclipse SUMO netconvert Version 1.8.0
<configuration xmlns:xsi="http://www.w3.org/2001/XMLSchema-instance" xsi:noNamespaceSchemaLocation="http://sumo.dlr.de/xsd/netconvertConfiguration.xsd">

    <input>
        <node-files value="./converted_scenarios/scenario-factory/DEU_Hennigsdorf-8_1_I-1-1/DEU_Hennigsdorf-8_1_I-1-1.nod.xml"/>
        <edge-files value="./converted_scenarios/scenario-factory/DEU_Hennigsdorf-8_1_I-1-1/DEU_Hennigsdorf-8_1_I-1-1.edg.xml"/>
        <connection-files value="./converted_scenarios/scenario-factory/DEU_Hennigsdorf-8_1_I-1-1/DEU_Hennigsdorf-8_1_I-1-1.con.xml"/>
        <tllogic-files value="./converted_scenarios/scenario-factory/DEU_Hennigsdorf-8_1_I-1-1/DEU_Hennigsdorf-8_1_I-1-1.tll.xml"/>
        <type-files value="/home/zen/commonroad-interactive-benchmarks/install/commonroad-map-tool/crmapconverter/sumo_map/templates/DEU.typ.xml"/>
    </input>

    <output>
        <output-file value="./converted_scenarios/scenario-factory/DEU_Hennigsdorf-8_1_I-1-1/DEU_Hennigsdorf-8_1_I-1-1.net.xml"/>
    </output>

    <processing>
        <geometry.remove.keep-edges.explicit value="true"/>
        <geometry.avoid-overlap value="true"/>
        <offset.disable-normalization value="true"/>
    </processing>

    <junctions>
        <no-turnarounds value="true"/>
        <junctions.internal-link-detail value="20"/>
    </junctions>

    <report>
        <aggregate-warnings value="5"/>
    </report>

    <random_number>
        <seed value="1234"/>
    </random_number>

</configuration>
--><net xmlns:xsi="http://www.w3.org/2001/XMLSchema-instance" version="1.6" junctionCornerDetail="5" junctionLinkDetail="20" limitTurnSpeed="5.50" xsi:noNamespaceSchemaLocation="http://sumo.dlr.de/xsd/net_file.xsd">

    <location netOffset="0.00,0.00" convBoundary="471.30,450.24,601.71,634.72" origBoundary="471.30,450.24,601.78,634.72" projParameter="!"/>

    <type id="highway.bridleway" priority="1" speed="2.78" allow="pedestrian" oneway="1" width="2.00"/>
    <type id="highway.bus_guideway" priority="1" speed="27.78" allow="bus" oneway="1"/>
    <type id="highway.cycleway" priority="1" speed="8.33" allow="bicycle" oneway="0" width="1.00"/>
    <type id="highway.footway" priority="1" speed="2.78" allow="pedestrian" oneway="1" width="2.00"/>
    <type id="highway.ford" priority="1" speed="2.78" allow="army" oneway="0"/>
    <type id="highway.living_street" priority="2" speed="2.78" disallow="tram rail_urban rail rail_electric rail_fast ship" oneway="0"/>
    <type id="highway.motorway" priority="14" speed="39.44" allow="private emergency authority army vip passenger hov taxi bus coach delivery truck trailer motorcycle evehicle custom1 custom2" oneway="1"/>
    <type id="highway.motorway_link" priority="9" speed="22.22" allow="private emergency authority army vip passenger hov taxi bus coach delivery truck trailer motorcycle evehicle custom1 custom2" oneway="1"/>
    <type id="highway.path" priority="1" speed="2.78" allow="pedestrian bicycle" oneway="0" width="2.00"/>
    <type id="highway.pedestrian" priority="1" speed="2.78" allow="pedestrian" oneway="1" width="2.00"/>
    <type id="highway.primary" priority="12" speed="27.78" disallow="pedestrian tram rail_urban rail rail_electric rail_fast ship" oneway="0"/>
    <type id="highway.primary_link" priority="7" speed="22.22" disallow="pedestrian tram rail_urban rail rail_electric rail_fast ship" oneway="0"/>
    <type id="highway.raceway" priority="15" speed="83.33" allow="vip" oneway="0"/>
    <type id="highway.residential" priority="3" speed="13.89" disallow="pedestrian tram rail_urban rail rail_electric rail_fast ship" oneway="0"/>
    <type id="highway.secondary" priority="11" speed="27.78" disallow="pedestrian tram rail_urban rail rail_electric rail_fast ship" oneway="0"/>
    <type id="highway.secondary_link" priority="6" speed="22.22" disallow="pedestrian tram rail_urban rail rail_electric rail_fast ship" oneway="0"/>
    <type id="highway.service" priority="1" speed="5.56" allow="pedestrian delivery bicycle" oneway="0"/>
    <type id="highway.stairs" priority="1" speed="1.39" allow="pedestrian" oneway="1" width="2.00"/>
    <type id="highway.step" priority="1" speed="1.39" allow="pedestrian" oneway="1" width="2.00"/>
    <type id="highway.steps" priority="1" speed="1.39" allow="pedestrian" oneway="1" width="2.00"/>
    <type id="highway.tertiary" priority="10" speed="22.22" disallow="pedestrian tram rail_urban rail rail_electric rail_fast ship" oneway="0"/>
    <type id="highway.tertiary_link" priority="5" speed="22.22" disallow="pedestrian tram rail_urban rail rail_electric rail_fast ship" oneway="0"/>
    <type id="highway.track" priority="1" speed="5.56" allow="pedestrian motorcycle moped bicycle" oneway="0"/>
    <type id="highway.trunk" priority="13" speed="27.78" disallow="pedestrian bicycle tram rail_urban rail rail_electric rail_fast ship" oneway="0"/>
    <type id="highway.trunk_link" priority="8" speed="22.22" disallow="pedestrian bicycle tram rail_urban rail rail_electric rail_fast ship" oneway="0"/>
    <type id="highway.unclassified" priority="4" speed="13.89" disallow="pedestrian tram rail_urban rail rail_electric rail_fast ship" oneway="0"/>
    <type id="highway.unsurfaced" priority="1" speed="8.33" disallow="tram rail_urban rail rail_electric rail_fast ship" oneway="0"/>
    <type id="railway.highspeed" priority="21" speed="69.44" allow="rail_fast" oneway="1"/>
    <type id="railway.light_rail" priority="19" speed="27.78" allow="rail_urban" oneway="1"/>
    <type id="railway.preserved" priority="16" speed="27.78" allow="rail" oneway="1"/>
    <type id="railway.rail" priority="20" speed="44.44" allow="rail" oneway="1"/>
    <type id="railway.subway" priority="18" speed="27.78" allow="rail_urban" oneway="1"/>
    <type id="railway.tram" priority="17" speed="13.89" allow="tram" oneway="1"/>

    <edge id=":24_0" function="internal">
        <lane id=":24_0_0" index="0" disallow="pedestrian tram rail_urban rail rail_electric rail_fast ship" speed="36.11" length="38.59" width="3.50" shape="531.42,548.97 512.14,548.09 492.87,547.21"/>
        <lane id=":24_0_1" index="1" disallow="pedestrian tram rail_urban rail rail_electric rail_fast ship" speed="36.11" length="38.59" width="3.50" shape="531.58,545.48 512.30,544.60 493.03,543.72"/>
    </edge>
    <edge id=":24_2" function="internal">
        <lane id=":24_2_0" index="0" disallow="pedestrian tram rail_urban rail rail_electric rail_fast ship" speed="13.13" length="38.51" width="3.50" shape="531.58,545.48 528.14,545.17 524.76,544.52 522.02,543.65 519.41,542.45 517.46,541.23 515.68,539.78 514.10,538.10 512.75,536.25 511.39,533.72 510.37,531.03 509.65,528.25 509.14,524.84 508.92,520.82 508.92,520.24"/>
    </edge>
    <edge id=":24_3" function="internal">
        <lane id=":24_3_0" index="0" disallow="pedestrian tram rail_urban rail rail_electric rail_fast ship" speed="11.68" length="30.27" width="3.50" shape="512.42,520.25 512.56,523.15 513.06,526.02 513.76,528.24 514.78,530.34 516.11,532.24 517.75,533.90 519.63,535.27 521.69,536.35 524.43,537.34 527.27,537.99 530.73,538.41 531.90,538.48"/>
    </edge>
    <edge id=":24_4" function="internal">
        <lane id=":24_4_0" index="0" disallow="pedestrian tram rail_urban rail rail_electric rail_fast ship" speed="12.15" length="35.14" width="3.50" shape="512.42,520.25 512.26,524.35 511.84,527.84 511.24,530.70 510.33,533.49 509.35,535.61 508.10,537.60 506.57,539.37 504.77,540.87 502.75,542.05 500.56,542.90 498.28,543.43 495.37,543.73 493.03,543.72"/>
    </edge>
    <edge id=":24_5" function="internal">
        <lane id=":24_5_0" index="0" disallow="pedestrian tram rail_urban rail rail_electric rail_fast ship" speed="10.55" length="26.27" width="3.50" shape="493.34,536.72 496.33,536.68 498.69,536.35 500.42,535.87 502.07,535.17 503.59,534.22 504.93,533.05 506.07,531.66 506.98,530.12 507.88,527.91 508.46,525.59 508.83,522.63 508.92,520.24"/>
    </edge>
    <edge id=":24_6" function="internal">
        <lane id=":24_6_0" index="0" disallow="pedestrian tram rail_urban rail rail_electric rail_fast ship" speed="36.11" length="38.60" width="3.50" shape="493.34,536.72 512.62,537.60 531.90,538.48"/>
        <lane id=":24_6_1" index="1" disallow="pedestrian tram rail_urban rail rail_electric rail_fast ship" speed="36.11" length="38.59" width="3.50" shape="493.19,540.22 512.46,541.10 531.74,541.98"/>
    </edge>
    <edge id=":25_0" function="internal">
        <lane id=":25_0_0" index="0" disallow="pedestrian tram rail_urban rail rail_electric rail_fast ship" speed="36.11" length="45.19" width="3.50" shape="475.30,565.21 474.44,557.02 473.34,543.73 472.68,531.42 472.43,520.13"/>
    </edge>
    <edge id=":25_1" function="internal">
        <lane id=":25_1_0" index="0" disallow="pedestrian tram rail_urban rail rail_electric rail_fast ship" speed="11.88" length="36.36" width="3.50" shape="475.30,565.21 474.97,560.96 474.97,557.33 475.24,554.31 475.83,551.34 476.59,549.04 477.66,546.87 478.70,545.38 479.93,544.04 481.34,542.90 482.90,541.97 485.14,541.06 487.50,540.50 490.51,540.20 492.94,540.21"/>
    </edge>
    <edge id=":25_2" function="internal">
        <lane id=":25_2_0" index="0" disallow="pedestrian tram rail_urban rail rail_electric rail_fast ship" speed="10.22" length="26.71" width="3.50" shape="492.63,547.20 489.58,547.25 487.19,547.62 485.45,548.16 483.81,548.95 482.34,550.03 481.11,551.36 480.14,552.90 479.43,554.58 478.85,556.93 478.58,559.34 478.58,562.38 478.78,564.81"/>
    </edge>
    <edge id=":25_3" function="internal">
        <lane id=":25_3_0" index="0" disallow="pedestrian tram rail_urban rail rail_electric rail_fast ship" speed="12.61" length="35.29" width="3.50" shape="492.79,543.71 489.32,543.37 486.49,542.76 483.76,541.81 481.69,540.77 479.79,539.46 478.08,537.90 476.61,536.11 475.40,534.14 474.22,531.50 473.38,528.73 472.76,525.31 472.45,521.27 472.43,520.13"/>
    </edge>
    <edge id=":25_4" function="internal">
        <lane id=":25_4_0" index="0" disallow="pedestrian tram rail_urban rail rail_electric rail_fast ship" speed="11.10" length="27.09" width="3.50" shape="475.93,520.08 476.10,522.97 476.50,525.24 477.18,527.44 478.18,529.51 479.16,530.94 480.32,532.22 481.65,533.33 483.61,534.53 485.74,535.42 488.52,536.17 491.37,536.59 493.09,536.71"/>
    </edge>
    <edge id=":25_5" function="internal">
        <lane id=":25_5_0" index="0" disallow="pedestrian tram rail_urban rail rail_electric rail_fast ship" speed="36.11" length="44.84" width="3.50" shape="475.93,520.08 476.18,531.29 476.83,543.50 477.92,556.69 478.78,564.81"/>
    </edge>
    <edge id=":26_0" function="internal">
        <lane id=":26_0_0" index="0" disallow="pedestrian tram rail_urban rail rail_electric rail_fast ship" speed="36.11" length="27.05" width="3.50" shape="472.31,502.36 471.73,475.32"/>
    </edge>
    <edge id=":26_1" function="internal">
        <lane id=":26_1_0" index="0" disallow="pedestrian tram rail_urban rail rail_electric rail_fast ship" speed="33.75" length="27.86" width="3.50" shape="476.84,474.51 476.42,477.71 476.00,484.88 475.80,496.69 475.81,502.33"/>
    </edge>

    <edge id="1699" from="23" to="26" priority="3" type="highway.residential" spreadType="center" length="8.13">
        <lane id="1699_0" index="0" disallow="pedestrian tram rail_urban rail rail_electric rail_fast ship" speed="36.11" length="8.13" width="3.40" customShape="1" shape="479.47,466.80 477.59,471.43 477.54,471.54 476.39,474.32"/>
    </edge>
    <edge id="2287" from="24" to="3" priority="3" type="highway.residential" spreadType="center" length="70.00" shape="510.09,534.79 508.98,450.24">
        <lane id="2287_0" index="0" disallow="pedestrian tram rail_urban rail rail_electric rail_fast ship" speed="36.11" length="70.00" width="3.50" customShape="1" shape="508.92,520.24 508.98,450.24"/>
    </edge>
    <edge id="2288" from="17" to="24" priority="3" type="highway.residential" spreadType="center" length="70.00" shape="512.48,450.25 513.59,534.75">
        <lane id="2288_0" index="0" disallow="pedestrian tram rail_urban rail rail_electric rail_fast ship" speed="36.11" length="70.00" width="3.50" customShape="1" shape="512.48,450.25 512.42,520.25"/>
    </edge>
    <edge id="2324" from="25" to="16" priority="3" type="highway.residential" spreadType="center" length="69.99" shape="483.10,542.25 486.81,634.34">
        <lane id="2324_0" index="0" disallow="pedestrian tram rail_urban rail rail_electric rail_fast ship" speed="36.11" length="69.99" width="3.50" customShape="1" shape="478.78,564.81 486.81,634.34"/>
    </edge>
    <edge id="2325" from="20" to="25" priority="3" type="highway.residential" spreadType="center" length="70.00" shape="483.33,634.72 479.61,542.39">
        <lane id="2325_0" index="0" disallow="pedestrian tram rail_urban rail rail_electric rail_fast ship" speed="36.11" length="70.00" width="3.50" customShape="1" shape="483.33,634.72 475.30,565.18"/>
    </edge>
    <edge id="2327" from="26" to="25" priority="3" type="highway.residential" spreadType="center" length="17.78" shape="476.93,491.84 483.09,542.14">
        <lane id="2327_0" index="0" disallow="pedestrian tram rail_urban rail rail_electric rail_fast ship" speed="36.11" length="17.78" width="3.50" customShape="1" shape="475.81,502.33 475.87,511.21 475.93,520.11"/>
    </edge>
    <edge id="2328" from="25" to="26" priority="3" type="highway.residential" spreadType="center" length="17.77" shape="479.62,542.57 473.46,492.27">
        <lane id="2328_0" index="0" disallow="pedestrian tram rail_urban rail rail_electric rail_fast ship" speed="36.11" length="17.77" width="3.50" customShape="1" shape="472.43,520.13 472.37,511.24 472.31,502.36"/>
    </edge>
    <edge id="2365" from="24" to="25" priority="3" type="highway.residential" spreadType="center" length="0.25" shape="512.68,538.13 481.82,545.82">
        <lane id="2365_0" index="0" disallow="pedestrian tram rail_urban rail rail_electric rail_fast ship" speed="36.11" length="0.25" width="3.50" customShape="1" shape="492.87,547.21 492.74,547.21 492.62,547.20"/>
        <lane id="2365_1" index="1" disallow="pedestrian tram rail_urban rail rail_electric rail_fast ship" speed="36.11" length="0.26" width="3.50" customShape="1" shape="493.03,543.72 492.90,543.71 492.77,543.71"/>
    </edge>
    <edge id="2368" from="25" to="24" priority="3" type="highway.residential" spreadType="center" length="0.25" shape="480.14,539.07 510.99,531.34">
        <lane id="2368_0" index="0" disallow="pedestrian tram rail_urban rail rail_electric rail_fast ship" speed="36.11" length="0.25" width="3.50" customShape="1" shape="493.09,536.71 493.22,536.72 493.34,536.73"/>
        <lane id="2368_1" index="1" disallow="pedestrian tram rail_urban rail rail_electric rail_fast ship" speed="36.11" length="0.25" width="3.50" customShape="1" shape="492.94,540.21 493.06,540.22 493.19,540.22"/>
    </edge>
    <edge id="2370" from="21" to="24" priority="3" type="highway.residential" spreadType="center" length="70.01" shape="601.38,551.17 511.20,538.17">
        <lane id="2370_0" index="0" disallow="pedestrian tram rail_urban rail rail_electric rail_fast ship" speed="36.11" length="70.01" width="3.50" customShape="1" shape="601.30,552.92 593.65,552.35 568.07,550.65 531.41,548.97"/>
        <lane id="2370_1" index="1" disallow="pedestrian tram rail_urban rail rail_electric rail_fast ship" speed="36.11" length="70.05" width="3.50" customShape="1" shape="601.51,549.42 593.88,548.85 568.26,547.15 531.58,545.48"/>
    </edge>
    <edge id="2373" from="24" to="5" priority="3" type="highway.residential" spreadType="center" length="70.01" shape="512.20,531.25 601.71,544.17">
        <lane id="2373_0" index="0" disallow="pedestrian tram rail_urban rail rail_electric rail_fast ship" speed="36.11" length="70.06" width="3.50" customShape="1" shape="531.90,538.48 568.71,540.17 594.38,541.87 601.84,542.43"/>
        <lane id="2373_1" index="1" disallow="pedestrian tram rail_urban rail rail_electric rail_fast ship" speed="36.11" length="70.01" width="3.50" customShape="1" shape="531.74,541.98 568.48,543.66 594.13,545.36 601.63,545.92"/>
    </edge>
    <edge id="3344" from="26" to="27" priority="3" type="highway.residential" spreadType="center" length="4.03">
        <lane id="3344_0" index="0" disallow="pedestrian tram rail_urban rail rail_electric rail_fast ship" speed="36.11" length="4.03" width="3.50" customShape="1" shape="471.73,475.32 471.68,474.35 471.42,471.81 471.30,471.32"/>
    </edge>

    <junction id="16" type="dead_end" x="486.81" y="634.34" incLanes="2324_0" intLanes="" shape="488.55,634.14 485.07,634.55" rightOfWay="edgePriority"/>
    <junction id="17" type="dead_end" x="512.48" y="450.25" incLanes="" intLanes="" shape="510.73,450.25 514.23,450.25" rightOfWay="edgePriority"/>
    <junction id="20" type="dead_end" x="483.33" y="634.72" incLanes="" intLanes="" shape="485.07,634.52 481.59,634.92" rightOfWay="edgePriority"/>
    <junction id="21" type="dead_end" x="601.38" y="551.17" incLanes="" intLanes="" shape="601.64,547.68 601.12,554.66" rightOfWay="edgePriority"/>
    <junction id="23" type="dead_end" x="479.47" y="466.80" incLanes="" intLanes="" shape="477.90,466.15 481.05,467.44" rightOfWay="edgePriority"/>
    <junction id="24" type="priority" x="511.84" y="534.73" incLanes="2370_0 2370_1 2288_0 2368_0 2368_1" intLanes=":24_0_0 :24_0_1 :24_2_0 :24_3_0 :24_4_0 :24_5_0 :24_6_0 :24_6_1" shape="531.34,550.72 531.98,536.74 526.53,536.05 522.08,534.54 518.61,532.21 516.14,529.05 514.66,525.06 514.17,520.25 507.17,520.24 506.78,524.93 505.63,528.72 503.72,531.62 501.05,533.63 497.62,534.75 493.42,534.98 492.79,548.96">
        <request index="0" response="00000000" foes="00010000" cont="0"/>
        <request index="1" response="00000000" foes="00010000" cont="0"/>
        <request index="2" response="11100000" foes="11110000" cont="0"/>
        <request index="3" response="11000000" foes="11000000" cont="0"/>
        <request index="4" response="11000111" foes="11000111" cont="0"/>
        <request index="5" response="00000000" foes="00000100" cont="0"/>
        <request index="6" response="00000000" foes="00011100" cont="0"/>
        <request index="7" response="00000000" foes="00011100" cont="0"/>
    </junction>
    <junction id="25" type="priority" x="481.36" y="542.35" incLanes="2325_0 2365_0 2365_1 2327_0" intLanes=":25_0_0 :25_1_0 :25_2_0 :25_3_0 :25_4_0 :25_5_0" shape="473.56,565.41 480.52,564.61 480.33,559.62 481.01,555.59 482.58,552.51 485.03,550.37 488.35,549.19 492.56,548.95 493.17,534.97 488.46,534.37 484.60,533.01 481.59,530.91 479.44,528.06 478.13,524.46 477.68,520.10 470.68,520.15 470.76,529.81 470.91,536.95 471.20,542.83 471.69,548.70 472.46,555.81">
        <request index="0" response="001000" foes="001000" cont="0"/>
        <request index="1" response="101000" foes="101000" cont="0"/>
        <request index="2" response="000000" foes="100000" cont="0"/>
        <request index="3" response="000000" foes="100011" cont="0"/>
        <request index="4" response="000000" foes="000000" cont="0"/>
        <request index="5" response="001100" foes="001110" cont="0"/>
    </junction>
    <junction id="26" type="priority" x="475.21" y="492.12" incLanes="2328_0 1699_0" intLanes=":26_0_0 :26_1_0" shape="470.56,502.37 477.56,502.32 477.20,496.43 476.47,491.96 475.78,488.26 475.53,484.64 476.12,480.44 477.97,474.97 474.82,473.67 474.10,475.24 473.84,475.64 473.65,475.78 473.53,475.66 473.47,475.29 469.98,475.34">
        <request index="0" response="00" foes="00" cont="0"/>
        <request index="1" response="00" foes="00" cont="0"/>
    </junction>
    <junction id="27" type="dead_end" x="471.30" y="471.32" incLanes="3344_0" intLanes="" shape="469.60,471.71 473.01,470.93"/>
    <junction id="3" type="dead_end" x="508.98" y="450.24" incLanes="2287_0" intLanes="" shape="507.23,450.24 510.73,450.24" rightOfWay="edgePriority"/>
    <junction id="5" type="dead_end" x="601.71" y="544.17" incLanes="2373_0 2373_1" intLanes="" shape="601.97,540.68 601.44,547.66" rightOfWay="edgePriority"/>

    <connection from="1699" to="2327" fromLane="0" toLane="0" contPos="-4.00" shape="477.49,471.66 476.95,473.64 476.42,477.71 476.00,484.88 475.80,496.69 475.81,502.33" via=":26_1_0" dir="s" state="M"/>
    <connection from="2288" to="2373" fromLane="0" toLane="0" contPos="-4.00" shape="512.42,520.25 512.56,523.15 513.06,526.02 513.76,528.24 514.78,530.34 516.11,532.24 517.75,533.90 519.63,535.27 521.69,536.35 524.43,537.34 527.27,537.99 530.73,538.41 531.90,538.48" via=":24_3_0" dir="r" state="m"/>
    <connection from="2288" to="2365" fromLane="0" toLane="1" contPos="-4.00" shape="512.42,520.25 512.26,524.35 511.84,527.84 511.24,530.70 510.33,533.49 509.35,535.61 508.10,537.60 506.57,539.37 504.77,540.87 502.75,542.05 500.56,542.90 498.28,543.43 495.37,543.73 493.03,543.72" via=":24_4_0" dir="l" state="m"/>
    <connection from="2325" to="2328" fromLane="0" toLane="0" contPos="-4.00" shape="475.30,565.18 474.44,557.02 473.34,543.73 472.68,531.42 472.43,520.13" via=":25_0_0" dir="s" state="m"/>
    <connection from="2325" to="2368" fromLane="0" toLane="1" contPos="-4.00" shape="475.30,565.18 474.97,560.96 474.97,557.33 475.24,554.31 475.83,551.34 476.59,549.04 477.66,546.87 478.70,545.38 479.93,544.04 481.34,542.90 482.90,541.97 485.14,541.06 487.50,540.50 490.51,540.20 492.94,540.21" via=":25_1_0" dir="l" state="m"/>
    <connection from="2327" to="2368" fromLane="0" toLane="0" contPos="-4.00" shape="475.93,520.08 476.10,522.97 476.50,525.24 477.18,527.44 478.18,529.51 479.16,530.94 480.32,532.22 481.65,533.33 483.61,534.53 485.74,535.42 488.52,536.17 491.37,536.59 493.09,536.71" via=":25_4_0" dir="r" state="M"/>
    <connection from="2327" to="2324" fromLane="0" toLane="0" contPos="-4.00" shape="475.93,520.08 476.18,531.29 476.83,543.50 477.92,556.69 478.78,564.81" via=":25_5_0" dir="s" state="m"/>
    <connection from="2328" to="3344" fromLane="0" toLane="0" contPos="-4.00" via=":26_0_0" dir="s" state="M"/>
    <connection from="2365" to="2324" fromLane="0" toLane="0" contPos="-4.00" shape="492.62,547.20 489.58,547.25 487.19,547.62 485.45,548.16 483.81,548.95 482.34,550.03 481.11,551.36 480.14,552.90 479.43,554.58 478.85,556.93 478.58,559.34 478.58,562.38 478.78,564.81" via=":25_2_0" dir="r" state="M"/>
    <connection from="2365" to="2328" fromLane="1" toLane="0" contPos="-4.00" shape="492.77,543.71 489.32,543.37 486.49,542.76 483.76,541.81 481.69,540.77 479.79,539.46 478.08,537.90 476.61,536.11 475.40,534.14 474.22,531.50 473.38,528.73 472.76,525.31 472.45,521.27 472.43,520.13" via=":25_3_0" dir="l" state="M"/>
    <connection from="2368" to="2287" fromLane="0" toLane="0" contPos="-4.00" shape="493.34,536.72 496.33,536.68 498.69,536.35 500.42,535.87 502.07,535.17 503.59,534.22 504.93,533.05 506.07,531.66 506.98,530.12 507.88,527.91 508.46,525.59 508.83,522.63 508.92,520.24" via=":24_5_0" dir="r" state="M"/>
    <connection from="2368" to="2373" fromLane="0" toLane="0" contPos="-4.00" shape="493.34,536.72 512.62,537.60 531.90,538.48" via=":24_6_0" dir="s" state="M"/>
    <connection from="2368" to="2373" fromLane="1" toLane="1" contPos="-4.00" shape="493.19,540.22 512.46,541.10 531.74,541.98" via=":24_6_1" dir="s" state="M"/>
    <connection from="2370" to="2365" fromLane="0" toLane="0" contPos="-4.00" shape="531.41,548.97 512.14,548.09 492.87,547.21" via=":24_0_0" dir="s" state="M"/>
    <connection from="2370" to="2365" fromLane="1" toLane="1" contPos="-4.00" shape="531.58,545.48 512.30,544.60 493.03,543.72" via=":24_0_1" dir="s" state="M"/>
    <connection from="2370" to="2287" fromLane="1" toLane="0" contPos="-4.00" shape="531.58,545.48 528.14,545.17 524.76,544.52 522.02,543.65 519.41,542.45 517.46,541.23 515.68,539.78 514.10,538.10 512.75,536.25 511.39,533.72 510.37,531.03 509.65,528.25 509.14,524.84 508.92,520.82 508.92,520.24" via=":24_2_0" dir="l" state="m"/>

    <connection from=":24_0" to="2365" fromLane="0" toLane="0" dir="s" state="M"/>
    <connection from=":24_0" to="2365" fromLane="1" toLane="1" dir="s" state="M"/>
    <connection from=":24_2" to="2287" fromLane="0" toLane="0" dir="l" state="M"/>
    <connection from=":24_3" to="2373" fromLane="0" toLane="0" dir="r" state="M"/>
    <connection from=":24_4" to="2365" fromLane="0" toLane="1" dir="l" state="M"/>
    <connection from=":24_5" to="2287" fromLane="0" toLane="0" dir="r" state="M"/>
    <connection from=":24_6" to="2373" fromLane="0" toLane="0" dir="s" state="M"/>
    <connection from=":24_6" to="2373" fromLane="1" toLane="1" dir="s" state="M"/>
    <connection from=":25_0" to="2328" fromLane="0" toLane="0" dir="s" state="M"/>
    <connection from=":25_1" to="2368" fromLane="0" toLane="1" dir="l" state="M"/>
    <connection from=":25_2" to="2324" fromLane="0" toLane="0" dir="r" state="M"/>
    <connection from=":25_3" to="2328" fromLane="0" toLane="0" dir="l" state="M"/>
    <connection from=":25_4" to="2368" fromLane="0" toLane="0" dir="r" state="M"/>
    <connection from=":25_5" to="2324" fromLane="0" toLane="0" dir="s" state="M"/>
    <connection from=":26_0" to="3344" fromLane="0" toLane="0" dir="s" state="M"/>
    <connection from=":26_1" to="2327" fromLane="0" toLane="0" dir="s" state="M"/>

</net>