<!-- generated on 2020-12-18 15:38:22.166353 by ipykernel_launcher.py v1_2_0+5214-53edc58fcd
-->
<edges>
	<edge from="1" function="normal" id="14" length="210.37650128945782" numLanes="5" priority="1" speed="36.11111111111111" spreadType="center" to="2">
		<lane allow="pedestrian rail private passenger ship delivery vip emergency bicycle rail_electric army rail_urban trailer coach custom2 tram taxi evehicle custom1 motorcycle authority truck hov moped" index="0" length="210.37650128945782" shape="-51.83585,37.24 -47.2803,33.28165 -44.2871,30.685200000000002 -41.12585,27.938650000000003 -36.502449999999996,23.893700000000003 -33.5226,21.2907 -33.5099,21.27955 -25.87105,14.5771 -22.899099999999997,11.981 -20.6874,10.055800000000001 -15.11635,5.184699999999999 -15.0931,5.164149999999999 -12.1283,2.5627500000000003 -12.0973,2.53515 -3.8975,-4.75015 -0.9463,-7.33995 0.9602,-9.00715 0.9907,-9.0336 6.7729,-14.048749999999998 6.785500000000001,-14.059750000000001 9.7723,-16.65955 17.6436,-23.48105 17.6586,-23.494100000000003 19.233199999999997,-24.864649999999997 20.66355,-26.10135 28.77045,-33.20415 31.7678,-35.7957 35.818749999999994,-39.3201 39.5787,-42.6222 42.55255,-45.218 45.5827,-47.8604 45.60275,-47.877700000000004 50.8724,-52.429950000000005 53.869749999999996,-55.021649999999994 55.2742,-56.20385 55.3381,-56.2564 59.2275,-59.4529 61.912000000000006,-61.67515 64.92935,-64.24249999999999 72.88785,-70.71000000000001 72.9862,-70.79390000000001 74.22025,-71.84145000000001 76.00295,-73.3392 84.38445,-80.08574999999999 84.41114999999999,-80.1075 85.80595,-81.23915 87.57855,-82.61865 96.56745000000001,-89.34595 97.31585,-89.9308 99.64920000000001,-91.7818 107.0472,-97.49565 109.6401,-99.5521" speed="36.11111111111111" width="3.6129660751244232"/>
		<lane allow="pedestrian rail private passenger ship delivery vip emergency bicycle rail_electric army rail_urban trailer coach custom2 tram taxi evehicle custom1 motorcycle authority hov moped" index="1" length="210.37650128945782" shape="-49.52935,39.89335 -44.9881,35.89895 -44.89375,35.81625 -42.0105,33.3099 -41.90915,33.2216 -34.218450000000004,26.6578 -32.98335,25.6059 -32.93075,25.56015 -31.13425,23.99935 -29.9473,22.96295 -23.510849999999998,17.2206 -22.51495,16.33655 -20.55705,14.634599999999999 -19.5183,13.7349 -12.757449999999999,7.742100000000001 -11.3763,6.51415 -9.8076,5.1505 -8.43705,3.94435 -1.61165,-1.9909 -1.5653,-2.0305 -0.29074999999999995,-3.1256 -0.25915,-3.1529999999999996 1.463,-4.6498 2.7382999999999997,-5.7543500000000005 9.1679,-11.33025 10.7427,-12.7009 12.15595,-13.929400000000001 13.7416,-15.301749999999998 20.043300000000002,-20.7618 22.070149999999998,-22.52565 23.03145,-23.3613 25.0002,-25.0953 25.03215,-25.12385 31.101599999999998,-30.53935 32.793549999999996,-32.0291 34.06675,-33.13585 35.75675,-34.61395 35.77445,-34.62965 41.87625,-40.01105 43.83855,-41.731049999999996 44.8495,-42.60985 46.83095,-44.3307 53.13695,-49.81245 54.71795,-51.1881 56.1256,-52.4118 57.7602,-53.79365 64.08505,-58.894499999999994 66.5922,-60.96925 66.7038,-61.0654 67.22730000000001,-61.51635 67.30125,-61.5757 69.8161,-63.66415000000001 75.23445000000001,-67.99565 78.17285000000001,-70.45535000000001 78.27975,-70.54105 86.6982,-77.29015000000001 89.35495,-79.43635 89.78315,-79.7831 92.53315,-81.9213 98.66805,-86.46205 100.79475,-88.09790000000001 100.91615,-88.1956 101.87065000000001,-88.964 101.91444999999999,-88.99785 104.0633,-90.6919 109.2287,-94.63955 111.73785000000001,-96.6106" speed="36.11111111111111" width="3.118299087643775"/>
		<lane allow="pedestrian rail private passenger ship delivery vip emergency bicycle rail_electric army rail_urban trailer coach custom2 tram taxi evehicle custom1 motorcycle authority truck hov moped" index="2" length="210.37650128945782" shape="-47.350350000000006,42.40005 -47.04515,42.132549999999995 -44.065,39.515699999999995 -42.74265,38.3566 -42.715149999999994,38.33275 -39.71965,35.7337 -35.5809,32.2145 -32.5653,29.645049999999998 -30.738750000000003,28.1047 -27.759900000000002,25.541800000000002 -24.581699999999998,22.74945 -24.53065,22.703650000000003 -21.59545,20.09785 -21.552300000000002,20.05895 -20.26045,18.8967 -17.28685,16.2769 -13.377500000000001,12.7529 -10.453,10.15145 -10.4117,10.1142 -9.21865,9.0433 -9.1706,9.0013 -6.2052,6.3979 -2.1984500000000002,2.92495 0.80755,0.3438 1.94055,-0.63335 4.9257,-3.2390499999999998 9.13155,-6.9148499999999995 12.12035,-9.516300000000001 12.915500000000002,-10.21115 15.9008,-12.81655 19.8716,-16.2859 22.860599999999998,-18.8871 24.215049999999998,-20.07295 27.197699999999998,-22.681350000000002 30.80235,-25.8746 33.7609,-28.479999999999997 34.92845,-29.5083 34.960350000000005,-29.53605 37.950649999999996,-32.135799999999996 41.962,-35.651849999999996 44.9415,-38.2635 45.96885,-39.15505 46.0036,-39.184799999999996 48.99335000000001,-41.75655 53.352850000000004,-45.5092 53.382149999999996,-45.5347 56.3703,-48.1344 56.93185,-48.622150000000005 59.93175,-51.225350000000006 64.73265,-55.1956 67.78065,-57.722300000000004 68.7576,-58.4794 71.70224999999999,-60.87115 71.8373,-60.97595 76.0121,-64.24705 79.051,-66.79085 87.54765,-73.55584999999999 90.5844,-76.09795 91.38685000000001,-76.72865 94.4911,-79.17155 94.59615,-79.24985000000001 99.12334999999999,-82.6423 102.26015,-85.05975000000001 102.9613,-85.5763 105.977,-87.9118 106.0745,-87.9848 111.22805,-91.8561 113.72890000000001,-93.8187" speed="36.11111111111111" width="3.076835694345735"/>
		<lane allow="pedestrian rail private passenger ship delivery vip emergency bicycle rail_electric army rail_urban trailer coach custom2 tram taxi evehicle custom1 motorcycle authority hov moped" index="3" length="210.37650128945782" shape="-45.18275,44.8936 -44.82445,44.57915 -44.61194999999999,44.3926 -41.848150000000004,41.99005 -41.6188,41.7911 -33.4674,34.811099999999996 -33.444199999999995,34.79105 -33.4176,34.768100000000004 -30.450699999999998,32.18915 -30.406750000000002,32.1505 -22.52615,25.3042 -22.3256,25.131549999999997 -19.54735,22.716450000000002 -19.32325,22.51935 -11.44565,15.5039 -11.1646,15.25605 -11.132249999999999,15.22795 -8.43445,12.882349999999999 -8.1579,12.64305 -0.31615,5.792249999999999 -0.29319999999999996,5.77205 -0.01045000000000007,5.524 0.014499999999999957,5.5023 2.721,3.14935 3.00645,2.90095 10.6936,-3.8175 11.327300000000001,-4.3706 11.337900000000001,-4.3797999999999995 13.695599999999999,-6.429399999999999 14.3408,-6.9975000000000005 22.0411,-13.802 25.02705,-16.39765 33.003299999999996,-23.3422 33.033950000000004,-23.36875 33.0505,-23.3832 36.0266,-25.9702 36.041,-25.9828 43.974450000000004,-32.9559 44.19445,-33.147149999999996 46.9649,-35.55545 47.1541,-35.718599999999995 47.1781,-35.7391 55.113550000000004,-42.50685 55.6315,-42.95245 58.0931,-45.09225 58.58335,-45.51395 66.4986,-52.30735 66.52345,-52.3289 66.8646,-52.6247 69.5106,-54.9249 69.6174,-55.01775 69.81784999999999,-55.1728 78.12765,-61.590900000000005 81.1751,-64.23515 89.66185,-70.86415 89.69800000000001,-70.89320000000001 92.5746,-73.30505 92.75395,-73.44925 101.17179999999999,-79.92205 101.29395,-80.01804999999999 101.35575,-80.06805 104.2837,-82.4379 104.499,-82.60255000000001 113.04225,-89.0255 113.29515,-89.2233 115.64760000000001,-91.12825000000001" speed="36.11111111111111" width="3.2326036719647506"/>
		<lane allow="pedestrian rail private passenger ship delivery vip emergency bicycle rail_electric army rail_urban trailer coach custom2 tram taxi evehicle custom1 motorcycle authority hov moped" index="4" length="210.37650128945782" shape="-42.942,47.4713 -42.36035,46.95495 -41.98495,46.625249999999994 -39.3853,44.365449999999996 -38.97515,44.0137 -31.18585,37.417500000000004 -30.8099,37.095150000000004 -30.7761,37.065749999999994 -28.1762,34.80615 -27.8249,34.49785 -27.79965,34.475449999999995 -20.3181,27.84385 -19.9416,27.51335 -17.341900000000003,25.25355 -16.99485,24.948700000000002 -16.96705,24.924 -9.19365,18.020000000000003 -8.81855,17.69055 -6.21885,15.43065 -5.821350000000001,15.0867 1.98895,8.3587 2.3746,8.024999999999999 2.3864,8.01475 4.9860999999999995,5.754899999999999 5.3718,5.4192 12.98255,-1.21335 13.3715,-1.55185 15.971150000000002,-3.81175 16.31135,-4.111000000000001 16.3435,-4.13965 24.30735,-11.23675 24.68,-11.56455 27.27965,-13.824449999999999 27.67705,-14.1683 35.323750000000004,-20.7565 35.7095,-21.0903 35.721050000000005,-21.10035 38.3207,-23.3602 38.6666,-23.66405 38.6952,-23.68945 46.23225,-30.38765 46.60695,-30.71685 49.2066,-32.97665 49.6098,-33.32415 57.32245,-39.91695 57.70375,-40.24555 57.7255,-40.26445 60.32525,-42.52425 60.7324,-42.87415 68.7695,-49.709050000000005 69.1478,-50.0342 69.1762,-50.058899999999994 71.776,-52.3186 72.24475000000001,-52.7027 80.31825,-59.0309 80.65039999999999,-59.30225 80.78075,-59.41525 83.3832,-61.6719 83.8632,-62.06275 91.79035,-68.2106 92.2629,-68.58465 92.31895,-68.63 94.90205,-70.72075000000001 95.43594999999999,-71.14235 103.49545,-77.36305 103.96535,-77.73400000000001 104.0275,-77.7843 106.6107,-79.8749 107.1531,-80.30055 115.0625,-86.33935 115.52635000000001,-86.70320000000001 115.60225,-86.76465 117.6043,-88.3845" speed="36.11111111111111" width="3.4476868955866586"/>
	</edge>
</edges>
