<routes>
	<vehicle depart="0.1" departLane="4" departPos="83.21752939021842" departSpeed="17.3553" id="95" type="passenger">
		<route edges="14"/>
	</vehicle>
	<vehicle depart="0.1" departLane="4" departPos="73.59296680627324" departSpeed="17.0544" id="104" type="passenger">
		<route edges="14"/>
	</vehicle>
	<vehicle depart="0.1" departLane="3" departPos="106.76375972937976" departSpeed="18.2825" id="105" type="passenger">
		<route edges="14"/>
	</vehicle>
	<vehicle depart="0.1" departLane="0" departPos="122.74837534443724" departSpeed="15.9979" id="109" type="passenger">
		<route edges="14"/>
	</vehicle>
	<vehicle depart="0.1" departLane="3" departPos="54.657654138812944" departSpeed="17.5694" id="115" type="passenger">
		<route edges="14 14"/>
	</vehicle>
	<vehicle depart="0.1" departLane="3" departPos="0" departSpeed="15.5886" id="116" type="passenger">
		<route edges="14 14"/>
	</vehicle>
	<vehicle depart="0.1" departLane="2" departPos="100.9550616951047" departSpeed="17.6945" id="117" type="passenger">
		<route edges="14"/>
	</vehicle>
	<vehicle depart="0.1" departLane="2" departPos="111.6773888227307" departSpeed="16.5374" id="118" type="passenger">
		<route edges="14"/>
	</vehicle>
	<vehicle depart="0.1" departLane="1" departPos="72.91214073448295" departSpeed="14.5255" id="119" type="passenger">
		<route edges="14"/>
	</vehicle>
	<vehicle depart="0.1" departLane="3" departPos="72.83228408098498" departSpeed="14.7003" id="120" type="passenger">
		<route edges="14"/>
	</vehicle>
	<vehicle depart="0.1" departLane="0" departPos="101.627829881503" departSpeed="14.2057" id="122" type="passenger">
		<route edges="14"/>
	</vehicle>
	<vehicle depart="0.1" departLane="2" departPos="76.64266243067183" departSpeed="15.3864" id="124" type="passenger">
		<route edges="14"/>
	</vehicle>
	<vehicle depart="0.1" departLane="0" departPos="57.15396691838271" departSpeed="17.7886" id="131" type="passenger">
		<route edges="14"/>
	</vehicle>
	<vehicle depart="0.1" departLane="1" departPos="52.65942078012006" departSpeed="18.1099" id="135" type="passenger">
		<route edges="14"/>
	</vehicle>
</routes>
