<!-- generated on Tue Feb  9 22:14:20 2021 by Eclipse SUMO netconvert Version 1.8.0
<configuration xmlns:xsi="http://www.w3.org/2001/XMLSchema-instance" xsi:noNamespaceSchemaLocation="http://sumo.dlr.de/xsd/netconvertConfiguration.xsd">

    <input>
        <node-files value="./converted_scenarios/scenario-factory/ESP_Cambre-3_2_I-1-1/ESP_Cambre-3_2_I-1-1.nod.xml"/>
        <edge-files value="./converted_scenarios/scenario-factory/ESP_Cambre-3_2_I-1-1/ESP_Cambre-3_2_I-1-1.edg.xml"/>
        <connection-files value="./converted_scenarios/scenario-factory/ESP_Cambre-3_2_I-1-1/ESP_Cambre-3_2_I-1-1.con.xml"/>
        <tllogic-files value="./converted_scenarios/scenario-factory/ESP_Cambre-3_2_I-1-1/ESP_Cambre-3_2_I-1-1.tll.xml"/>
        <type-files value="/home/zen/commonroad-interactive-benchmarks/install/commonroad-map-tool/crmapconverter/sumo_map/templates/DEU.typ.xml"/>
    </input>

    <output>
        <output-file value="./converted_scenarios/scenario-factory/ESP_Cambre-3_2_I-1-1/ESP_Cambre-3_2_I-1-1.net.xml"/>
    </output>

    <processing>
        <geometry.remove.keep-edges.explicit value="true"/>
        <geometry.avoid-overlap value="true"/>
        <offset.disable-normalization value="true"/>
    </processing>

    <junctions>
        <no-turnarounds value="true"/>
        <junctions.internal-link-detail value="20"/>
    </junctions>

    <report>
        <aggregate-warnings value="5"/>
    </report>

    <random_number>
        <seed value="1234"/>
    </random_number>

</configuration>
--><net xmlns:xsi="http://www.w3.org/2001/XMLSchema-instance" version="1.6" junctionCornerDetail="5" junctionLinkDetail="20" limitTurnSpeed="5.50" xsi:noNamespaceSchemaLocation="http://sumo.dlr.de/xsd/net_file.xsd">

    <location netOffset="0.00,0.00" convBoundary="-193.11,-244.73,-20.92,-32.85" origBoundary="-193.11,-244.73,-20.92,-32.85" projParameter="!"/>

    <type id="highway.bridleway" priority="1" speed="2.78" allow="pedestrian" oneway="1" width="2.00"/>
    <type id="highway.bus_guideway" priority="1" speed="27.78" allow="bus" oneway="1"/>
    <type id="highway.cycleway" priority="1" speed="8.33" allow="bicycle" oneway="0" width="1.00"/>
    <type id="highway.footway" priority="1" speed="2.78" allow="pedestrian" oneway="1" width="2.00"/>
    <type id="highway.ford" priority="1" speed="2.78" allow="army" oneway="0"/>
    <type id="highway.living_street" priority="2" speed="2.78" disallow="tram rail_urban rail rail_electric rail_fast ship" oneway="0"/>
    <type id="highway.motorway" priority="14" speed="39.44" allow="private emergency authority army vip passenger hov taxi bus coach delivery truck trailer motorcycle evehicle custom1 custom2" oneway="1"/>
    <type id="highway.motorway_link" priority="9" speed="22.22" allow="private emergency authority army vip passenger hov taxi bus coach delivery truck trailer motorcycle evehicle custom1 custom2" oneway="1"/>
    <type id="highway.path" priority="1" speed="2.78" allow="pedestrian bicycle" oneway="0" width="2.00"/>
    <type id="highway.pedestrian" priority="1" speed="2.78" allow="pedestrian" oneway="1" width="2.00"/>
    <type id="highway.primary" priority="12" speed="27.78" disallow="pedestrian tram rail_urban rail rail_electric rail_fast ship" oneway="0"/>
    <type id="highway.primary_link" priority="7" speed="22.22" disallow="pedestrian tram rail_urban rail rail_electric rail_fast ship" oneway="0"/>
    <type id="highway.raceway" priority="15" speed="83.33" allow="vip" oneway="0"/>
    <type id="highway.residential" priority="3" speed="13.89" disallow="pedestrian tram rail_urban rail rail_electric rail_fast ship" oneway="0"/>
    <type id="highway.secondary" priority="11" speed="27.78" disallow="pedestrian tram rail_urban rail rail_electric rail_fast ship" oneway="0"/>
    <type id="highway.secondary_link" priority="6" speed="22.22" disallow="pedestrian tram rail_urban rail rail_electric rail_fast ship" oneway="0"/>
    <type id="highway.service" priority="1" speed="5.56" allow="pedestrian delivery bicycle" oneway="0"/>
    <type id="highway.stairs" priority="1" speed="1.39" allow="pedestrian" oneway="1" width="2.00"/>
    <type id="highway.step" priority="1" speed="1.39" allow="pedestrian" oneway="1" width="2.00"/>
    <type id="highway.steps" priority="1" speed="1.39" allow="pedestrian" oneway="1" width="2.00"/>
    <type id="highway.tertiary" priority="10" speed="22.22" disallow="pedestrian tram rail_urban rail rail_electric rail_fast ship" oneway="0"/>
    <type id="highway.tertiary_link" priority="5" speed="22.22" disallow="pedestrian tram rail_urban rail rail_electric rail_fast ship" oneway="0"/>
    <type id="highway.track" priority="1" speed="5.56" allow="pedestrian motorcycle moped bicycle" oneway="0"/>
    <type id="highway.trunk" priority="13" speed="27.78" disallow="pedestrian bicycle tram rail_urban rail rail_electric rail_fast ship" oneway="0"/>
    <type id="highway.trunk_link" priority="8" speed="22.22" disallow="pedestrian bicycle tram rail_urban rail rail_electric rail_fast ship" oneway="0"/>
    <type id="highway.unclassified" priority="4" speed="13.89" disallow="pedestrian tram rail_urban rail rail_electric rail_fast ship" oneway="0"/>
    <type id="highway.unsurfaced" priority="1" speed="8.33" disallow="tram rail_urban rail rail_electric rail_fast ship" oneway="0"/>
    <type id="railway.highspeed" priority="21" speed="69.44" allow="rail_fast" oneway="1"/>
    <type id="railway.light_rail" priority="19" speed="27.78" allow="rail_urban" oneway="1"/>
    <type id="railway.preserved" priority="16" speed="27.78" allow="rail" oneway="1"/>
    <type id="railway.rail" priority="20" speed="44.44" allow="rail" oneway="1"/>
    <type id="railway.subway" priority="18" speed="27.78" allow="rail_urban" oneway="1"/>
    <type id="railway.tram" priority="17" speed="13.89" allow="tram" oneway="1"/>

    <edge id=":37_0" function="internal">
        <lane id=":37_0_0" index="0" disallow="pedestrian tram rail_urban rail rail_electric rail_fast ship" speed="20.95" length="38.45" width="3.50" shape="-136.26,-105.46 -142.88,-102.98 -148.46,-100.58 -153.00,-98.33 -156.52,-96.33 -159.90,-94.11 -162.31,-92.26 -164.56,-90.21 -166.58,-87.95 -167.76,-86.30 -168.28,-85.44"/>
    </edge>
    <edge id=":37_1" function="internal">
        <lane id=":37_1_0" index="0" disallow="pedestrian tram rail_urban rail rail_electric rail_fast ship" speed="11.36" length="50.61" width="3.50" shape="-136.26,-105.46 -139.83,-104.26 -145.26,-102.65 -148.98,-101.76 -152.76,-101.11 -154.73,-100.91 -156.73,-100.84 -158.79,-100.96 -160.92,-101.42 -163.02,-102.42 -164.74,-104.11 -165.75,-106.30 -166.02,-108.59 -165.80,-110.75 -165.30,-112.75 -164.63,-114.63 -163.86,-116.45 -162.13,-119.87 -160.21,-123.15"/>
    </edge>
    <edge id=":37_2" function="internal">
        <lane id=":37_2_0" index="0" disallow="pedestrian tram rail_urban rail rail_electric rail_fast ship" speed="10.19" length="40.36" width="3.50" shape="-157.30,-121.19 -158.86,-118.53 -160.31,-115.62 -160.93,-114.12 -161.44,-112.58 -161.80,-111.00 -161.90,-109.38 -161.62,-107.79 -160.79,-106.41 -159.49,-105.47 -157.96,-104.94 -156.35,-104.71 -154.73,-104.68 -153.11,-104.78 -151.49,-104.97 -148.30,-105.56 -145.15,-106.34 -140.48,-107.73 -137.42,-108.76"/>
    </edge>
    <edge id=":37_3" function="internal">
        <lane id=":37_3_0" index="0" disallow="pedestrian tram rail_urban rail rail_electric rail_fast ship" speed="36.11" length="37.60" width="3.50" shape="-157.30,-121.18 -158.73,-118.57 -159.96,-115.67 -160.94,-112.68 -161.95,-108.60 -164.10,-97.26 -165.11,-93.19 -166.09,-90.20 -167.31,-87.30 -168.28,-85.44"/>
    </edge>
    <edge id=":37_4" function="internal">
        <lane id=":37_4_0" index="0" disallow="pedestrian tram rail_urban rail rail_electric rail_fast ship" speed="36.11" length="37.98" width="3.50" shape="-171.37,-87.07 -170.42,-88.90 -169.24,-91.68 -168.31,-94.55 -167.32,-98.52 -165.16,-109.88 -164.12,-114.07 -163.09,-117.20 -161.79,-120.25 -160.21,-123.15"/>
    </edge>
    <edge id=":37_5" function="internal">
        <lane id=":37_5_0" index="0" disallow="pedestrian tram rail_urban rail rail_electric rail_fast ship" speed="21.67" length="41.06" width="3.50" shape="-171.38,-87.07 -170.73,-88.14 -169.43,-89.98 -167.24,-92.47 -164.81,-94.71 -162.23,-96.72 -158.65,-99.12 -154.93,-101.25 -150.17,-103.64 -144.33,-106.17 -137.42,-108.76"/>
    </edge>
    <edge id=":38_0" function="internal">
        <lane id=":38_0_0" index="0" disallow="pedestrian tram rail_urban rail rail_electric rail_fast ship" speed="36.11" length="51.88" width="3.50" shape="-46.16,-178.05 -51.64,-166.82 -56.50,-157.66 -60.66,-150.49 -64.57,-144.38 -68.20,-139.34 -71.49,-135.33 -72.90,-133.81"/>
    </edge>
    <edge id=":38_1" function="internal">
        <lane id=":38_1_0" index="0" disallow="pedestrian tram rail_urban rail rail_electric rail_fast ship" speed="16.21" length="54.43" width="3.50" shape="-73.22,-183.22 -70.53,-179.17 -68.18,-175.07 -66.64,-171.88 -65.31,-168.60 -64.24,-165.22 -63.48,-161.76 -63.08,-158.25 -63.06,-154.71 -63.47,-151.19 -64.31,-147.76 -65.56,-144.44 -67.17,-141.29 -69.11,-138.33 -71.31,-135.56 -72.90,-133.81"/>
    </edge>
    <edge id=":38_2" function="internal">
        <lane id=":38_2_0" index="0" disallow="pedestrian tram rail_urban rail rail_electric rail_fast ship" speed="15.47" length="49.44" width="3.50" shape="-75.44,-136.21 -73.98,-137.82 -71.97,-140.36 -70.22,-143.05 -68.78,-145.89 -67.68,-148.86 -66.95,-151.94 -66.60,-155.09 -66.63,-158.27 -67.02,-161.44 -67.73,-164.58 -68.72,-167.66 -69.95,-170.67 -71.38,-173.61 -73.56,-177.42 -75.99,-181.08"/>
    </edge>
    <edge id=":38_3" function="internal">
        <lane id=":38_3_0" index="0" disallow="pedestrian tram rail_urban rail rail_electric rail_fast ship" speed="36.11" length="50.71" width="3.50" shape="-75.44,-136.21 -74.09,-137.68 -70.91,-141.55 -67.39,-146.47 -63.57,-152.44 -59.50,-159.48 -54.72,-168.48 -49.35,-179.49"/>
    </edge>
    <edge id=":39_0" function="internal">
        <lane id=":39_0_0" index="0" disallow="pedestrian tram rail_urban rail rail_electric rail_fast ship" speed="36.11" length="39.99" width="3.50" shape="-99.67,-116.43 -104.76,-114.53 -110.85,-112.62 -121.02,-109.91 -130.10,-107.45 -137.93,-104.88"/>
    </edge>
    <edge id=":39_1" function="internal">
        <lane id=":39_1_0" index="0" disallow="pedestrian tram rail_urban rail rail_electric rail_fast ship" speed="16.96" length="33.41" width="3.50" shape="-99.67,-116.43 -99.98,-116.37 -100.42,-116.40 -101.01,-116.52 -101.74,-116.73 -102.61,-117.03 -103.63,-117.42 -104.79,-117.90 -106.09,-118.47 -107.53,-119.12 -109.11,-119.87 -110.84,-120.70 -112.71,-121.63 -114.72,-122.64 -116.87,-123.75 -119.16,-124.94 -121.60,-126.22 -124.18,-127.59 -126.90,-129.05 -129.76,-130.60"/>
    </edge>
    <edge id=":39_2" function="internal">
        <lane id=":39_2_0" index="0" disallow="pedestrian tram rail_urban rail rail_electric rail_fast ship" speed="13.22" length="35.06" width="3.50" shape="-129.01,-134.98 -124.92,-129.03 -122.89,-126.53 -120.67,-124.21 -119.07,-122.78 -117.36,-121.49 -115.53,-120.37 -113.60,-119.45 -111.56,-118.78 -109.46,-118.38 -107.32,-118.28 -105.18,-118.48 -103.09,-118.94 -101.08,-119.63"/>
    </edge>
    <edge id=":39_3" function="internal">
        <lane id=":39_3_0" index="0" disallow="pedestrian tram rail_urban rail rail_electric rail_fast ship" speed="12.06" length="39.89" width="3.50" shape="-129.01,-134.98 -125.37,-129.36 -124.13,-126.93 -123.16,-124.37 -122.80,-122.97 -122.55,-121.55 -122.45,-120.09 -122.52,-118.61 -122.76,-117.13 -123.20,-115.69 -123.82,-114.32 -124.60,-113.06 -125.51,-111.90 -126.51,-110.86 -127.59,-109.93 -128.74,-109.09 -131.07,-107.68 -133.51,-106.52 -137.93,-104.88"/>
    </edge>
    <edge id=":39_4" function="internal">
        <lane id=":39_4_0" index="0" disallow="pedestrian tram rail_urban rail rail_electric rail_fast ship" speed="36.11" length="6.08" width="3.50" shape="-139.10,-108.17 -138.67,-108.32 -138.28,-108.46 -137.93,-108.58 -137.61,-108.69 -137.32,-108.79 -137.06,-108.89 -136.81,-108.97 -136.57,-109.06 -136.35,-109.15 -136.12,-109.23 -135.90,-109.32 -135.67,-109.42 -135.42,-109.52 -135.16,-109.63 -134.89,-109.76 -134.58,-109.90 -134.24,-110.06 -133.87,-110.23 -133.46,-110.42"/>
    </edge>
    <edge id=":39_5" function="internal">
        <lane id=":39_5_0" index="0" disallow="pedestrian tram rail_urban rail rail_electric rail_fast ship" speed="36.11" length="39.73" width="3.50" shape="-139.10,-108.17 -131.19,-110.77 -122.09,-113.24 -111.97,-115.93 -105.97,-117.81 -101.08,-119.63"/>
    </edge>
    <edge id=":41_0" function="internal">
        <lane id=":41_0_0" index="0" disallow="pedestrian tram rail_urban rail rail_electric rail_fast ship" speed="36.11" length="27.23" width="3.50" shape="-174.25,-64.80 -176.71,-51.40 -179.16,-38.02"/>
    </edge>
    <edge id=":41_1" function="internal">
        <lane id=":41_1_0" index="0" disallow="pedestrian tram rail_urban rail rail_electric rail_fast ship" speed="9.19" length="21.59" width="3.50" shape="-174.25,-64.80 -174.90,-61.79 -175.86,-58.86 -176.50,-57.46 -177.28,-56.13 -178.23,-54.92 -179.38,-53.90 -180.71,-53.13 -182.18,-52.66 -183.71,-52.51 -185.24,-52.63 -186.75,-52.96 -188.24,-53.45"/>
    </edge>
    <edge id=":41_2" function="internal">
        <lane id=":41_2_0" index="0" disallow="pedestrian tram rail_urban rail rail_electric rail_fast ship" speed="7.82" length="15.31" width="3.50" shape="-186.99,-56.72 -185.91,-56.36 -184.87,-56.14 -183.87,-56.08 -182.93,-56.20 -182.05,-56.53 -181.25,-57.06 -180.55,-57.77 -179.93,-58.63 -179.39,-59.61 -178.94,-60.66 -178.20,-62.99 -177.69,-65.43"/>
    </edge>
    <edge id=":41_3" function="internal">
        <lane id=":41_3_0" index="0" disallow="pedestrian tram rail_urban rail rail_electric rail_fast ship" speed="36.11" length="27.24" width="3.50" shape="-182.60,-38.64 -180.15,-52.02 -177.69,-65.43"/>
    </edge>

    <edge id="90653" from="8" to="39" priority="3" type="highway.residential" spreadType="center" length="1.25" shape="-129.70,-136.02 -118.59,-117.17">
        <lane id="90653_0" index="0" disallow="pedestrian tram rail_urban rail rail_electric rail_fast ship" speed="36.11" length="1.25" width="3.50" customShape="1" shape="-129.70,-136.02 -129.01,-134.98"/>
    </edge>
    <edge id="90658" from="31" to="38" priority="3" type="highway.residential" spreadType="center" length="69.86" shape="-121.93,-232.74 -64.16,-166.40">
        <lane id="90658_0" index="0" disallow="pedestrian tram rail_urban rail rail_electric rail_fast ship" speed="36.11" length="69.86" width="3.50" customShape="1" shape="-121.93,-232.74 -114.85,-227.71 -108.69,-223.15 -104.79,-219.85 -100.38,-215.58 -95.19,-209.95 -87.46,-201.09 -81.38,-193.51 -76.24,-187.15 -73.22,-183.22"/>
    </edge>
    <edge id="90659" from="38" to="21" priority="3" type="highway.residential" spreadType="center" length="70.00" shape="-66.79,-164.10 -124.91,-230.57">
        <lane id="90659_0" index="0" disallow="pedestrian tram rail_urban rail rail_electric rail_fast ship" speed="36.11" length="70.00" width="3.50" customShape="1" shape="-75.99,-181.08 -79.03,-185.03 -84.11,-191.32 -90.12,-198.80 -97.74,-207.55 -102.84,-213.08 -107.12,-217.24 -110.90,-220.44 -116.96,-224.92 -124.91,-230.57"/>
    </edge>
    <edge id="90669" from="19" to="37" priority="3" type="highway.residential" spreadType="center" length="70.16" shape="-124.71,-178.66 -153.50,-104.54">
        <lane id="90669_0" index="0" disallow="pedestrian tram rail_urban rail rail_electric rail_fast ship" speed="36.11" length="70.16" width="3.50" customShape="1" shape="-124.71,-178.66 -124.22,-176.38 -123.68,-172.31 -123.52,-168.73 -123.71,-165.15 -124.18,-162.11 -124.94,-159.13 -125.83,-156.73 -126.78,-154.91 -128.23,-152.79 -129.91,-150.86 -132.54,-148.42 -139.02,-143.39 -142.16,-140.76 -144.31,-138.55 -148.38,-133.27 -154.34,-125.57 -157.31,-121.19"/>
    </edge>
    <edge id="90670" from="37" to="12" priority="3" type="highway.residential" spreadType="center" length="70.01" shape="-156.77,-105.79 -128.73,-180.52">
        <lane id="90670_0" index="0" disallow="pedestrian tram rail_urban rail rail_electric rail_fast ship" speed="36.11" length="70.01" width="3.50" customShape="1" shape="-160.21,-123.15 -157.26,-127.52 -151.28,-135.25 -147.17,-140.58 -144.93,-142.95 -141.72,-145.72 -135.25,-150.72 -132.71,-153.01 -131.14,-154.75 -129.80,-156.66 -128.97,-158.27 -128.18,-160.49 -127.51,-163.30 -127.13,-166.16 -127.04,-169.57 -127.28,-172.99 -127.89,-176.90 -128.73,-180.52"/>
    </edge>
    <edge id="90681" from="34" to="41" priority="3" type="highway.residential" spreadType="center" length="5.22" shape="-191.86,-58.59 -180.64,-54.37">
        <lane id="90681_0" index="0" disallow="pedestrian tram rail_urban rail rail_electric rail_fast ship" speed="36.11" length="5.22" width="3.50" customShape="1" shape="-191.86,-58.59 -187.19,-56.80 -186.99,-56.72"/>
    </edge>
    <edge id="90682" from="41" to="27" priority="3" type="highway.residential" spreadType="center" length="5.22" shape="-181.85,-51.13 -193.11,-55.32">
        <lane id="90682_0" index="0" disallow="pedestrian tram rail_urban rail rail_electric rail_fast ship" speed="36.11" length="5.22" width="3.50" customShape="1" shape="-188.24,-53.45 -188.45,-53.53 -193.11,-55.32"/>
    </edge>
    <edge id="90684" from="41" to="29" priority="3" type="highway.residential" spreadType="center" length="5.25" shape="-179.74,-52.96 -180.10,-32.85">
        <lane id="90684_0" index="0" disallow="pedestrian tram rail_urban rail rail_electric rail_fast ship" speed="36.11" length="5.25" width="3.50" customShape="1" shape="-179.16,-38.02 -179.18,-37.90 -179.20,-37.77 -180.10,-32.85"/>
    </edge>
    <edge id="90685" from="33" to="41" priority="3" type="highway.residential" spreadType="center" length="5.26" shape="-183.54,-33.48 -183.23,-53.03">
        <lane id="90685_0" index="0" disallow="pedestrian tram rail_urban rail rail_electric rail_fast ship" speed="36.11" length="5.26" width="3.50" customShape="1" shape="-183.54,-33.48 -182.65,-38.40 -182.62,-38.52 -182.60,-38.65"/>
    </edge>
    <edge id="90687" from="37" to="41" priority="3" type="highway.residential" spreadType="center" length="21.60" shape="-153.56,-104.42 -179.95,-52.01">
        <lane id="90687_0" index="0" disallow="pedestrian tram rail_urban rail rail_electric rail_fast ship" speed="36.11" length="21.60" width="3.50" customShape="1" shape="-168.28,-85.44 -168.98,-84.10 -170.56,-80.41 -171.80,-76.59 -172.88,-72.21 -174.25,-64.79"/>
    </edge>
    <edge id="90688" from="41" to="37" priority="3" type="highway.residential" spreadType="center" length="22.73" shape="-183.07,-53.58 -156.68,-106.00">
        <lane id="90688_0" index="0" disallow="pedestrian tram rail_urban rail rail_electric rail_fast ship" speed="36.11" length="22.73" width="3.50" customShape="1" shape="-177.69,-65.43 -176.27,-73.08 -175.13,-77.70 -173.79,-81.75 -172.10,-85.68 -171.34,-87.14"/>
    </edge>
    <edge id="90690" from="39" to="37" priority="3" type="highway.residential" spreadType="center" length="0.20" shape="-119.55,-114.77 -154.59,-103.54">
        <lane id="90690_0" index="0" disallow="pedestrian tram rail_urban rail rail_electric rail_fast ship" speed="36.11" length="0.20" width="3.50" customShape="1" shape="-137.93,-104.88 -138.12,-104.81"/>
    </edge>
    <edge id="90691" from="37" to="39" priority="3" type="highway.residential" spreadType="center" length="0.19" shape="-155.65,-106.88 -120.62,-118.10">
        <lane id="90691_0" index="0" disallow="pedestrian tram rail_urban rail rail_electric rail_fast ship" speed="36.11" length="0.19" width="3.50" customShape="1" shape="-139.28,-108.11 -139.10,-108.17"/>
    </edge>
    <edge id="90693" from="38" to="39" priority="3" type="highway.residential" spreadType="center" length="32.13" shape="-64.33,-163.98 -119.03,-115.08">
        <lane id="90693_0" index="0" disallow="pedestrian tram rail_urban rail rail_electric rail_fast ship" speed="36.11" length="32.13" width="3.50" customShape="1" shape="-72.90,-133.81 -73.26,-133.44 -76.27,-130.57 -79.91,-127.63 -85.03,-124.06 -89.91,-121.09 -94.52,-118.69 -99.67,-116.43"/>
    </edge>
    <edge id="90694" from="39" to="38" priority="3" type="highway.residential" spreadType="center" length="30.77" shape="-121.36,-117.68 -66.67,-166.59">
        <lane id="90694_0" index="0" disallow="pedestrian tram rail_urban rail rail_electric rail_fast ship" speed="36.11" length="30.77" width="3.50" customShape="1" shape="-101.08,-119.63 -96.05,-121.84 -91.65,-124.13 -86.97,-126.97 -82.07,-130.39 -78.61,-133.18 -75.75,-135.90 -75.42,-136.24"/>
    </edge>
    <edge id="90696" from="32" to="38" priority="3" type="highway.residential" spreadType="center" length="70.00" shape="-20.92,-243.22 -63.98,-164.41">
        <lane id="90696_0" index="0" disallow="pedestrian tram rail_urban rail rail_electric rail_fast ship" speed="36.11" length="70.00" width="3.50" customShape="1" shape="-20.92,-243.22 -21.49,-241.11 -24.21,-232.48 -27.60,-223.03 -35.87,-201.99 -41.44,-188.53 -46.18,-178.00"/>
    </edge>
    <edge id="90697" from="38" to="20" priority="3" type="highway.residential" spreadType="center" length="70.00" shape="-67.05,-166.09 -24.14,-244.73">
        <lane id="90697_0" index="0" disallow="pedestrian tram rail_urban rail rail_electric rail_fast ship" speed="36.11" length="70.00" width="3.50" customShape="1" shape="-49.35,-179.49 -44.63,-189.97 -39.08,-203.39 -30.83,-224.38 -27.46,-233.78 -24.78,-242.34 -24.14,-244.73"/>
    </edge>
    <edge id="90940" from="39" to="40" priority="3" type="highway.residential" spreadType="center" length="0.21" shape="-121.59,-115.39 -129.68,-129.69">
        <lane id="90940_0" index="0" disallow="pedestrian tram rail_urban rail rail_electric rail_fast ship" speed="36.11" length="0.21" width="3.50" customShape="1" shape="-129.76,-130.60 -129.94,-130.70"/>
    </edge>
    <edge id="90953" from="39" to="40" priority="3" type="highway.residential" spreadType="center" length="23.21">
        <lane id="90953_0" index="0" disallow="pedestrian tram rail_urban rail rail_electric rail_fast ship" speed="36.11" length="23.21" width="3.50" customShape="1" shape="-133.46,-110.42 -133.00,-110.65 -131.05,-111.82 -130.13,-112.49 -129.27,-113.23 -128.48,-114.04 -127.77,-114.93 -127.17,-115.90 -126.70,-116.93 -126.36,-118.01 -126.17,-119.13 -126.12,-120.27 -126.20,-121.40 -126.38,-122.52 -126.67,-123.62 -127.47,-125.75 -128.50,-127.77 -129.68,-129.69"/>
    </edge>

    <junction id="12" type="dead_end" x="-128.73" y="-180.52" incLanes="90670_0" intLanes="" shape="-130.43,-180.12 -127.03,-180.91" rightOfWay="edgePriority"/>
    <junction id="19" type="dead_end" x="-124.71" y="-178.66" incLanes="" intLanes="" shape="-126.42,-178.29 -123.00,-179.02" rightOfWay="edgePriority"/>
    <junction id="20" type="dead_end" x="-24.14" y="-244.73" incLanes="90697_0" intLanes="" shape="-25.83,-245.18 -22.45,-244.27" rightOfWay="edgePriority"/>
    <junction id="21" type="dead_end" x="-124.91" y="-230.57" incLanes="90659_0" intLanes="" shape="-125.93,-229.14 -123.90,-231.99" rightOfWay="edgePriority"/>
    <junction id="27" type="dead_end" x="-193.11" y="-55.32" incLanes="90682_0" intLanes="" shape="-193.74,-53.69 -192.49,-56.96" rightOfWay="edgePriority"/>
    <junction id="29" type="dead_end" x="-180.10" y="-32.85" incLanes="90684_0" intLanes="" shape="-178.37,-32.54 -181.82,-33.17" rightOfWay="edgePriority"/>
    <junction id="31" type="dead_end" x="-121.93" y="-232.74" incLanes="" intLanes="" shape="-122.94,-231.31 -120.92,-234.16" rightOfWay="edgePriority"/>
    <junction id="32" type="dead_end" x="-20.92" y="-243.22" incLanes="" intLanes="" shape="-22.61,-243.68 -19.23,-242.76" rightOfWay="edgePriority"/>
    <junction id="33" type="dead_end" x="-183.54" y="-33.48" incLanes="" intLanes="" shape="-181.82,-33.17 -185.26,-33.79" rightOfWay="edgePriority"/>
    <junction id="34" type="dead_end" x="-191.86" y="-58.59" incLanes="" intLanes="" shape="-192.49,-56.96 -191.23,-60.22" rightOfWay="edgePriority"/>
    <junction id="37" type="priority" x="-155.12" y="-105.21" incLanes="90690_0 90669_0 90688_0" intLanes=":37_0_0 :37_1_0 :37_2_0 :37_3_0 :37_4_0 :37_5_0" shape="-135.68,-103.81 -138.00,-110.41 -143.47,-109.19 -148.79,-109.20 -153.31,-110.39 -156.42,-112.67 -157.48,-115.97 -155.86,-120.21 -161.66,-124.13 -165.56,-117.15 -167.33,-111.47 -167.95,-106.40 -168.43,-101.25 -169.75,-95.31 -172.92,-87.88 -166.73,-84.62 -162.67,-91.23 -158.73,-95.43 -154.47,-98.01 -149.49,-99.74 -143.37,-101.42">
        <request index="0" response="001000" foes="001000" cont="0"/>
        <request index="1" response="111000" foes="111000" cont="0"/>
        <request index="2" response="000000" foes="100000" cont="0"/>
        <request index="3" response="000000" foes="100011" cont="0"/>
        <request index="4" response="000000" foes="000010" cont="0"/>
        <request index="5" response="001100" foes="001110" cont="0"/>
    </junction>
    <junction id="38" type="priority" x="-65.50" y="-165.28" incLanes="90696_0 90658_0 90694_0" intLanes=":38_0_0 :38_1_0 :38_2_0 :38_3_0" shape="-44.57,-177.33 -50.95,-180.20 -53.68,-176.11 -56.92,-174.39 -60.51,-174.69 -64.30,-176.66 -68.12,-179.98 -71.83,-184.28 -77.38,-180.02 -72.21,-172.16 -69.07,-164.60 -67.95,-157.36 -68.84,-150.41 -71.75,-143.78 -76.68,-137.45 -71.64,-132.59 -64.32,-140.58 -59.19,-147.13 -55.45,-153.16 -52.29,-159.60 -48.93,-167.35">
        <request index="0" response="0000" foes="0010" cont="0"/>
        <request index="1" response="1001" foes="1001" cont="0"/>
        <request index="2" response="0000" foes="0000" cont="0"/>
        <request index="3" response="0000" foes="0010" cont="0"/>
    </junction>
    <junction id="39" type="priority" x="-120.16" y="-116.41" incLanes="90693_0 90653_0 90691_0" intLanes=":39_0_0 :39_1_0 :39_2_0 :39_3_0 :39_4_0 :39_5_0" shape="-98.97,-114.83 -101.78,-121.23 -105.92,-120.14 -110.12,-120.46 -114.38,-122.20 -118.71,-125.37 -123.10,-129.95 -127.55,-135.95 -130.46,-134.02 -130.56,-133.95 -130.81,-128.25 -132.83,-108.79 -134.10,-112.06 -141.55,-109.17 -139.21,-102.58">
        <request index="0" response="000000" foes="001000" cont="0"/>
        <request index="1" response="100000" foes="101000" cont="0"/>
        <request index="2" response="100000" foes="100000" cont="0"/>
        <request index="3" response="100011" foes="100011" cont="0"/>
        <request index="4" response="000000" foes="000000" cont="0"/>
        <request index="5" response="000000" foes="001110" cont="0"/>
    </junction>
    <junction id="40" type="dead_end" x="-129.68" y="-129.69" incLanes="90940_0 90953_0" intLanes="" shape="-131.11,-128.68 -128.25,-130.71 -131.17,-128.77 -128.19,-130.61"/>
    <junction id="41" type="priority" x="-181.49" y="-52.84" incLanes="90687_0 90681_0 90685_0" intLanes=":41_0_0 :41_1_0 :41_2_0 :41_3_0" shape="-172.53,-64.47 -179.41,-65.75 -180.09,-62.93 -180.96,-60.74 -182.03,-59.19 -183.28,-58.28 -184.73,-58.00 -186.37,-58.36 -188.86,-51.82 -186.95,-50.78 -185.50,-49.30 -184.51,-47.37 -183.98,-45.01 -183.92,-42.21 -184.32,-38.96 -177.44,-37.71">
        <request index="0" response="0000" foes="0000" cont="0"/>
        <request index="1" response="1000" foes="1000" cont="0"/>
        <request index="2" response="1000" foes="1000" cont="0"/>
        <request index="3" response="0000" foes="0110" cont="0"/>
    </junction>
    <junction id="8" type="dead_end" x="-129.70" y="-136.02" incLanes="" intLanes="" shape="-131.15,-135.05 -128.24,-136.99" rightOfWay="edgePriority"/>

    <connection from="90653" to="90694" fromLane="0" toLane="0" contPos="-4.00" shape="-126.77,-131.63 -124.92,-129.03 -122.89,-126.53 -120.67,-124.21 -119.07,-122.78 -117.36,-121.49 -115.53,-120.37 -113.60,-119.45 -111.56,-118.78 -109.46,-118.38 -107.32,-118.28 -105.18,-118.48 -103.09,-118.94 -101.08,-119.63" via=":39_2_0" dir="r" state="m"/>
    <connection from="90653" to="90690" fromLane="0" toLane="0" contPos="-4.00" shape="-126.77,-131.63 -125.37,-129.36 -124.13,-126.93 -123.16,-124.37 -122.80,-122.97 -122.55,-121.55 -122.45,-120.09 -122.52,-118.61 -122.76,-117.13 -123.20,-115.69 -123.82,-114.32 -124.60,-113.06 -125.51,-111.90 -126.51,-110.86 -127.59,-109.93 -128.74,-109.09 -131.07,-107.68 -133.51,-106.52 -136.01,-105.55" via=":39_3_0" dir="l" state="m"/>
    <connection from="90658" to="90693" fromLane="0" toLane="0" contPos="-4.00" shape="-73.13,-183.11 -70.53,-179.17 -68.18,-175.07 -66.64,-171.88 -65.31,-168.60 -64.24,-165.22 -63.48,-161.76 -63.08,-158.25 -63.06,-154.71 -63.47,-151.19 -64.31,-147.76 -65.56,-144.44 -67.17,-141.29 -69.11,-138.33 -71.31,-135.56 -72.90,-133.81" via=":38_1_0" dir="l" state="m"/>
    <connection from="90669" to="90691" fromLane="0" toLane="0" contPos="-4.00" shape="-157.22,-121.32 -158.86,-118.53 -160.31,-115.62 -160.93,-114.12 -161.44,-112.58 -161.80,-111.00 -161.90,-109.38 -161.62,-107.79 -160.79,-106.41 -159.49,-105.47 -157.96,-104.94 -156.35,-104.71 -154.73,-104.68 -153.11,-104.78 -151.49,-104.97 -148.30,-105.56 -145.15,-106.34 -140.48,-107.73 -137.42,-108.76" via=":37_2_0" dir="r" state="M"/>
    <connection from="90669" to="90687" fromLane="0" toLane="0" contPos="-4.00" shape="-157.22,-121.32 -158.73,-118.57 -159.96,-115.67 -160.94,-112.68 -161.95,-108.60 -164.10,-97.26 -165.11,-93.19 -166.09,-90.20 -167.31,-87.30 -168.28,-85.44" via=":37_3_0" dir="s" state="M"/>
    <connection from="90681" to="90688" fromLane="0" toLane="0" contPos="-4.00" shape="-186.99,-56.72 -185.91,-56.36 -184.87,-56.14 -183.87,-56.08 -182.93,-56.20 -182.05,-56.53 -181.25,-57.06 -180.55,-57.77 -179.93,-58.63 -179.39,-59.61 -178.94,-60.66 -178.20,-62.99 -177.69,-65.43" via=":41_2_0" dir="r" state="m"/>
    <connection from="90685" to="90688" fromLane="0" toLane="0" contPos="-4.00" shape="-182.60,-38.64 -180.15,-52.02 -177.69,-65.43" via=":41_3_0" dir="s" state="M"/>