<routes>
	<vehicle depart="0.1" departLane="0" departPos="7.4647562598777375" departSpeed="0.94570387" id="32" type="passenger">
		<route edges=":41_2 90688"/>
	</vehicle>
	<vehicle depart="0.1" departLane="0" departPos="22.378625866358043" departSpeed="0.18324057" id="34" type="passenger">
		<route edges="90688 90670"/>
	</vehicle>
	<vehicle depart="0.1" departLane="0" departPos="18.913403009747704" departSpeed="0.4596662" id="311" type="passenger">
		<route edges=":37_5 90691"/>
	</vehicle>
	<vehicle depart="0.1" departLane="0" departPos="12.302232936225993" departSpeed="1.2135448" id="312" type="passenger">
		<route edges="90688 90670"/>
	</vehicle>
	<vehicle depart="0.1" departLane="0" departPos="6.15789879220578" departSpeed="0.76972895" id="316" type="passenger">
		<route edges=":41_3 90688"/>
	</vehicle>
	<vehicle depart="0.1" departLane="0" departPos="27.256751087427418" departSpeed="1.0269584" id="322" type="passenger">
		<route edges=":41_3 90688"/>
	</vehicle>
</routes>
