<routes>
	<vehicle depart="0.1" departLane="0" departPos="22.943501431918392" departSpeed="3.1451763" id="313" type="bicycle">
		<route edges=":13_2 21768"/>
	</vehicle>
	<vehicle depart="0.1" departLane="0" departPos="21.17703752663809" departSpeed="4.0275267" id="314" type="bicycle">
		<route edges=":13_2 21768"/>
	</vehicle>
	<vehicle depart="0.1" departLane="0" departPos="8.40060251081283" departSpeed="0.1195932" id="35" type="passenger">
		<route edges=":13_1 22041"/>
	</vehicle>
	<vehicle depart="0.1" departLane="0" departPos="49.272787462627335" departSpeed="0.73588328" id="37" type="passenger">
		<route edges="21769 22772"/>
	</vehicle>
	<vehicle depart="0.1" departLane="0" departPos="31.252526338546105" departSpeed="5.5224256" id="39" type="passenger">
		<route edges=":13_5 21768"/>
	</vehicle>
	<vehicle depart="0.1" departLane="0" departPos="42.493004293108534" departSpeed="0.38811036" id="311" type="passenger">
		<route edges="21769 22772"/>
	</vehicle>
	<vehicle depart="0.1" departLane="0" departPos="12.295968480292883" departSpeed="2.8874195" id="315" type="passenger">
		<route edges=":13_2 21768"/>
	</vehicle>
	<vehicle depart="0.1" departLane="0" departPos="24.56379595835184" departSpeed="2.9683556" id="316" type="passenger">
		<route edges="21769 22772"/>
	</vehicle>
</routes>
