<!-- generated on Tue Feb  9 22:07:58 2021 by Eclipse SUMO netconvert Version 1.8.0
<configuration xmlns:xsi="http://www.w3.org/2001/XMLSchema-instance" xsi:noNamespaceSchemaLocation="http://sumo.dlr.de/xsd/netconvertConfiguration.xsd">

    <input>
        <node-files value="./converted_scenarios/scenario-factory/DEU_BadEssen-4_1_I-1-1/DEU_BadEssen-4_1_I-1-1.nod.xml"/>
        <edge-files value="./converted_scenarios/scenario-factory/DEU_BadEssen-4_1_I-1-1/DEU_BadEssen-4_1_I-1-1.edg.xml"/>
        <connection-files value="./converted_scenarios/scenario-factory/DEU_BadEssen-4_1_I-1-1/DEU_BadEssen-4_1_I-1-1.con.xml"/>
        <tllogic-files value="./converted_scenarios/scenario-factory/DEU_BadEssen-4_1_I-1-1/DEU_BadEssen-4_1_I-1-1.tll.xml"/>
        <type-files value="/home/zen/commonroad-interactive-benchmarks/install/commonroad-map-tool/crmapconverter/sumo_map/templates/DEU.typ.xml"/>
    </input>

    <output>
        <output-file value="./converted_scenarios/scenario-factory/DEU_BadEssen-4_1_I-1-1/DEU_BadEssen-4_1_I-1-1.net.xml"/>
    </output>

    <processing>
        <geometry.remove.keep-edges.explicit value="true"/>
        <geometry.avoid-overlap value="true"/>
        <offset.disable-normalization value="true"/>
    </processing>

    <junctions>
        <no-turnarounds value="true"/>
        <junctions.internal-link-detail value="20"/>
    </junctions>

    <report>
        <aggregate-warnings value="5"/>
    </report>

    <random_number>
        <seed value="1234"/>
    </random_number>

</configuration>
--><net xmlns:xsi="http://www.w3.org/2001/XMLSchema-instance" version="1.6" junctionCornerDetail="5" junctionLinkDetail="20" limitTurnSpeed="5.50" xsi:noNamespaceSchemaLocation="http://sumo.dlr.de/xsd/net_file.xsd">

    <location netOffset="0.00,0.00" convBoundary="-471.36,176.68,-375.36,209.65" origBoundary="-471.36,176.68,-375.36,209.65" projParameter="!"/>

    <type id="highway.bridleway" priority="1" speed="2.78" allow="pedestrian" oneway="1" width="2.00"/>
    <type id="highway.bus_guideway" priority="1" speed="27.78" allow="bus" oneway="1"/>
    <type id="highway.cycleway" priority="1" speed="8.33" allow="bicycle" oneway="0" width="1.00"/>
    <type id="highway.footway" priority="1" speed="2.78" allow="pedestrian" oneway="1" width="2.00"/>
    <type id="highway.ford" priority="1" speed="2.78" allow="army" oneway="0"/>
    <type id="highway.living_street" priority="2" speed="2.78" disallow="tram rail_urban rail rail_electric rail_fast ship" oneway="0"/>
    <type id="highway.motorway" priority="14" speed="39.44" allow="private emergency authority army vip passenger hov taxi bus coach delivery truck trailer motorcycle evehicle custom1 custom2" oneway="1"/>
    <type id="highway.motorway_link" priority="9" speed="22.22" allow="private emergency authority army vip passenger hov taxi bus coach delivery truck trailer motorcycle evehicle custom1 custom2" oneway="1"/>
    <type id="highway.path" priority="1" speed="2.78" allow="pedestrian bicycle" oneway="0" width="2.00"/>
    <type id="highway.pedestrian" priority="1" speed="2.78" allow="pedestrian" oneway="1" width="2.00"/>
    <type id="highway.primary" priority="12" speed="27.78" disallow="pedestrian tram rail_urban rail rail_electric rail_fast ship" oneway="0"/>
    <type id="highway.primary_link" priority="7" speed="22.22" disallow="pedestrian tram rail_urban rail rail_electric rail_fast ship" oneway="0"/>
    <type id="highway.raceway" priority="15" speed="83.33" allow="vip" oneway="0"/>
    <type id="highway.residential" priority="3" speed="13.89" disallow="pedestrian tram rail_urban rail rail_electric rail_fast ship" oneway="0"/>
    <type id="highway.secondary" priority="11" speed="27.78" disallow="pedestrian tram rail_urban rail rail_electric rail_fast ship" oneway="0"/>
    <type id="highway.secondary_link" priority="6" speed="22.22" disallow="pedestrian tram rail_urban rail rail_electric rail_fast ship" oneway="0"/>
    <type id="highway.service" priority="1" speed="5.56" allow="pedestrian delivery bicycle" oneway="0"/>
    <type id="highway.stairs" priority="1" speed="1.39" allow="pedestrian" oneway="1" width="2.00"/>
    <type id="highway.step" priority="1" speed="1.39" allow="pedestrian" oneway="1" width="2.00"/>
    <type id="highway.steps" priority="1" speed="1.39" allow="pedestrian" oneway="1" width="2.00"/>
    <type id="highway.tertiary" priority="10" speed="22.22" disallow="pedestrian tram rail_urban rail rail_electric rail_fast ship" oneway="0"/>
    <type id="highway.tertiary_link" priority="5" speed="22.22" disallow="pedestrian tram rail_urban rail rail_electric rail_fast ship" oneway="0"/>
    <type id="highway.track" priority="1" speed="5.56" allow="pedestrian motorcycle moped bicycle" oneway="0"/>
    <type id="highway.trunk" priority="13" speed="27.78" disallow="pedestrian bicycle tram rail_urban rail rail_electric rail_fast ship" oneway="0"/>
    <type id="highway.trunk_link" priority="8" speed="22.22" disallow="pedestrian bicycle tram rail_urban rail rail_electric rail_fast ship" oneway="0"/>
    <type id="highway.unclassified" priority="4" speed="13.89" disallow="pedestrian tram rail_urban rail rail_electric rail_fast ship" oneway="0"/>
    <type id="highway.unsurfaced" priority="1" speed="8.33" disallow="tram rail_urban rail rail_electric rail_fast ship" oneway="0"/>
    <type id="railway.highspeed" priority="21" speed="69.44" allow="rail_fast" oneway="1"/>
    <type id="railway.light_rail" priority="19" speed="27.78" allow="rail_urban" oneway="1"/>
    <type id="railway.preserved" priority="16" speed="27.78" allow="rail" oneway="1"/>
    <type id="railway.rail" priority="20" speed="44.44" allow="rail" oneway="1"/>
    <type id="railway.subway" priority="18" speed="27.78" allow="rail_urban" oneway="1"/>
    <type id="railway.tram" priority="17" speed="13.89" allow="tram" oneway="1"/>

    <edge id=":13_0" function="internal">
        <lane id=":13_0_0" index="0" disallow="pedestrian tram rail_urban rail rail_electric rail_fast ship" speed="36.11" length="27.11" width="3.50" shape="-426.41,200.30 -427.30,200.37 -428.35,200.48 -429.57,200.63 -430.92,200.82 -432.38,201.05 -433.93,201.31 -435.56,201.59 -437.23,201.90 -438.94,202.22 -440.65,202.55 -442.35,202.89 -444.02,203.24 -445.63,203.58 -447.17,203.92 -448.61,204.25 -449.94,204.57 -451.13,204.86 -452.16,205.14 -453.01,205.39"/>
    </edge>
    <edge id=":13_1" function="internal">
        <lane id=":13_1_0" index="0" disallow="pedestrian tram rail_urban rail rail_electric rail_fast ship" speed="19.93" length="40.27" width="3.50" shape="-426.41,200.30 -429.77,200.29 -433.10,199.89 -436.37,199.15 -439.56,198.10 -442.64,196.78 -445.63,195.24 -449.44,192.90 -453.07,190.28 -457.38,186.72 -461.47,182.90"/>
    </edge>
    <edge id=":13_2" function="internal">
        <lane id=":13_2_0" index="0" disallow="pedestrian tram rail_urban rail rail_electric rail_fast ship" speed="19.19" length="37.38" width="3.50" shape="-459.01,180.41 -455.15,184.03 -451.08,187.40 -447.68,189.86 -444.13,192.07 -441.38,193.51 -438.54,194.74 -435.62,195.73 -432.64,196.42 -429.63,196.79 -426.58,196.81"/>
    </edge>
    <edge id=":13_3" function="internal">
        <lane id=":13_3_0" index="0" disallow="pedestrian tram rail_urban rail rail_electric rail_fast ship" speed="10.30" length="27.51" width="3.50" shape="-459.00,180.42 -457.59,181.83 -456.27,183.22 -455.03,184.59 -453.89,185.93 -452.86,187.25 -451.94,188.54 -451.14,189.80 -450.46,191.04 -449.93,192.26 -449.53,193.45 -449.29,194.61 -449.21,195.75 -449.30,196.86 -449.56,197.95 -450.00,199.01 -450.63,200.04 -451.46,201.05 -452.50,202.04 -453.75,203.00"/>
    </edge>
    <edge id=":13_4" function="internal">
        <lane id=":13_4_0" index="0" disallow="pedestrian tram rail_urban rail rail_electric rail_fast ship" speed="7.69" length="17.00" width="3.50" shape="-455.37,197.75 -454.99,196.53 -454.81,195.33 -454.82,194.13 -454.99,192.93 -455.30,191.76 -455.73,190.63 -456.26,189.54 -457.52,187.48 -459.00,185.56 -461.47,182.90"/>
    </edge>
    <edge id=":13_5" function="internal">
        <lane id=":13_5_0" index="0" disallow="pedestrian tram rail_urban rail rail_electric rail_fast ship" speed="36.11" length="28.03" width="3.50" shape="-454.04,202.05 -450.54,200.96 -444.40,199.40 -438.18,198.14 -431.89,197.25 -426.58,196.81"/>
    </edge>

    <edge id="21768" from="13" to="6" priority="3" type="highway.residential" spreadType="center" length="50.92" shape="-447.99,191.62 -375.84,193.22">
        <lane id="21768_0" index="0" disallow="pedestrian tram rail_urban rail rail_electric rail_fast ship" speed="36.11" length="50.92" width="3.50" customShape="1" shape="-426.58,196.81 -424.08,196.69 -406.44,196.32 -398.38,195.91 -388.85,194.96 -375.84,193.22"/>
    </edge>
    <edge id="21769" from="1" to="13" priority="3" type="highway.residential" spreadType="center" length="51.23" shape="-375.36,196.69 -448.07,195.11">
        <lane id="21769_0" index="0" disallow="pedestrian tram rail_urban rail rail_electric rail_fast ship" speed="36.11" length="51.23" width="3.50" customShape="1" shape="-375.36,196.69 -388.44,198.44 -398.07,199.39 -406.22,199.81 -423.92,200.19 -426.41,200.30"/>
    </edge>
    <edge id="21771" from="9" to="13" priority="3" type="highway.residential" spreadType="center" length="18.46" shape="-471.36,208.35 -448.92,191.91">
        <lane id="21771_0" index="0" disallow="pedestrian tram rail_urban rail rail_electric rail_fast ship" speed="36.11" length="18.46" width="3.47" customShape="1" shape="-471.36,208.35 -466.71,206.50 -466.60,206.46 -454.21,201.51"/>
    </edge>
    <edge id="22040" from="10" to="13" priority="3" type="highway.residential" spreadType="center" length="5.32" shape="-462.79,176.68 -446.68,192.21">
        <lane id="22040_0" index="0" disallow="pedestrian tram rail_urban rail rail_electric rail_fast ship" speed="36.11" length="5.32" width="3.50" customShape="1" shape="-462.79,176.68 -460.89,178.55 -459.00,180.42"/>
    </edge>
    <edge id="22041" from="13" to="8" priority="3" type="highway.residential" spreadType="center" length="5.28" shape="-449.10,194.72 -465.22,179.19">
        <lane id="22041_0" index="0" disallow="pedestrian tram rail_urban rail rail_electric rail_fast ship" speed="36.11" length="5.28" width="3.50" customShape="1" shape="-461.47,182.90 -463.35,181.04 -465.22,179.19"/>
    </edge>
    <edge id="22772" from="13" to="14" priority="3" type="highway.residential" spreadType="center" length="12.88" shape="-446.78,194.64 -465.16,209.65">
        <lane id="22772_0" index="0" disallow="pedestrian tram rail_urban rail rail_electric rail_fast ship" speed="36.11" length="12.88" width="3.50" customShape="1" shape="-453.01,205.39 -456.51,206.47 -463.27,208.91 -465.16,209.65"/>
    </edge>
    <edge id="23243" from="13" to="14" priority="3" type="highway.residential" spreadType="center" length="13.25">
        <lane id="23243_0" index="0" disallow="pedestrian tram rail_urban rail rail_electric rail_fast ship" speed="36.11" length="13.25" width="3.50" customShape="1" shape="-453.75,203.00 -458.82,206.53 -461.33,207.93 -465.16,209.65"/>
    </edge>

    <junction id="1" type="dead_end" x="-375.36" y="196.69" incLanes="" intLanes="" shape="-375.59,194.95 -375.13,198.42" rightOfWay="edgePriority"/>
    <junction id="10" type="dead_end" x="-462.79" y="176.68" incLanes="" intLanes="" shape="-464.02,177.92 -461.56,175.43" rightOfWay="edgePriority"/>
    <junction id="13" type="priority" x="-447.99" y="193.37" incLanes="21769_0 22040_0 21771_0" intLanes=":13_0_0 :13_1_0 :13_2_0 :13_3_0 :13_4_0 :13_5_0" shape="-426.33,202.05 -426.66,195.06 -431.51,194.81 -436.49,193.60 -441.61,191.43 -446.86,188.30 -452.25,184.21 -457.78,179.16 -462.70,184.14 -458.69,188.32 -455.75,191.87 -453.89,194.80 -453.10,197.10 -453.37,198.79 -454.72,199.85 -452.49,207.06 -447.06,205.37 -443.01,204.15 -439.63,203.32 -436.20,202.76 -432.00,202.37">
        <request index="0" response="000000" foes="000000" cont="0"/>
        <request index="1" response="100000" foes="111000" cont="0"/>
        <request index="2" response="100000" foes="100000" cont="0"/>
        <request index="3" response="100010" foes="100010" cont="0"/>
        <request index="4" response="000010" foes="000010" cont="0"/>
        <request index="5" response="000000" foes="001110" cont="0"/>
    </junction>
    <junction id="14" type="dead_end" x="-465.16" y="209.65" incLanes="22772_0 23243_0" intLanes="" shape="-464.52,211.28 -465.80,208.02 -464.44,211.25 -465.88,208.05"/>
    <junction id="6" type="dead_end" x="-375.84" y="193.22" incLanes="21768_0" intLanes="" shape="-376.07,191.49 -375.61,194.96" rightOfWay="edgePriority"/>
    <junction id="8" type="dead_end" x="-465.22" y="179.19" incLanes="22041_0" intLanes="" shape="-466.45,180.44 -463.99,177.95" rightOfWay="edgePriority"/>
    <junction id="9" type="dead_end" x="-471.36" y="208.35" incLanes="" intLanes="" shape="-470.72,209.96 -472.00,206.74" rightOfWay="edgePriority"/>

    <connection from="21769" to="22772" fromLane="0" toLane="0" contPos="-4.00" via=":13_0_0" dir="s" state="M"/>
    <connection from="21769" to="22041" fromLane="0" toLane="0" contPos="-4.00" shape="-426.41,200.30 -429.77,200.29 -433.10,199.89 -436.37,199.15 -439.56,198.10 -442.64,196.78 -445.63,195.24 -449.44,192.90 -453.07,190.28 -457.38,186.72 -461.47,182.90" via=":13_1_0" dir="s" state="m"/>
    <connection from="21771" to="22041" fromLane="0" toLane="0" contPos="-4.00" shape="-466.48,206.41 -463.17,204.92 -461.06,203.74 -459.07,202.36 -458.15,201.58 -457.29,200.73 -456.52,199.79 -455.86,198.78 -455.34,197.69 -454.99,196.53 -454.81,195.33 -454.82,194.13 -454.99,192.93 -455.30,191.76 -455.73,190.63 -456.26,189.54 -457.52,187.48 -459.00,185.56 -461.47,182.90" via=":13_4_0" dir="r" state="m"/>
    <connection from="21771" to="21768" fromLane="0" toLane="0" contPos="-4.00" shape="-466.48,206.41 -464.51,205.64 -457.59,203.14 -450.54,200.96 -444.40,199.40 -438.18,198.14 -431.89,197.25 -426.58,196.81" via=":13_5_0" dir="s" state="M"/>
    <connection from="22040" to="21768" fromLane="0" toLane="0" contPos="-4.00" shape="-459.00,180.42 -455.15,184.03 -451.08,187.40 -447.68,189.86 -444.13,192.07 -441.38,193.51 -438.54,194.74 -435.62,195.73 -432.64,196.42 -429.63,196.79 -426.58,196.81" via=":13_2_0" dir="s" state="m"/>
    <connection from="22040" to="23243" fromLane="0" toLane="0" contPos="-4.00" via=":13_3_0" dir="l" state="m"/>

    <connection from=":13_0" to="22772" fromLane="0" toLane="0" dir="s" state="M"/>
    <connection from=":13_1" to="22041" fromLane="0" toLane="0" dir="s" state="M"/>
    <connection from=":13_2" to="21768" fromLane="0" toLane="0" dir="s" state="M"/>
    <connection from=":13_3" to="23243" fromLane="0" toLane="0" dir="l" state="M"/>
    <connection from=":13_4" to="22041" fromLane="0" toLane="0" dir="r" state="M"/>
    <connection from=":13_5" to="21768" fromLane="0" toLane="0" dir="s" state="M"/>

</net>