<!-- generated on 2020-12-18 16:49:56.187305 by ipykernel_launcher.py v1_2_0+5214-53edc58fcd
-->
<connections>
	<connection contPos="-4.0" from="637" fromLane="0" keepClear="true" to="653" toLane="0"/>
	<connection contPos="-4.0" from="637" fromLane="0" keepClear="true" to="665" toLane="0"/>
	<connection contPos="-4.0" from="639" fromLane="0" keepClear="true" to="666" toLane="0"/>
	<connection contPos="-4.0" from="639" fromLane="0" keepClear="true" to="657" toLane="0"/>
	<connection contPos="-4.0" from="639" fromLane="0" keepClear="true" to="650" toLane="0"/>
	<connection contPos="-4.0" from="642" fromLane="0" keepClear="true" to="655" toLane="0"/>
	<connection contPos="-4.0" from="642" fromLane="0" keepClear="true" to="654" toLane="0"/>
	<connection contPos="-4.0" from="642" fromLane="0" keepClear="true" to="652" toLane="0"/>
	<connection contPos="-4.0" from="644" fromLane="0" keepClear="true" to="661" toLane="0"/>
	<connection contPos="-4.0" from="644" fromLane="0" keepClear="true" to="663" toLane="0"/>
	<connection contPos="-4.0" from="646" fromLane="0" keepClear="true" to="658" toLane="0"/>
	<connection contPos="-4.0" from="646" fromLane="0" keepClear="true" to="664" toLane="0"/>
	<connection contPos="-4.0" from="646" fromLane="0" keepClear="true" to="649" toLane="0"/>
	<connection contPos="-4.0" from="647" fromLane="0" keepClear="true" to="656" toLane="0"/>
	<connection contPos="-4.0" from="647" fromLane="0" keepClear="true" to="660" toLane="0"/>
	<connection contPos="-4.0" from="647" fromLane="0" keepClear="true" to="659" toLane="0"/>
	<connection contPos="-4.0" from="648" fromLane="0" keepClear="true" to="662" toLane="0"/>
	<connection contPos="-4.0" from="648" fromLane="0" keepClear="true" to="651" toLane="0"/>
	<connection contPos="-4.0" from="649" fromLane="0" keepClear="true" to="648" toLane="0"/>
	<connection contPos="-4.0" from="650" fromLane="0" keepClear="true" to="645" toLane="0"/>
	<connection contPos="-4.0" from="651" fromLane="0" keepClear="true" to="643" toLane="0"/>
	<connection contPos="-4.0" from="652" fromLane="0" keepClear="true" to="648" toLane="0"/>
	<connection contPos="-4.0" from="653" fromLane="0" keepClear="true" to="643" toLane="0"/>
	<connection contPos="-4.0" from="654" fromLane="0" keepClear="true" to="645" toLane="0"/>
	<connection contPos="-4.0" from="655" fromLane="0" keepClear="true" to="640" toLane="0"/>
	<connection contPos="-4.0" from="656" fromLane="0" keepClear="true" to="640" toLane="0"/>
	<connection contPos="-4.0" from="657" fromLane="0" keepClear="true" to="641" toLane="0"/>
	<connection contPos="-4.0" from="658" fromLane="0" keepClear="true" to="641" toLane="0"/>
	<connection contPos="-4.0" from="659" fromLane="0" keepClear="true" to="645" toLane="0"/>
	<connection contPos="-4.0" from="660" fromLane="0" keepClear="true" to="641" toLane="0"/>
	<connection contPos="-4.0" from="661" fromLane="0" keepClear="true" to="638" toLane="0"/>
	<connection contPos="-4.0" from="662" fromLane="0" keepClear="true" to="638" toLane="0"/>
	<connection contPos="-4.0" from="663" fromLane="0" keepClear="true" to="647" toLane="0"/>
	<connection contPos="-4.0" from="664" fromLane="0" keepClear="true" to="640" toLane="0"/>
	<connection contPos="-4.0" from="665" fromLane="0" keepClear="true" to="647" toLane="0"/>
	<connection contPos="-4.0" from="666" fromLane="0" keepClear="true" to="648" toLane="0"/>
</connections>
