<?xml version="1.0" encoding="UTF-8"?>

<!-- generated on Fri Dec 18 16:49:56 2020 by Eclipse SUMO netconvert Version 1.8.0
<configuration xmlns:xsi="http://www.w3.org/2001/XMLSchema-instance" xsi:noNamespaceSchemaLocation="http://sumo.dlr.de/xsd/netconvertConfiguration.xsd">

    <input>
        <node-files value="./converted_scenarios/SUMO/DEU_Muc-14_1_I-1-1/nodes.net.xml"/>
        <edge-files value="./converted_scenarios/SUMO/DEU_Muc-14_1_I-1-1/edges.net.xml"/>
        <connection-files value="./converted_scenarios/SUMO/DEU_Muc-14_1_I-1-1/_connections.net.xml"/>
        <tllogic-files value="./converted_scenarios/SUMO/DEU_Muc-14_1_I-1-1/_tll.net.xml"/>
    </input>

    <output>
        <output-file value="./converted_scenarios/SUMO/DEU_Muc-14_1_I-1-1/DEU_Muc-14_1_I-1-1.net.xml"/>
    </output>

    <processing>
        <plain.extend-edge-shape value="true"/>
        <geometry.remove.keep-edges.explicit value="true"/>
        <geometry.avoid-overlap value="true"/>
        <offset.disable-normalization value="true"/>
    </processing>

    <junctions>
        <no-turnarounds value="true"/>
        <junctions.internal-link-detail value="20"/>
    </junctions>

    <report>
        <aggregate-warnings value="5"/>
    </report>

    <random_number>
        <seed value="1234"/>
    </random_number>

</configuration>
-->

<net version="1.6" junctionCornerDetail="5" junctionLinkDetail="20" limitTurnSpeed="5.50" xmlns:xsi="http://www.w3.org/2001/XMLSchema-instance" xsi:noNamespaceSchemaLocation="http://sumo.dlr.de/xsd/net_file.xsd">

    <location netOffset="0.00,0.00" convBoundary="-132.94,-37.20,77.05,72.28" origBoundary="-132.94,-37.20,77.05,72.28" projParameter="!"/>

    <edge id=":12_0" function="internal">
        <lane id=":12_0_0" index="0" disallow="bus truck rail_fast" speed="6.10" length="7.54" width="2.50" shape="5.33,-29.45 4.64,-29.39 3.98,-29.33 3.36,-29.26 2.78,-29.18 2.24,-29.10 1.73,-29.01 1.26,-28.91 0.83,-28.80 0.44,-28.69 0.08,-28.57 -0.24,-28.44 -0.52,-28.31 -0.76,-28.16 -0.97,-28.01 -1.14,-27.86 -1.27,-27.69 -1.37,-27.52 -1.43,-27.35 -1.45,-27.16"/>
    </edge>
    <edge id=":12_1" function="internal">
        <lane id=":12_1_0" index="0" disallow="rail_fast" speed="36.11" length="10.22" width="2.50" shape="5.33,-29.45 -4.87,-28.80"/>
    </edge>
    <edge id=":12_2" function="internal">
        <lane id=":12_2_0" index="0" disallow="bus truck rail_fast" speed="8.67" length="13.23" width="2.48" shape="5.33,-29.45 4.27,-29.38 3.27,-29.35 2.31,-29.34 1.40,-29.36 0.54,-29.41 -0.28,-29.48 -1.05,-29.59 -1.77,-29.72 -2.45,-29.88 -3.07,-30.07 -3.65,-30.29 -4.18,-30.53 -4.67,-30.81 -5.11,-31.11 -5.50,-31.44 -5.84,-31.80 -6.13,-32.19 -6.38,-32.60 -6.58,-33.05"/>
    </edge>
    <edge id=":13_0" function="internal">
        <lane id=":13_0_0" index="0" disallow="bus truck rail_fast" speed="36.11" length="6.91" width="2.50" shape="-5.24,1.23 -5.74,1.14 -6.20,1.05 -6.62,0.98 -6.99,0.91 -7.34,0.85 -7.65,0.79 -7.95,0.74 -8.23,0.70 -8.51,0.66 -8.78,0.62 -9.05,0.59 -9.33,0.57 -9.63,0.54 -9.95,0.52 -10.30,0.50 -10.68,0.48 -11.10,0.46 -11.57,0.45 -12.09,0.43"/>
    </edge>
    <edge id=":13_1" function="internal">
        <lane id=":13_1_0" index="0" disallow="bus truck rail_fast" speed="12.75" length="8.43" width="2.50" shape="-3.97,-0.85 -4.50,-0.55 -5.00,-0.29 -5.45,-0.07 -5.87,0.12 -6.26,0.27 -6.62,0.39 -6.98,0.48 -7.32,0.55 -7.65,0.59 -7.99,0.62 -8.34,0.63 -8.70,0.62 -9.08,0.60 -9.48,0.58 -9.92,0.55 -10.39,0.52 -10.90,0.48 -11.47,0.45 -12.09,0.43"/>
    </edge>
    <edge id=":16_0" function="internal">
        <lane id=":16_0_0" index="0" disallow="bus truck rail_fast" speed="6.28" length="6.67" width="2.50" shape="-11.23,-2.04 -11.04,-2.04 -10.78,-2.03 -10.48,-2.01 -10.13,-2.00 -9.73,-1.99 -9.31,-1.98 -8.87,-1.98 -8.42,-1.97 -7.95,-1.98 -7.49,-1.99 -7.04,-2.01 -6.61,-2.05 -6.20,-2.09 -5.82,-2.15 -5.49,-2.22 -5.20,-2.30 -4.98,-2.40 -4.81,-2.52 -4.73,-2.66"/>
    </edge>
    <edge id=":16_1" function="internal">
        <lane id=":16_1_0" index="0" disallow="bus truck rail_fast" speed="10.54" length="7.48" width="2.50" shape="-11.23,-2.04 -10.68,-2.03 -10.18,-2.03 -9.72,-2.04 -9.30,-2.06 -8.90,-2.08 -8.54,-2.10 -8.19,-2.11 -7.87,-2.11 -7.55,-2.10 -7.25,-2.07 -6.95,-2.02 -6.65,-1.95 -6.34,-1.86 -6.03,-1.73 -5.70,-1.57 -5.36,-1.37 -4.99,-1.13 -4.59,-0.85 -4.16,-0.52"/>
    </edge>
    <edge id=":17_0" function="internal">
        <lane id=":17_0_0" index="0" disallow="bus truck rail_fast" speed="36.11" length="6.98" width="2.48" shape="-5.40,-28.57 -7.25,-35.31"/>
    </edge>
    <edge id=":17_1" function="internal">
        <lane id=":17_1_0" index="0" disallow="bus truck rail_fast" speed="36.11" length="1.42" width="2.48" shape="-6.92,-33.93 -6.96,-34.03 -6.99,-34.12 -7.02,-34.20 -7.04,-34.27 -7.06,-34.34 -7.08,-34.41 -7.09,-34.47 -7.10,-34.53 -7.11,-34.58 -7.12,-34.64 -7.13,-34.69 -7.14,-34.75 -7.15,-34.81 -7.16,-34.88 -7.17,-34.95 -7.19,-35.03 -7.20,-35.11 -7.22,-35.21 -7.25,-35.31"/>
    </edge>
    <edge id=":17_2" function="internal">
        <lane id=":17_2_0" index="0" disallow="bus truck rail_fast" speed="36.11" length="1.43" width="2.48" shape="-6.92,-33.93 -6.93,-34.04 -6.93,-34.13 -6.94,-34.22 -6.95,-34.29 -6.96,-34.36 -6.97,-34.43 -6.99,-34.49 -7.01,-34.54 -7.02,-34.60 -7.04,-34.65 -7.06,-34.71 -7.08,-34.76 -7.10,-34.82 -7.12,-34.89 -7.15,-34.95 -7.17,-35.03 -7.19,-35.11 -7.22,-35.21 -7.25,-35.31"/>
    </edge>
    <edge id=":2_0" function="internal">
        <lane id=":2_0_0" index="0" disallow="bus truck rail_fast" speed="6.35" length="7.36" width="2.50" shape="-3.09,8.02 -3.12,7.36 -3.15,6.73 -3.20,6.14 -3.25,5.58 -3.31,5.05 -3.38,4.56 -3.45,4.11 -3.54,3.68 -3.63,3.29 -3.74,2.94 -3.85,2.62 -3.97,2.33 -4.09,2.07 -4.23,1.85 -4.38,1.67 -4.53,1.52 -4.69,1.40 -4.86,1.31 -5.04,1.26"/>
    </edge>
    <edge id=":2_1" function="internal">
        <lane id=":2_1_0" index="0" disallow="bus truck rail_fast" speed="36.11" length="8.53" width="2.50" shape="-3.09,8.02 -3.30,-0.51"/>
    </edge>
    <edge id=":20_0" function="internal">
        <lane id=":20_0_0" index="0" disallow="bus truck rail_fast" speed="5.59" length="5.56" width="2.50" shape="-4.77,-35.72 -4.67,-35.30 -4.56,-34.91 -4.44,-34.54 -4.31,-34.19 -4.18,-33.87 -4.04,-33.57 -3.89,-33.29 -3.74,-33.03 -3.58,-32.80 -3.41,-32.58 -3.23,-32.40 -3.05,-32.23 -2.86,-32.09 -2.66,-31.97 -2.46,-31.87 -2.25,-31.79 -2.03,-31.74 -1.80,-31.71 -1.57,-31.71"/>
    </edge>
    <edge id=":20_1" function="internal">
        <lane id=":20_1_0" index="0" disallow="bus truck rail_fast" speed="36.11" length="5.70" width="2.50" shape="-4.77,-35.72 -3.26,-30.22"/>
    </edge>
    <edge id=":20_2" function="internal">
        <lane id=":20_2_0" index="0" disallow="bus truck rail_fast" speed="5.56" length="6.61" width="2.50" shape="-4.77,-35.72 -4.64,-35.12 -4.52,-34.55 -4.42,-34.02 -4.33,-33.51 -4.26,-33.03 -4.21,-32.59 -4.18,-32.17 -4.16,-31.79 -4.16,-31.43 -4.17,-31.10 -4.21,-30.81 -4.26,-30.54 -4.32,-30.31 -4.41,-30.10 -4.51,-29.93 -4.62,-29.78 -4.76,-29.67 -4.91,-29.58 -5.08,-29.53"/>
    </edge>
    <edge id=":21_0" function="internal">
        <lane id=":21_0_0" index="0" disallow="bus truck rail_fast" speed="36.11" length="9.25" width="2.50" shape="-3.31,-0.71 -3.40,-9.96"/>
    </edge>
    <edge id=":21_1" function="internal">
        <lane id=":21_1_0" index="0" disallow="bus truck rail_fast" speed="28.73" length="7.27" width="2.50" shape="-4.66,-2.85 -4.49,-3.37 -4.34,-3.83 -4.20,-4.25 -4.07,-4.64 -3.96,-4.99 -3.87,-5.31 -3.78,-5.62 -3.71,-5.91 -3.65,-6.20 -3.59,-6.48 -3.55,-6.77 -3.51,-7.07 -3.48,-7.38 -3.46,-7.72 -3.44,-8.09 -3.43,-8.49 -3.42,-8.93 -3.41,-9.42 -3.40,-9.96"/>
    </edge>
    <edge id=":22_0" function="internal">
        <lane id=":22_0_0" index="0" disallow="bus truck rail_fast" speed="36.11" length="3.50" width="2.50" shape="-3.73,-20.35 -3.75,-20.61 -3.77,-20.84 -3.78,-21.06 -3.80,-21.25 -3.81,-21.43 -3.82,-21.59 -3.83,-21.74 -3.84,-21.89 -3.86,-22.03 -3.87,-22.16 -3.89,-22.30 -3.92,-22.44 -3.94,-22.59 -3.97,-22.75 -4.01,-22.93 -4.05,-23.11 -4.10,-23.32 -4.16,-23.55 -4.23,-23.80"/>
    </edge>
    <edge id=":22_1" function="internal">
        <lane id=":22_1_0" index="0" disallow="bus truck rail_fast" speed="36.11" length="8.22" width="2.48" shape="-3.73,-20.35 -3.78,-20.96 -3.83,-21.51 -3.88,-22.01 -3.93,-22.46 -3.98,-22.87 -4.03,-23.25 -4.09,-23.60 -4.15,-23.94 -4.21,-24.26 -4.28,-24.58 -4.36,-24.90 -4.44,-25.23 -4.53,-25.57 -4.64,-25.94 -4.75,-26.34 -4.88,-26.78 -5.02,-27.26 -5.17,-27.79 -5.34,-28.38"/>
    </edge>
    <edge id=":22_2" function="internal">
        <lane id=":22_2_0" index="0" disallow="bus truck rail_fast" speed="8.97" length="9.13" width="2.50" shape="-3.73,-20.35 -3.78,-21.08 -3.83,-21.79 -3.86,-22.47 -3.87,-23.11 -3.88,-23.73 -3.87,-24.31 -3.84,-24.87 -3.80,-25.39 -3.75,-25.89 -3.69,-26.35 -3.61,-26.78 -3.52,-27.19 -3.41,-27.56 -3.29,-27.91 -3.16,-28.22 -3.01,-28.50 -2.85,-28.76 -2.68,-28.98 -2.49,-29.17"/>
    </edge>
    <edge id=":23_0" function="internal">
        <lane id=":23_0_0" index="0" disallow="bus truck rail_fast" speed="36.11" length="6.11" width="2.50" shape="-1.45,-26.96 -1.45,-26.50 -1.46,-26.09 -1.46,-25.72 -1.47,-25.38 -1.47,-25.07 -1.47,-24.79 -1.47,-24.52 -1.47,-24.27 -1.47,-24.03 -1.46,-23.79 -1.45,-23.54 -1.44,-23.29 -1.43,-23.02 -1.41,-22.74 -1.39,-22.43 -1.37,-22.10 -1.34,-21.73 -1.30,-21.31 -1.26,-20.86"/>
    </edge>
    <edge id=":23_1" function="internal">
        <lane id=":23_1_0" index="0" disallow="bus truck rail_fast" speed="36.11" length="9.40" width="2.50" shape="-3.21,-30.03 -3.02,-29.35 -2.84,-28.74 -2.68,-28.19 -2.53,-27.69 -2.40,-27.24 -2.28,-26.82 -2.16,-26.42 -2.06,-26.05 -1.96,-25.68 -1.87,-25.32 -1.79,-24.95 -1.71,-24.57 -1.64,-24.17 -1.58,-23.74 -1.51,-23.27 -1.45,-22.76 -1.39,-22.19 -1.33,-21.56 -1.26,-20.86"/>
    </edge>
    <edge id=":23_2" function="internal">
        <lane id=":23_2_0" index="0" disallow="bus truck rail_fast" speed="36.11" length="3.11" width="2.50" shape="-1.67,-23.93 -1.61,-23.71 -1.56,-23.50 -1.52,-23.32 -1.48,-23.15 -1.45,-23.00 -1.43,-22.86 -1.40,-22.72 -1.39,-22.60 -1.37,-22.47 -1.36,-22.35 -1.35,-22.23 -1.34,-22.10 -1.34,-21.96 -1.33,-21.82 -1.32,-21.66 -1.31,-21.49 -1.30,-21.30 -1.28,-21.09 -1.26,-20.86"/>
    </edge>
    <edge id=":24_0" function="internal">
        <lane id=":24_0_0" index="0" disallow="bus truck rail_fast" speed="36.11" length="9.17" width="2.50" shape="-0.90,-9.93 -0.81,-0.76"/>
    </edge>
    <edge id=":24_1" function="internal">
        <lane id=":24_1_0" index="0" disallow="bus truck rail_fast" speed="8.54" length="9.80" width="2.50" shape="-0.90,-9.93 -0.92,-9.17 -0.95,-8.44 -1.00,-7.75 -1.06,-7.08 -1.13,-6.45 -1.22,-5.85 -1.33,-5.28 -1.45,-4.75 -1.59,-4.24 -1.74,-3.77 -1.91,-3.33 -2.09,-2.92 -2.29,-2.54 -2.50,-2.20 -2.73,-1.88 -2.97,-1.60 -3.23,-1.35 -3.51,-1.13 -3.79,-0.95"/>
    </edge>
    <edge id=":3_0" function="internal">
        <lane id=":3_0_0" index="0" disallow="bus truck rail_fast" speed="36.11" length="8.43" width="2.50" shape="-0.81,-0.56 -0.60,7.87"/>
    </edge>
    <edge id=":3_1" function="internal">
        <lane id=":3_1_0" index="0" disallow="bus truck rail_fast" speed="9.38" length="9.23" width="2.50" shape="-4.01,-0.39 -3.68,-0.11 -3.36,0.18 -3.07,0.50 -2.78,0.83 -2.52,1.18 -2.27,1.55 -2.04,1.93 -1.83,2.33 -1.63,2.75 -1.45,3.18 -1.29,3.63 -1.15,4.10 -1.02,4.59 -0.91,5.09 -0.81,5.61 -0.73,6.15 -0.67,6.71 -0.62,7.28 -0.60,7.87"/>
    </edge>
    <edge id=":6_0" function="internal">
        <lane id=":6_0_0" index="0" disallow="bus truck rail_fast" speed="4.98" length="7.46" width="2.48" shape="-12.53,-30.85 -6.99,-35.85"/>
    </edge>
    <edge id=":6_1" function="internal">
        <lane id=":6_1_0" index="0" disallow="rail_fast" speed="36.11" length="10.05" width="2.50" shape="-12.53,-30.85 -2.49,-31.45"/>
    </edge>
    <edge id=":6_2" function="internal">
        <lane id=":6_2_0" index="0" disallow="bus truck rail_fast" speed="8.57" length="10.44" width="2.50" shape="-12.53,-30.85 -11.79,-30.87 -11.07,-30.88 -10.39,-30.86 -9.73,-30.82 -9.10,-30.75 -8.50,-30.66 -7.92,-30.56 -7.37,-30.42 -6.85,-30.27 -6.36,-30.10 -5.90,-29.90 -5.46,-29.68 -5.05,-29.43 -4.67,-29.17 -4.31,-28.88 -3.98,-28.57 -3.68,-28.24 -3.41,-27.89 -3.17,-27.51"/>
    </edge>
    <edge id=":7_0" function="internal">
        <lane id=":7_0_0" index="0" disallow="bus truck rail_fast" speed="7.55" length="9.53" width="2.50" shape="-4.49,-24.60 -4.68,-25.02 -4.89,-25.41 -5.12,-25.77 -5.39,-26.11 -5.68,-26.43 -5.99,-26.73 -6.34,-27.00 -6.71,-27.24 -7.10,-27.46 -7.53,-27.66 -7.98,-27.83 -8.45,-27.98 -8.96,-28.11 -9.49,-28.21 -10.04,-28.28 -10.63,-28.34 -11.24,-28.36 -11.87,-28.37 -12.54,-28.35"/>
    </edge>
    <edge id=":7_1" function="internal">
        <lane id=":7_1_0" index="0" disallow="rail_fast" speed="36.11" length="7.48" width="2.50" shape="-5.07,-28.78 -12.54,-28.35"/>
    </edge>
    <edge id=":7_2" function="internal">
        <lane id=":7_2_0" index="0" disallow="bus truck rail_fast" speed="36.11" length="7.37" width="2.50" shape="-5.27,-29.49 -5.81,-29.37 -6.29,-29.26 -6.73,-29.15 -7.13,-29.06 -7.49,-28.98 -7.83,-28.90 -8.14,-28.83 -8.44,-28.77 -8.73,-28.71 -9.02,-28.66 -9.31,-28.61 -9.61,-28.57 -9.93,-28.53 -10.27,-28.50 -10.64,-28.46 -11.04,-28.43 -11.49,-28.40 -11.99,-28.37 -12.54,-28.35"/>
    </edge>
    <edge id=":9_0" function="internal">
        <lane id=":9_0_0" index="0" disallow="bus truck rail_fast" speed="36.11" length="6.06" width="2.50" shape="-1.37,-31.71 4.69,-31.91"/>
    </edge>
    <edge id=":9_1" function="internal">
        <lane id=":9_1_0" index="0" disallow="bus truck rail_fast" speed="10.42" length="7.76" width="2.50" shape="-2.35,-29.31 -1.93,-29.68 -1.54,-30.02 -1.18,-30.31 -0.85,-30.57 -0.53,-30.79 -0.22,-30.99 0.07,-31.15 0.36,-31.29 0.66,-31.40 0.96,-31.50 1.27,-31.58 1.59,-31.64 1.93,-31.69 2.30,-31.73 2.70,-31.77 3.14,-31.80 3.61,-31.83 4.12,-31.87 4.69,-31.91"/>
    </edge>
    <edge id=":9_2" function="internal">
        <lane id=":9_2_0" index="0" disallow="rail_fast" speed="36.11" length="3.01" width="2.50" shape="1.68,-31.70 4.69,-31.91"/>
    </edge>

    <edge id="637" from="1" to="2" priority="1" spreadType="center" length="66.09">
        <lane id="637_0" index="0" disallow="rail_fast" speed="36.11" length="66.09" width="2.50" customShape="1" shape="-0.99,72.28 -2.07,39.25 -3.09,8.02"/>
    </edge>
    <edge id="638" from="3" to="4" priority="1" spreadType="center" length="66.12">
        <lane id="638_0" index="0" disallow="rail_fast" speed="36.11" length="66.12" width="2.50" customShape="1" shape="-0.60,7.87 0.43,39.17 1.51,72.20"/>
    </edge>
    <edge id="639" from="5" to="6" priority="1" spreadType="center" length="122.01">
        <lane id="639_0" index="0" disallow="rail_fast" speed="36.11" length="122.01" width="2.50" customShape="1" shape="-132.94,-26.84 -109.25,-27.22 -80.52,-27.86 -61.88,-28.49 -12.53,-30.85"/>
    </edge>
    <edge id="640" from="7" to="8" priority="1" spreadType="center" length="122.09">
        <lane id="640_0" index="0" disallow="rail_fast" speed="36.11" length="122.09" width="2.50" customShape="1" shape="-12.54,-28.35 -61.79,-25.99 -80.45,-25.36 -109.20,-24.72 -132.90,-24.34"/>
    </edge>
    <edge id="641" from="9" to="10" priority="1" spreadType="center" length="73.87">
        <lane id="641_0" index="0" disallow="rail_fast" speed="36.11" length="73.87" width="2.50" customShape="1" shape="4.69,-31.91 40.03,-34.50 76.87,-37.20"/>
    </edge>
    <edge id="642" from="11" to="12" priority="1" spreadType="center" length="73.87">
        <lane id="642_0" index="0" disallow="rail_fast" speed="36.11" length="73.87" width="2.50" customShape="1" shape="77.05,-34.70 40.21,-32.00 5.33,-29.45"/>
    </edge>
    <edge id="643" from="13" to="14" priority="1" spreadType="center" length="29.20">
        <lane id="643_0" index="0" disallow="bus truck rail_fast" speed="36.11" length="29.20" width="2.50" customShape="1" shape="-12.09,0.43 -14.33,0.36 -17.85,0.51 -20.84,0.95 -23.27,1.60 -25.61,2.53 -28.28,3.95 -32.94,6.94 -36.81,9.29"/>
    </edge>
    <edge id="644" from="15" to="16" priority="1" spreadType="center" length="30.62">
        <lane id="644_0" index="0" disallow="bus truck rail_fast" speed="36.11" length="30.62" width="2.50" customShape="1" shape="-38.07,7.13 -34.11,4.72 -29.30,1.65 -26.45,0.17 -23.92,-0.82 -21.29,-1.50 -18.10,-1.98 -14.38,-2.14 -11.23,-2.04"/>
    </edge>
    <edge id="645" from="17" to="18" priority="1" spreadType="center" length="0.27">
        <lane id="645_0" index="0" disallow="bus truck rail_fast" speed="36.11" length="0.27" width="2.48" customShape="1" shape="-7.25,-35.31 -7.29,-35.50"/>
    </edge>
    <edge id="646" from="19" to="20" priority="1" spreadType="center" length="0.26">
        <lane id="646_0" index="0" disallow="bus truck rail_fast" speed="36.11" length="0.26" width="2.50" customShape="1" shape="-4.82,-35.91 -4.77,-35.72"/>
    </edge>
    <edge id="647" from="21" to="22" priority="1" spreadType="center" length="13.94">
        <lane id="647_0" index="0" disallow="bus truck rail_fast" speed="36.11" length="13.94" width="2.50" customShape="1" shape="-3.40,-9.96 -3.39,-11.26 -3.48,-17.46 -3.73,-20.35"/>
    </edge>
    <edge id="648" from="23" to="24" priority="1" spreadType="center" length="14.29">
        <lane id="648_0" index="0" disallow="bus truck rail_fast" speed="36.11" length="14.29" width="2.50" customShape="1" shape="-1.26,-20.86 -0.99,-17.62 -0.89,-11.29 -0.90,-9.93"/>
    </edge>
    <edge id="649" from="20" to="23" priority="1" spreadType="center" length="12.51">
        <lane id="649_0" index="0" disallow="bus truck rail_fast" speed="36.11" length="12.51" width="2.50" customShape="1" shape="-3.26,-30.22 -3.21,-30.03"/>
    </edge>
    <edge id="650" from="6" to="17" priority="1" spreadType="center" length="5.90">
        <lane id="650_0" index="0" disallow="bus truck rail_fast" speed="36.11" length="5.90" width="2.48" customShape="1" shape="-6.99,-35.85 -10.03,-31.01 -9.06,-31.18 -8.12,-31.51 -7.32,-32.08 -6.89,-32.96 -6.92,-33.93"/>
    </edge>
    <edge id="651" from="24" to="13" priority="1" spreadType="center" length="14.31">
        <lane id="651_0" index="0" disallow="bus truck rail_fast" speed="36.11" length="14.31" width="2.50" customShape="1" shape="-3.79,-0.95 -3.97,-0.85"/>
    </edge>
    <edge id="652" from="12" to="23" priority="1" spreadType="center" length="9.70">
        <lane id="652_0" index="0" disallow="bus truck rail_fast" speed="36.11" length="9.70" width="2.50" customShape="1" shape="-1.45,-27.16 -1.45,-26.96"/>
    </edge>
    <edge id="653" from="2" to="13" priority="1" spreadType="center" length="9.85">
        <lane id="653_0" index="0" disallow="bus truck rail_fast" speed="36.11" length="9.85" width="2.50" customShape="1" shape="-5.04,1.26 -5.24,1.23"/>
    </edge>
    <edge id="654" from="12" to="17" priority="1" spreadType="center" length="12.34">
        <lane id="654_0" index="0" disallow="bus truck rail_fast" speed="36.11" length="12.34" width="2.48" customShape="1" shape="-6.58,-33.05 -6.92,-33.93"/>
    </edge>
    <edge id="655" from="12" to="7" priority="1" spreadType="center" length="14.29">
        <lane id="655_0" index="0" disallow="rail_fast" speed="36.11" length="14.29" width="2.50" customShape="1" shape="-4.87,-28.80 -5.07,-28.78"/>
    </edge>
    <edge id="656" from="22" to="7" priority="1" spreadType="center" length="10.64">
        <lane id="656_0" index="0" disallow="bus truck rail_fast" speed="36.11" length="10.64" width="2.50" customShape="1" shape="-4.23,-23.80 -4.32,-24.18 -4.49,-24.60"/>
    </edge>
    <edge id="657" from="6" to="9" priority="1" spreadType="center" length="14.23">
        <lane id="657_0" index="0" disallow="rail_fast" speed="36.11" length="14.23" width="2.50" customShape="1" shape="-2.49,-31.45 1.68,-31.70"/>
    </edge>
    <edge id="658" from="20" to="9" priority="1" spreadType="center" length="8.84">
        <lane id="658_0" index="0" disallow="bus truck rail_fast" speed="36.11" length="8.84" width="2.50" customShape="1" shape="-1.57,-31.71 -1.37,-31.71"/>
    </edge>
    <edge id="659" from="22" to="17" priority="1" spreadType="center" length="12.23">
        <lane id="659_0" index="0" disallow="bus truck rail_fast" speed="36.11" length="12.23" width="2.48" customShape="1" shape="-5.34,-28.38 -5.40,-28.57"/>
    </edge>
    <edge id="660" from="22" to="9" priority="1" spreadType="center" length="13.82">
        <lane id="660_0" index="0" disallow="bus truck rail_fast" speed="36.11" length="13.82" width="2.50" customShape="1" shape="-2.49,-29.17 -2.35,-29.31"/>
    </edge>
    <edge id="661" from="16" to="3" priority="1" spreadType="center" length="13.59">
        <lane id="661_0" index="0" disallow="bus truck rail_fast" speed="36.11" length="13.59" width="2.50" customShape="1" shape="-4.16,-0.52 -4.01,-0.39"/>
    </edge>
    <edge id="662" from="24" to="3" priority="1" spreadType="center" length="14.25">
        <lane id="662_0" index="0" disallow="bus truck rail_fast" speed="36.11" length="14.25" width="2.50" customShape="1" shape="-0.81,-0.76 -0.81,-0.56"/>
    </edge>
    <edge id="663" from="16" to="21" priority="1" spreadType="center" length="10.25">
        <lane id="663_0" index="0" disallow="bus truck rail_fast" speed="36.11" length="10.25" width="2.50" customShape="1" shape="-4.73,-2.66 -4.66,-2.85"/>
    </edge>
    <edge id="664" from="20" to="7" priority="1" spreadType="center" length="10.34">
        <lane id="664_0" index="0" disallow="bus truck rail_fast" speed="36.11" length="10.34" width="2.50" customShape="1" shape="-5.08,-29.53 -5.27,-29.49"/>
    </edge>
    <edge id="665" from="2" to="21" priority="1" spreadType="center" length="14.40">
        <lane id="665_0" index="0" disallow="bus truck rail_fast" speed="36.11" length="14.40" width="2.50" customShape="1" shape="-3.30,-0.51 -3.31,-0.71"/>
    </edge>
    <edge id="666" from="6" to="23" priority="1" spreadType="center" length="14.41">
        <lane id="666_0" index="0" disallow="bus truck rail_fast" speed="36.11" length="14.41" width="2.50" customShape="1" shape="-3.17,-27.51 -2.52,-26.42 -1.98,-25.10 -1.67,-23.93"/>
    </edge>

    <junction id="1" type="dead_end" x="-0.99" y="72.28" incLanes="" intLanes="" shape="0.26,72.24 -2.24,72.32"/>
    <junction id="10" type="dead_end" x="76.87" y="-37.20" incLanes="641_0" intLanes="" shape="76.78,-38.44 76.96,-35.95"/>
    <junction id="11" type="dead_end" x="77.05" y="-34.70" incLanes="" intLanes="" shape="76.96,-35.95 77.14,-33.46"/>
    <junction id="12" type="priority" x="3.38" y="-29.31" incLanes="642_0" intLanes=":12_0_0 :12_1_0 :12_2_0" shape="5.42,-28.20 5.24,-30.69 -6.00,-35.00 -7.07,-31.38 -6.66,-30.59 -6.69,-30.30 -6.87,-30.09 -7.20,-29.94 -7.68,-29.87 -7.53,-27.38 -4.65,-27.36 -3.67,-27.17 -2.99,-26.87 -2.62,-26.45 -2.53,-25.98 -0.14,-22.41">
        <request index="0" response="000" foes="000" cont="0"/>
        <request index="1" response="000" foes="000" cont="0"/>
        <request index="2" response="000" foes="000" cont="0"/>
    </junction>
    <junction id="13" type="priority" x="-9.80" y="0.50" incLanes="653_0 651_0" intLanes=":13_0_0 :13_1_0" shape="-4.43,6.03 -2.94,2.50 -3.29,1.40 -3.28,0.93 -3.16,0.48 -2.94,0.05 -2.60,-0.35 -3.16,-3.63 -4.95,-1.97 -6.28,-1.41 -7.91,-1.03 -9.83,-0.83 -12.05,-0.82 -12.13,1.68 -9.89,1.86 -8.04,2.26 -6.57,2.88 -5.47,3.71 -4.76,4.76">
        <request index="0" response="00" foes="10" cont="0"/>
        <request index="1" response="01" foes="01" cont="0"/>
    </junction>
    <junction id="14" type="dead_end" x="-36.81" y="9.29" incLanes="643_0" intLanes="" shape="-36.17,10.36 -37.46,8.22"/>
    <junction id="15" type="dead_end" x="-38.07" y="7.13" incLanes="" intLanes="" shape="-37.42,8.20 -38.72,6.06"/>
    <junction id="16" type="priority" x="-9.69" y="-1.99" incLanes="644_0" intLanes=":16_0_0 :16_1_0" shape="-3.63,1.56 -3.19,-1.34 -3.63,-1.87 -3.72,-2.16 -3.73,-2.48 -3.65,-2.81 -3.48,-3.16 -4.78,-6.85 -5.78,-4.80 -6.70,-4.09 -7.91,-3.61 -9.41,-3.34 -11.19,-3.29 -11.27,-0.79 -7.78,-0.45 -6.39,-0.11 -5.24,0.33 -4.32,0.89">
        <request index="0" response="00" foes="00" cont="0"/>
        <request index="1" response="00" foes="00" cont="0"/>
    </junction>
    <junction id="17" type="priority" x="-6.92" y="-33.93" incLanes="659_0 654_0 650_0" intLanes=":17_0_0 :17_1_0 :17_2_0" shape="-5.91,-25.83 -3.53,-26.51 -3.62,-27.73 -3.40,-28.10 -3.02,-28.32 -2.46,-28.37 -1.73,-28.27 1.26,-30.52 -6.35,-36.90 -8.76,-36.34 -13.78,-31.93 -9.75,-29.80 -8.17,-29.56 -7.50,-29.04 -6.89,-28.24 -6.37,-27.17">
        <request index="0" response="110" foes="110" cont="0"/>
        <request index="1" response="100" foes="101" cont="0"/>
        <request index="2" response="000" foes="011" cont="0"/>
    </junction>
    <junction id="18" type="dead_end" x="-6.98" y="-34.20" incLanes="645_0" intLanes="" shape="-8.19,-33.91 -5.78,-34.48"/>
    <junction id="19" type="dead_end" x="-4.55" y="-34.77" incLanes="" intLanes="" shape="-5.76,-34.47 -3.34,-35.07"/>
    <junction id="2" type="priority" x="-3.15" y="6.23" incLanes="637_0" intLanes=":2_0_0 :2_1_0" shape="-4.34,8.06 -1.84,7.98 -2.06,-1.00 -4.56,-0.92 -4.73,-0.22 -4.94,-0.02 -5.25,0.07 -5.64,0.06 -6.06,-0.02 -9.65,1.77 -6.78,2.67 -5.76,3.57 -5.02,4.77 -4.54,6.27">
        <request index="0" response="00" foes="00" cont="0"/>
        <request index="1" response="00" foes="00" cont="0"/>
    </junction>
    <junction id="20" type="priority" x="-4.50" y="-34.52" incLanes="646_0" intLanes=":20_0_0 :20_1_0 :20_2_0" shape="-3.81,-27.52 -1.41,-28.20 -1.55,-29.59 -1.39,-30.05 -1.06,-30.37 -0.58,-30.53 0.07,-30.55 3.11,-33.05 -3.80,-37.07 -6.30,-36.66 -10.17,-29.75 -6.18,-28.29 -5.06,-28.58 -4.63,-28.52 -4.27,-28.32 -4.00,-27.99">
        <request index="0" response="000" foes="000" cont="0"/>
        <request index="1" response="000" foes="000" cont="0"/>
        <request index="2" response="000" foes="000" cont="0"/>
    </junction>
    <junction id="21" type="priority" x="-3.42" y="-8.17" incLanes="665_0 663_0" intLanes=":21_0_0 :21_1_0" shape="-4.55,-0.24 -2.05,-0.28 -2.15,-9.95 -4.65,-9.97 -9.87,-3.24 -6.13,-1.20 -5.26,-1.31 -4.96,-1.20 -4.74,-0.99 -4.60,-0.67">
        <request index="0" response="10" foes="10" cont="0"/>
        <request index="1" response="00" foes="01" cont="0"/>
    </junction>
    <junction id="22" type="priority" x="-3.88" y="-22.09" incLanes="647_0" intLanes=":22_0_0 :22_1_0 :22_2_0" shape="-4.97,-20.24 -2.48,-20.45 -2.58,-22.79 -2.46,-24.80 -2.12,-26.51 -1.55,-27.90 -0.76,-28.98 0.25,-29.74 -3.23,-30.19 -3.87,-29.85 -4.15,-29.91 -4.40,-30.13 -4.62,-30.50 -4.80,-31.02 -7.25,-30.56 -2.99,-24.01 -5.46,-23.60 -5.18,-22.37 -5.11,-21.94 -5.07,-21.50 -5.03,-20.96">
        <request index="0" response="000" foes="000" cont="0"/>
        <request index="1" response="000" foes="000" cont="0"/>
        <request index="2" response="000" foes="000" cont="0"/>
    </junction>
    <junction id="23" type="priority" x="-1.40" y="-22.40" incLanes="652_0 649_0 666_0" intLanes=":23_0_0 :23_1_0 :23_2_0" shape="-2.51,-20.75 -0.02,-20.97 3.55,-28.07 -0.36,-29.37 -1.16,-29.42 -1.54,-29.84 -1.91,-30.51 -2.29,-31.44 -2.66,-32.62 -5.12,-32.16 -0.43,-24.14 -2.91,-23.72 -2.66,-22.64 -2.61,-22.25 -2.58,-21.86 -2.56,-21.39">
        <request index="0" response="000" foes="110" cont="0"/>
        <request index="1" response="101" foes="101" cont="0"/>
        <request index="2" response="001" foes="011" cont="0"/>
    </junction>
    <junction id="24" type="priority" x="-0.92" y="-8.13" incLanes="648_0" intLanes=":24_0_0 :24_1_0" shape="-2.03,0.88 0.46,0.84 0.35,-9.91 -2.15,-9.94 -2.31,-7.36 -2.72,-5.21 -3.38,-3.50 -4.30,-2.21 -5.47,-1.36 -6.90,-0.94 -3.39,0.26 -2.64,-0.01 -2.38,0.03 -2.19,0.19 -2.08,0.48">
        <request index="0" response="00" foes="00" cont="0"/>
        <request index="1" response="00" foes="00" cont="0"/>
    </junction>
    <junction id="3" type="priority" x="-0.65" y="6.12" incLanes="662_0 661_0" intLanes=":3_0_0 :3_1_0" shape="-1.85,7.91 0.65,7.83 0.42,-2.21 -2.08,-2.14 -2.22,-1.48 -2.40,-1.32 -2.65,-1.27 -2.98,-1.33 -3.39,-1.50 -6.80,-0.27 -4.14,1.32 -3.19,2.54 -2.49,4.04 -2.04,5.83">
        <request index="0" response="00" foes="10" cont="0"/>
        <request index="1" response="01" foes="01" cont="0"/>
    </junction>
    <junction id="4" type="dead_end" x="1.51" y="72.20" incLanes="638_0" intLanes="" shape="2.76,72.16 0.26,72.24"/>
    <junction id="5" type="dead_end" x="-132.94" y="-26.84" incLanes="" intLanes="" shape="-132.92,-25.59 -132.96,-28.09"/>
    <junction id="6" type="priority" x="-11.01" y="-30.92" incLanes="639_0" intLanes=":6_0_0 :6_1_0 :6_2_0" shape="-3.56,-25.67 -2.83,-29.08 -3.19,-29.66 -3.19,-29.88 -3.06,-30.04 -2.80,-30.15 -2.41,-30.20 -2.57,-32.70 -5.68,-33.98 -8.29,-37.72 -12.59,-32.10 -12.47,-29.60 -10.23,-29.59 -8.29,-29.32 -6.65,-28.79 -5.32,-28.00 -4.29,-26.96">
        <request index="0" response="000" foes="000" cont="0"/>
        <request index="1" response="000" foes="000" cont="0"/>
        <request index="2" response="000" foes="000" cont="0"/>
    </junction>
    <junction id="7" type="priority" x="-10.89" y="-28.43" incLanes="656_0 655_0 664_0" intLanes=":7_0_0 :7_1_0 :7_2_0" shape="-5.22,-22.56 -3.91,-26.25 -4.06,-26.99 -3.87,-27.27 -3.51,-27.48 -2.97,-27.63 -2.25,-27.71 -2.41,-30.20 -3.21,-30.31 -3.43,-30.50 -3.55,-30.78 -3.55,-31.14 -3.44,-31.59 -5.81,-35.26 -12.60,-29.59 -12.48,-27.10 -8.81,-26.73 -7.44,-26.12 -6.39,-25.22 -5.65,-24.03">
        <request index="0" response="000" foes="110" cont="0"/>
        <request index="1" response="101" foes="101" cont="0"/>
        <request index="2" response="001" foes="011" cont="0"/>
    </junction>
    <junction id="8" type="dead_end" x="-132.90" y="-24.34" incLanes="640_0" intLanes="" shape="-132.88,-23.10 -132.92,-25.59"/>