<routes>
	<vehicle depart="0.1" departLane="0" departPos="0" departSpeed="7.7087" id="31" type="passenger">
		<route edges="641"/>
	</vehicle>
	<vehicle depart="0.1" departLane="0" departPos="41.69803384168523" departSpeed="8.3833" id="32" type="passenger">
		<route edges="638"/>
	</vehicle>
	<vehicle depart="0.1" departLane="0" departPos="60.56829413495706" departSpeed="8.8985" id="33" type="passenger">
		<route edges="641"/>
	</vehicle>
	<vehicle depart="0.1" departLane="0" departPos="0" departSpeed="7.491" id="34" type="passenger">
		<route edges="641"/>
	</vehicle>
	<vehicle depart="0.1" departLane="0" departPos="30.62280267272166" departSpeed="0.0" id="35" type="passenger">
		<route edges="644 663 647 656 659 656 640"/>
	</vehicle>
	<vehicle depart="0.1" departLane="0" departPos="0" departSpeed="7.3322" id="36" type="passenger">
		<route edges="647 656 659 656 640"/>
	</vehicle>
	<vehicle depart="0.1" departLane="0" departPos="0" departSpeed="7.0962" id="38" type="passenger">
		<route edges="665 647 660 641"/>
	</vehicle>
	<vehicle depart="0.1" departLane="0" departPos="13.005649878398847" departSpeed="0.0062" id="39" type="passenger">
		<route edges="644 661 638"/>
	</vehicle>
</routes>
