<!-- generated on 2020-12-18 16:49:56.004118 by ipykernel_launcher.py v1_2_0+5214-53edc58fcd
-->
<edges>
	<edge from="1" function="normal" id="637" length="66.08777919879745" numLanes="1" priority="1" speed="36.11111111111111" spreadType="center" to="2">
		<lane allow="moped bicycle pedestrian custom1 trailer evehicle rail_urban ship private truck vip custom2 authority delivery rail_electric taxi tram army hov coach motorcycle passenger bus rail emergency" index="0" length="66.08777919879745" shape="-0.9903500000000001,72.27865 -2.0706,39.25375 -3.151,6.2262" speed="36.11111111111111" width="2.498599287600955"/>
	</edge>
	<edge from="3" function="normal" id="638" length="66.11537496885592" numLanes="1" priority="1" speed="36.11111111111111" spreadType="center" to="4">
		<lane allow="moped bicycle pedestrian custom1 trailer evehicle rail_urban ship private truck vip custom2 authority delivery rail_electric taxi tram army hov coach motorcycle passenger bus rail emergency" index="0" length="66.11537496885592" shape="-0.6541999999999999,6.11695 0.42805,39.17205 1.5083,72.19694999999999" speed="36.11111111111111" width="2.499935369164571"/>
	</edge>
	<edge from="5" function="normal" id="639" length="122.01179068230653" numLanes="1" priority="1" speed="36.11111111111111" spreadType="center" to="6">
		<lane allow="moped bicycle pedestrian custom1 trailer evehicle rail_urban ship private truck vip custom2 authority delivery rail_electric taxi tram army hov coach motorcycle passenger bus rail emergency" index="0" length="122.01179068230653" shape="-132.9418,-26.844250000000002 -109.25065000000001,-27.220100000000002 -80.52250000000001,-27.8562 -61.8808,-28.49035 -11.0089,-30.92205" speed="36.11111111111111" width="2.4997439088834716"/>
	</edge>
	<edge from="7" function="normal" id="640" length="122.0930221325416" numLanes="1" priority="1" speed="36.11111111111111" spreadType="center" to="8">
		<lane allow="moped bicycle pedestrian custom1 trailer evehicle rail_urban ship private truck vip custom2 authority delivery rail_electric taxi tram army hov coach motorcycle passenger bus rail emergency" index="0" length="122.0930221325416" shape="-10.887599999999999,-28.42575 -61.7864,-25.992150000000002 -80.45009999999999,-25.3572 -109.19890000000001,-24.7206 -132.90165000000002,-24.3446" speed="36.11111111111111" width="2.498983275254158"/>
	</edge>
	<edge from="9" function="normal" id="641" length="73.86958903373623" numLanes="1" priority="1" speed="36.11111111111111" spreadType="center" to="10">
		<lane allow="moped bicycle pedestrian custom1 trailer evehicle rail_urban ship private truck vip custom2 authority delivery rail_electric taxi tram army hov coach motorcycle passenger bus rail emergency" index="0" length="73.86958903373623" shape="3.1955999999999998,-31.798000000000002 40.031400000000005,-34.497550000000004 76.8677,-37.195949999999996" speed="36.11111111111111" width="2.4999775298990166"/>
	</edge>
	<edge from="11" function="normal" id="642" length="73.86986136865801" numLanes="1" priority="1" speed="36.11111111111111" spreadType="center" to="12">
		<lane allow="moped bicycle pedestrian custom1 trailer evehicle rail_urban ship private truck vip custom2 authority delivery rail_electric taxi tram army hov coach motorcycle passenger bus rail emergency" index="0" length="73.86986136865801" shape="77.05035000000001,-34.702650000000006 40.21405,-32.00425 3.3779,-29.305750000000003" speed="36.11111111111111" width="2.497309001705636"/>
	</edge>
	<edge from="13" function="normal" id="643" length="29.202646213516683" numLanes="1" priority="1" speed="36.11111111111111" spreadType="center" to="14">
		<lane allow="moped bicycle pedestrian custom1 trailer evehicle rail_urban ship private vip custom2 authority delivery rail_electric taxi tram army hov coach motorcycle passenger rail emergency" index="0" length="29.202646213516683" shape="-9.799800000000001,0.5019 -14.33035,0.35965 -17.851399999999998,0.5100499999999999 -20.83885,0.9536500000000001 -23.2712,1.60025 -25.608849999999997,2.5327 -28.2758,3.9511000000000003 -32.940799999999996,6.93835 -36.8146,9.28985" speed="36.11111111111111" width="2.497884104597329"/>
	</edge>
	<edge from="15" function="normal" id="644" length="30.62280267272166" numLanes="1" priority="1" speed="36.11111111111111" spreadType="center" to="16">
		<lane allow="moped bicycle pedestrian custom1 trailer evehicle rail_urban ship private vip custom2 authority delivery rail_electric taxi tram army hov coach motorcycle passenger rail emergency" index="0" length="30.62280267272166" shape="-38.06815,7.1274999999999995 -34.114999999999995,4.7199 -29.295299999999997,1.65355 -26.4482,0.17080000000000006 -23.919150000000002,-0.8150999999999999 -21.2908,-1.50355 -18.100250000000003,-1.9759 -14.3842,-2.1394 -9.69115,-1.99465" speed="36.11111111111111" width="2.499890351595444"/>
	</edge>
	<edge from="17" function="normal" id="645" length="0.27370488706742546" numLanes="1" priority="1" speed="36.11111111111111" spreadType="center" to="18">
		<lane allow="moped bicycle pedestrian custom1 trailer evehicle rail_urban ship private vip custom2 authority delivery rail_electric taxi tram army hov coach motorcycle passenger rail emergency" index="0" length="0.27370488706742546" shape="-6.9206,-33.929050000000004 -6.9537,-34.070049999999995 -6.9832,-34.195499999999996" speed="36.11111111111111" width="2.482043506870899"/>
	</edge>
	<edge from="19" function="normal" id="646" length="0.2570642062061032" numLanes="1" priority="1" speed="36.11111111111111" spreadType="center" to="20">
		<lane allow="moped bicycle pedestrian custom1 trailer evehicle rail_urban ship private vip custom2 authority delivery rail_electric taxi tram army hov coach motorcycle passenger rail emergency" index="0" length="0.2570642062061032" shape="-4.54955,-34.76755 -4.52005,-34.64215 -4.4996,-34.51555" speed="36.11111111111111" width="2.5000388196986063"/>
	</edge>
	<edge from="21" function="normal" id="647" length="13.938348381719933" numLanes="1" priority="1" speed="36.11111111111111" spreadType="center" to="22">
		<lane allow="moped bicycle pedestrian custom1 trailer evehicle rail_urban ship private vip custom2 authority delivery rail_electric taxi tram army hov coach motorcycle passenger rail emergency" index="0" length="13.938348381719933" shape="-3.4205499999999995,-8.16875 -3.38785,-11.2596 -3.4821,-17.45995 -3.8752,-22.089550000000003" speed="36.11111111111111" width="2.499043242923179"/>
	</edge>
	<edge from="23" function="normal" id="648" length="14.292599154980817" numLanes="1" priority="1" speed="36.11111111111111" spreadType="center" to="24">
		<lane allow="moped bicycle pedestrian custom1 trailer evehicle rail_urban ship private vip custom2 authority delivery rail_electric taxi tram army hov coach motorcycle passenger rail emergency" index="0" length="14.292599154980817" shape="-1.3965,-22.40475 -0.9877500000000001,-17.6209 -0.8877999999999999,-11.285350000000001 -0.9215,-8.13055" speed="36.11111111111111" width="2.498278297147858"/>
	</edge>
	<edge from="20" function="normal" id="649" length="12.512422419904203" numLanes="1" priority="1" speed="36.11111111111111" spreadType="center" to="23">
		<lane allow="moped bicycle pedestrian custom1 trailer evehicle rail_urban ship private vip custom2 authority delivery rail_electric taxi tram army hov coach motorcycle passenger rail emergency" index="0" length="12.512422419904203" shape="-4.4996,-34.51555 -2.936,-29.0444 -2.0214,-25.75565 -1.3965,-22.40475" speed="36.11111111111111" width="2.498278297147858"/>
	</edge>
	<edge from="6" function="normal" id="650" length="5.8953006469602105" numLanes="1" priority="1" speed="36.11111111111111" spreadType="center" to="17">
		<lane allow="moped bicycle pedestrian custom1 trailer evehicle rail_urban ship private vip custom2 authority delivery rail_electric taxi tram army hov coach motorcycle passenger rail emergency" index="0" length="5.8953006469602105" shape="-11.0089,-30.92205 -10.032499999999999,-31.00625 -9.056000000000001,-31.18385 -8.120000000000001,-31.5085 -7.32085,-32.08385 -6.88715,-32.95910000000001 -6.9206,-33.929050000000004" speed="36.11111111111111" width="2.482043506870899"/>
	</edge>
	<edge from="24" function="normal" id="651" length="14.306492632291176" numLanes="1" priority="1" speed="36.11111111111111" spreadType="center" to="13">
		<lane allow="moped bicycle pedestrian custom1 trailer evehicle rail_urban ship private vip custom2 authority delivery rail_electric taxi tram army hov coach motorcycle passenger rail emergency" index="0" length="14.306492632291176" shape="-0.9215,-8.13055 -1.0187,-6.5409500000000005 -1.2963,-4.974600000000001 -1.80975,-3.47025 -2.61565,-2.1017 -3.73865,-0.9798 -5.11505,-0.1882999999999999 -6.63215,0.28395000000000004 -8.20885,0.4921 -9.799800000000001,0.5019" speed="36.11111111111111" width="2.497884104597329"/>
	</edge>
	<edge from="12" function="normal" id="652" length="9.701214921834433" numLanes="1" priority="1" speed="36.11111111111111" spreadType="center" to="23">
		<lane allow="moped bicycle pedestrian custom1 trailer evehicle rail_urban ship private vip custom2 authority delivery rail_electric taxi tram army hov coach motorcycle passenger rail emergency" index="0" length="9.701214921834433" shape="3.3779,-29.305750000000003 2.30875,-29.15465 1.2762,-28.8426 0.33425000000000005,-28.32025 -0.4429,-27.5764 -0.99545,-26.6527 -1.3255,-25.62665 -1.47355,-24.557650000000002 -1.4842,-23.47795 -1.3965,-22.40475" speed="36.11111111111111" width="2.497309001705636"/>
	</edge>
	<edge from="2" function="normal" id="653" length="9.851309232938084" numLanes="1" priority="1" speed="36.11111111111111" spreadType="center" to="13">
		<lane allow="moped bicycle pedestrian custom1 trailer evehicle rail_urban ship private vip custom2 authority delivery rail_electric taxi tram army hov coach motorcycle passenger rail emergency" index="0" length="9.851309232938084" shape="-3.151,6.2262 -3.26455,5.1391 -3.54545,4.0811 -4.0327,3.10205 -4.726,2.2562499999999996 -5.5975,1.5945 -6.582649999999999,1.1167 -7.63005,0.79555 -8.70845,0.6003499999999999 -9.799800000000001,0.5019" speed="36.11111111111111" width="2.497884104597329"/>
	</edge>
	<edge from="12" function="normal" id="654" length="12.343578623309934" numLanes="1" priority="1" speed="36.11111111111111" spreadType="center" to="17">
		<lane allow="moped bicycle pedestrian custom1 trailer evehicle rail_urban ship private vip custom2 authority delivery rail_electric taxi tram army hov coach motorcycle passenger rail emergency" index="0" length="12.343578623309934" shape="3.3779,-29.305750000000003 0.28400000000000003,-29.26915 -1.25465,-29.43335 -2.7633,-29.7749 -4.18825,-30.3729 -5.4347,-31.28085 -6.3713,-32.5039 -6.9206,-33.929050000000004" speed="36.11111111111111" width="2.482043506870899"/>
	</edge>
	<edge from="12" function="normal" id="655" length="14.29261663435053" numLanes="1" priority="1" speed="36.11111111111111" spreadType="center" to="7">
		<lane allow="moped bicycle pedestrian custom1 trailer evehicle rail_urban ship private truck vip custom2 authority delivery rail_electric taxi tram army hov coach motorcycle passenger bus rail emergency" index="0" length="14.29261663435053" shape="3.3779,-29.305750000000003 -3.7622999999999998,-28.86525 -10.887599999999999,-28.42575" speed="36.11111111111111" width="2.497309001705636"/>
	</edge>
	<edge from="22" function="normal" id="656" length="10.6423530217232" numLanes="1" priority="1" speed="36.11111111111111" spreadType="center" to="7">
		<lane allow="moped bicycle pedestrian custom1 trailer evehicle rail_urban ship private vip custom2 authority delivery rail_electric taxi tram army hov coach motorcycle passenger rail emergency" index="0" length="10.6423530217232" shape="-3.8752,-22.089550000000003 -4.0532,-23.14525 -4.3243,-24.176299999999998 -4.719,-25.1662 -5.25525,-26.0863 -5.9515,-26.891199999999998 -6.7939,-27.5413 -7.75195,-28.0047 -8.7782,-28.29 -9.83615,-28.4191 -10.887599999999999,-28.42575" speed="36.11111111111111" width="2.498983275254158"/>
	</edge>
	<edge from="6" function="normal" id="657" length="14.231483143394641" numLanes="1" priority="1" speed="36.11111111111111" spreadType="center" to="9">
		<lane allow="moped bicycle pedestrian custom1 trailer evehicle rail_urban ship private truck vip custom2 authority delivery rail_electric taxi tram army hov coach motorcycle passenger bus rail emergency" index="0" length="14.231483143394641" shape="-11.0089,-30.92205 -3.9148,-31.360500000000002 3.1955999999999998,-31.798000000000002" speed="36.11111111111111" width="2.4997439088834716"/>
	</edge>
	<edge from="20" function="normal" id="658" length="8.839319853519916" numLanes="1" priority="1" speed="36.11111111111111" spreadType="center" to="9">
		<lane allow="moped bicycle pedestrian custom1 trailer evehicle rail_urban ship private vip custom2 authority delivery rail_electric taxi tram army hov coach motorcycle passenger rail emergency" index="0" length="8.839319853519916" shape="-4.4996,-34.51555 -4.18405,-33.6847 -3.5612500000000002,-32.9561 -2.68905,-32.422650000000004 -1.65205,-32.06205 -0.50965,-31.850749999999998 0.68565,-31.74975 3.1955999999999998,-31.798000000000002" speed="36.11111111111111" width="2.500512467475418"/>
	</edge>
	<edge from="22" function="normal" id="659" length="12.23472891716378" numLanes="1" priority="1" speed="36.11111111111111" spreadType="center" to="17">
		<lane allow="moped bicycle pedestrian custom1 trailer evehicle rail_urban ship private vip custom2 authority delivery rail_electric taxi tram army hov coach motorcycle passenger rail emergency" index="0" length="12.23472891716378" shape="-3.8752,-22.089550000000003 -4.4731,-25.282 -5.3686,-28.4789 -6.9206,-33.929050000000004" speed="36.11111111111111" width="2.482043506870899"/>
	</edge>
	<edge from="22" function="normal" id="660" length="13.815483489754275" numLanes="1" priority="1" speed="36.11111111111111" spreadType="center" to="9">
		<lane allow="moped bicycle pedestrian custom1 trailer evehicle rail_urban ship private vip custom2 authority delivery rail_electric taxi tram army hov coach motorcycle passenger rail emergency" index="0" length="13.815483489754275" shape="-3.8752,-22.089550000000003 -3.99045,-23.518549999999998 -3.9635499999999997,-24.97415 -3.73345,-26.464550000000003 -3.2170500000000004,-27.94265 -2.3484499999999997,-29.30285 -1.1489500000000001,-30.40075 0.25155000000000005,-31.1534 1.7212,-31.5913 3.1955999999999998,-31.798000000000002" speed="36.11111111111111" width="2.499043242923179"/>
	</edge>
	<edge from="16" function="normal" id="661" length="13.590226244602805" numLanes="1" priority="1" speed="36.11111111111111" spreadType="center" to="3">
		<lane allow="moped bicycle pedestrian custom1 trailer evehicle rail_urban ship private vip custom2 authority delivery rail_electric taxi tram army hov coach motorcycle passenger rail emergency" index="0" length="13.590226244602805" shape="-9.69115,-1.99465 -8.26245,-1.8637000000000001 -6.84525,-1.59535 -5.4331499999999995,-1.1406999999999998 -4.07055,-0.4434 -2.8433,0.5394 -1.8634,1.7855500000000002 -1.1894500000000001,3.1921999999999997 -0.8063,4.665649999999999 -0.6541999999999999,6.11695" speed="36.11111111111111" width="2.4999960999969577"/>
	</edge>
	<edge from="24" function="normal" id="662" length="14.250298799168037" numLanes="1" priority="1" speed="36.11111111111111" spreadType="center" to="3">
		<lane allow="moped bicycle pedestrian custom1 trailer evehicle rail_urban ship private vip custom2 authority delivery rail_electric taxi tram army hov coach motorcycle passenger rail emergency" index="0" length="14.250298799168037" shape="-0.9215,-8.13055 -0.75375,2.85325 -0.6541999999999999,6.11695" speed="36.11111111111111" width="2.4986785407490895"/>
	</edge>
	<edge from="16" function="normal" id="663" length="10.25244395042365" numLanes="1" priority="1" speed="36.11111111111111" spreadType="center" to="21">
		<lane allow="moped bicycle pedestrian custom1 trailer evehicle rail_urban ship private vip custom2 authority delivery rail_electric taxi tram army hov coach motorcycle passenger rail emergency" index="0" length="10.25244395042365" shape="-9.69115,-1.99465 -8.46715,-2.00065 -7.30505,-2.1508 -6.239850000000001,-2.4798 -5.3232,-3.00305 -4.5925,-3.7441500000000003 -4.05635,-4.67595 -3.69705,-5.756349999999999 -3.49385,-6.934 -3.4205499999999995,-8.16875" speed="36.11111111111111" width="2.4999960999969577"/>
	</edge>
	<edge from="20" function="normal" id="664" length="10.340245996442524" numLanes="1" priority="1" speed="36.11111111111111" spreadType="center" to="7">
		<lane allow="moped bicycle pedestrian custom1 trailer evehicle rail_urban ship private vip custom2 authority delivery rail_electric taxi tram army hov coach motorcycle passenger rail emergency" index="0" length="10.340245996442524" shape="-4.4996,-34.51555 -4.3665,-32.7372 -4.9973,-30.8947 -6.35615,-29.57915 -7.9014,-28.89525 -9.419550000000001,-28.565199999999997 -10.887599999999999,-28.42575" speed="36.11111111111111" width="2.498983275254158"/>
	</edge>
	<edge from="2" function="normal" id="665" length="14.397786794904054" numLanes="1" priority="1" speed="36.11111111111111" spreadType="center" to="21">
		<lane allow="moped bicycle pedestrian custom1 trailer evehicle rail_urban ship private vip custom2 authority delivery rail_electric taxi tram army hov coach motorcycle passenger rail emergency" index="0" length="14.397786794904054" shape="-3.151,6.2262 -3.2531,2.9101 -3.4205499999999995,-8.16875" speed="36.11111111111111" width="2.498599287600955"/>
	</edge>
	<edge from="6" function="normal" id="666" length="14.413566523500352" numLanes="1" priority="1" speed="36.11111111111111" spreadType="center" to="23">
		<lane allow="moped bicycle pedestrian custom1 trailer evehicle rail_urban ship private vip custom2 authority delivery rail_electric taxi tram army hov coach motorcycle passenger rail emergency" index="0" length="14.413566523500352" shape="-11.0089,-30.92205 -9.6282,-30.91425 -8.2181,-30.7439 -6.81015,-30.358 -5.46295,-29.715049999999998 -4.25805,-28.80405 -3.2697,-27.6811 -2.51905,-26.41985 -1.98385,-25.09725 -1.6238000000000001,-23.75085 -1.3965,-22.40475" speed="36.11111111111111" width="2.498278297147858"/>
	</edge>
</edges>
