<!-- generated on 2020-12-18 16:49:56.101686 by ipykernel_launcher.py v1_2_0+5214-53edc58fcd
-->
<nodes>
	<node id="1" type="from" x="-0.9903500000000001" y="72.27865"/>
	<node id="2" type="to" x="-3.151" y="6.2262"/>
	<node id="3" type="from" x="-0.6541999999999999" y="6.11695"/>
	<node id="4" type="to" x="1.5083" y="72.19694999999999"/>
	<node id="5" type="from" x="-132.9418" y="-26.844250000000002"/>
	<node id="6" type="to" x="-11.0089" y="-30.92205"/>
	<node id="7" type="from" x="-10.887599999999999" y="-28.42575"/>
	<node id="8" type="to" x="-132.90165000000002" y="-24.3446"/>
	<node id="9" type="from" x="3.1955999999999998" y="-31.798000000000002"/>
	<node id="10" type="to" x="76.8677" y="-37.195949999999996"/>
	<node id="11" type="from" x="77.05035000000001" y="-34.702650000000006"/>
	<node id="12" type="to" x="3.3779" y="-29.305750000000003"/>
	<node id="13" type="from" x="-9.799800000000001" y="0.5019"/>
	<node id="14" type="to" x="-36.8146" y="9.28985"/>
	<node id="15" type="from" x="-38.06815" y="7.1274999999999995"/>
	<node id="16" type="to" x="-9.69115" y="-1.99465"/>
	<node id="17" type="from" x="-6.9206" y="-33.929050000000004"/>
	<node id="18" type="to" x="-6.9832" y="-34.195499999999996"/>
	<node id="19" type="from" x="-4.54955" y="-34.76755"/>
	<node id="20" type="to" x="-4.4996" y="-34.51555"/>
	<node id="21" type="from" x="-3.4205499999999995" y="-8.16875"/>
	<node id="22" type="to" x="-3.8752" y="-22.089550000000003"/>
	<node id="23" type="from" x="-1.3965" y="-22.40475"/>
	<node id="24" type="to" x="-0.9215" y="-8.13055"/>
</nodes>
