<routes>
	<vehicle depart="0.1" departLane="0" departPos="2.5" departSpeed="26.229507" id="349" type="passenger">
		<route edges=":8_1 125160"/>
	</vehicle>
	<vehicle depart="0.1" departLane="2" departPos="35.69853037460357" departSpeed="34.157164" id="350" type="passenger">
		<route edges="125185 125160"/>
	</vehicle>
	<vehicle depart="0.1" departLane="1" departPos="25.422222574719502" departSpeed="28.786104" id="351" type="truck">
		<route edges="125185 125160"/>
	</vehicle>
</routes>
