<!-- generated on 2020-12-18 16:01:44.364656 by ipykernel_launcher.py v1_2_0+5214-53edc58fcd
-->
<nodes>
	<node id="1" type="from" x="86.57845" y="70.13560000000001"/>
	<node id="2" type="to" x="76.9977" y="70.45570000000001"/>
	<node id="3" type="to" x="69.54025" y="84.51805"/>
	<node id="4" type="from" x="-22.837850000000003" y="7.8915"/>
	<node id="5" type="to" x="-8.8185" y="0.9253333333333332"/>
	<node id="6" type="to" x="26.43475" y="11.3992"/>
	<node id="7" type="to" x="40.135400000000004" y="32.18861666666667"/>
	<node id="8" type="to" x="43.94808333333334" y="39.77793333333333"/>
	<node id="9" type="to" x="53.841350000000006" y="59.73116666666667"/>
	<node id="10" type="to" x="66.68265000000001" y="85.92181666666666"/>
	<node id="11" type="to" x="-0.47465" y="-5.10165"/>
	<node id="12" type="to" x="21.632225" y="-16.485774999999997"/>
	<node id="13" type="to" x="36.119524999999996" y="-23.6925"/>
	<node id="14" type="to" x="50.83715" y="-32.950849999999996"/>
	<node id="15" type="to" x="-5.90205" y="-19.69635"/>
	<node id="16" type="to" x="-32.06135" y="-89.51594999999999"/>
	<node id="17" type="from" x="56.141675" y="-22.154525"/>
	<node id="18" type="to" x="43.878475" y="-16.1595"/>
	<node id="19" type="to" x="38.73366666666667" y="-11.65"/>
	<node id="20" type="to" x="32.790416666666665" y="-8.719716666666667"/>
	<node id="21" type="to" x="26.060875" y="-7.28955"/>
	<node id="22" type="to" x="3.9735" y="3.71635"/>
	<node id="23" type="to" x="-5.65205" y="8.45975"/>
	<node id="24" type="to" x="-18.05201666666667" y="17.53901666666667"/>
	<node id="25" type="to" x="76.787" y="65.39565"/>
	<node id="26" type="to" x="86.3678" y="65.07555"/>
	<node id="27" type="from" x="-20.8157875" y="-95.28889999999998"/>
	<node id="28" type="to" x="-16.74685" y="-87.350825"/>
	<node id="29" type="to" x="-10.16802" y="-70.68643"/>
	<node id="30" type="to" x="10.8868" y="-28.521660000000004"/>
	<node id="31" type="to" x="16.036283333333333" y="-17.447733333333332"/>
	<node id="32" type="to" x="23.3963" y="-2.0722333333333336"/>
	<node id="33" type="from" x="55.80726" y="91.26408"/>
	<node id="34" type="to" x="42.84862" y="64.88915999999999"/>
	<node id="35" type="to" x="33.08705" y="45.21216"/>
	<node id="36" type="to" x="27.912891666666667" y="38.29658333333333"/>
	<node id="37" type="to" x="16.916675" y="16.200608333333335"/>
	<node id="38" type="to" x="9.5846" y="4.6786666666666665"/>
	<node id="39" type="to" x="2.2583" y="-10.215516666666666"/>
</nodes>
