<?xml version="1.0" encoding="UTF-8"?>

<!-- generated on Fri Dec 18 16:01:44 2020 by Eclipse SUMO netconvert Version 1.8.0
<configuration xmlns:xsi="http://www.w3.org/2001/XMLSchema-instance" xsi:noNamespaceSchemaLocation="http://sumo.dlr.de/xsd/netconvertConfiguration.xsd">

    <input>
        <node-files value="./converted_scenarios/NGSIM/Lankershim/USA_Lanker-2_24_I-1-1/nodes.net.xml"/>
        <edge-files value="./converted_scenarios/NGSIM/Lankershim/USA_Lanker-2_24_I-1-1/edges.net.xml"/>
        <connection-files value="./converted_scenarios/NGSIM/Lankershim/USA_Lanker-2_24_I-1-1/_connections.net.xml"/>
        <tllogic-files value="./converted_scenarios/NGSIM/Lankershim/USA_Lanker-2_24_I-1-1/_tll.net.xml"/>
    </input>

    <output>
        <output-file value="./converted_scenarios/NGSIM/Lankershim/USA_Lanker-2_24_I-1-1/USA_Lanker-2_24_I-1-1.net.xml"/>
    </output>

    <processing>
        <plain.extend-edge-shape value="true"/>
        <geometry.remove.keep-edges.explicit value="true"/>
        <geometry.avoid-overlap value="true"/>
        <offset.disable-normalization value="true"/>
    </processing>

    <junctions>
        <no-turnarounds value="true"/>
        <junctions.internal-link-detail value="20"/>
    </junctions>

    <report>
        <aggregate-warnings value="5"/>
    </report>

    <random_number>
        <seed value="1234"/>
    </random_number>

</configuration>
-->

<net version="1.6" junctionCornerDetail="5" junctionLinkDetail="20" limitTurnSpeed="5.50" xmlns:xsi="http://www.w3.org/2001/XMLSchema-instance" xsi:noNamespaceSchemaLocation="http://sumo.dlr.de/xsd/net_file.xsd">

    <location netOffset="0.00,0.00" convBoundary="-32.06,-95.29,86.58,91.26" origBoundary="-34.88,-97.47,86.58,93.89" projParameter="!"/>

    <edge id=":11_0" function="internal">
        <lane id=":11_0_0" index="0" disallow="rail_fast" speed="36.11" length="0.26" width="3.31" shape="0.35,-7.34 0.12,-7.22"/>
        <lane id=":11_0_1" index="1" disallow="rail_fast" speed="36.11" length="0.26" width="3.11" shape="1.82,-4.47 1.58,-4.35"/>
    </edge>
    <edge id=":12_0" function="internal">
        <lane id=":12_0_0" index="0" disallow="rail_fast" speed="36.11" length="3.06" width="3.50" shape="19.49,-17.29 22.23,-18.69"/>
        <lane id=":12_0_1" index="1" disallow="rail_fast" speed="36.11" length="3.06" width="3.31" shape="21.00,-14.25 23.73,-15.62"/>
    </edge>
    <edge id=":13_0" function="internal">
        <lane id=":13_0_0" index="0" disallow="bus truck rail_fast" speed="11.02" length="10.30" width="3.87" shape="24.89,-27.65 25.56,-27.49 26.16,-27.35 26.71,-27.23 27.22,-27.13 27.69,-27.05 28.13,-26.99 28.55,-26.96 28.94,-26.95 29.33,-26.97 29.70,-27.01 30.08,-27.08 30.46,-27.18 30.86,-27.30 31.28,-27.45 31.72,-27.63 32.20,-27.84 32.71,-28.08 33.27,-28.35 33.89,-28.65"/>
        <lane id=":13_0_1" index="1" disallow="bus truck rail_fast" speed="12.20" length="10.30" width="3.51" shape="24.78,-24.10 25.57,-23.91 26.30,-23.75 26.96,-23.61 27.57,-23.50 28.13,-23.41 28.66,-23.35 29.15,-23.32 29.62,-23.31 30.08,-23.33 30.53,-23.38 30.98,-23.46 31.44,-23.58 31.91,-23.72 32.41,-23.90 32.94,-24.12 33.51,-24.36 34.12,-24.65 34.79,-24.97 35.52,-25.33"/>
    </edge>
    <edge id=":13_2" function="internal">
        <lane id=":13_2_0" index="0" disallow="bus truck rail_fast" speed="36.11" length="11.23" width="3.51" shape="25.56,-20.08 35.52,-25.33"/>
        <lane id=":13_2_1" index="1" disallow="bus truck rail_fast" speed="36.11" length="11.23" width="3.38" shape="27.30,-16.76 27.99,-17.25 28.60,-17.68 29.17,-18.06 29.68,-18.40 30.15,-18.71 30.60,-18.99 31.01,-19.24 31.41,-19.47 31.81,-19.68 32.20,-19.89 32.60,-20.09 33.02,-20.29 33.46,-20.51 33.93,-20.73 34.44,-20.97 35.00,-21.24 35.62,-21.53 36.30,-21.86 37.05,-22.22"/>
    </edge>
    <edge id=":13_4" function="internal">
        <lane id=":13_4_0" index="0" disallow="rail_fast" speed="36.11" length="13.86" width="3.51" shape="23.11,-19.13 35.52,-25.33"/>
        <lane id=":13_4_1" index="1" disallow="rail_fast" speed="36.11" length="13.86" width="3.38" shape="24.64,-16.07 37.05,-22.22"/>
    </edge>
    <edge id=":15_0" function="internal">
        <lane id=":15_0_0" index="0" disallow="rail_fast" speed="36.11" length="19.07" width="2.82" shape="0.66,-6.46 -7.79,-23.56"/>
        <lane id=":15_0_1" index="1" disallow="rail_fast" speed="36.11" length="19.07" width="2.97" shape="3.44,-7.89 -4.96,-25.01"/>
        <lane id=":15_0_2" index="2" disallow="rail_fast" speed="36.11" length="19.07" width="2.96" shape="6.13,-9.28 -2.27,-26.39"/>
    </edge>
    <edge id=":15_3" function="internal">
        <lane id=":15_3_0" index="0" disallow="bus truck rail_fast" speed="13.68" length="23.17" width="2.96" shape="12.55,-9.52 11.80,-9.68 11.04,-9.92 10.28,-10.24 9.51,-10.65 8.75,-11.13 7.98,-11.70 7.20,-12.34 6.43,-13.07 5.65,-13.88 4.87,-14.77 4.09,-15.73 3.31,-16.78 2.52,-17.91 1.73,-19.13 0.93,-20.42 0.14,-21.79 -0.66,-23.24 -1.46,-24.78 -2.27,-26.39"/>
    </edge>
    <edge id=":15_4" function="internal">
        <lane id=":15_4_0" index="0" disallow="bus truck rail_fast" speed="36.11" length="4.30" width="2.82" shape="-5.90,-19.70 -7.79,-23.56"/>
    </edge>
    <edge id=":18_0" function="internal">
        <lane id=":18_0_0" index="0" disallow="rail_fast" speed="14.45" length="8.28" width="3.25" shape="48.31,-16.30 47.77,-16.04 47.28,-15.79 46.84,-15.57 46.44,-15.36 46.08,-15.16 45.75,-14.96 45.45,-14.77 45.17,-14.57 44.91,-14.37 44.66,-14.16 44.42,-13.93 44.18,-13.69 43.94,-13.42 43.69,-13.13 43.43,-12.81 43.16,-12.45 42.86,-12.05 42.53,-11.61 42.17,-11.13"/>
        <lane id=":18_0_1" index="1" disallow="rail_fast" speed="36.11" length="8.28" width="3.60" shape="48.31,-16.30 41.08,-12.74"/>
        <lane id=":18_0_2" index="2" disallow="rail_fast" speed="36.11" length="8.28" width="3.67" shape="46.73,-19.58 39.02,-15.78"/>
    </edge>
    <edge id=":19_0" function="internal">
        <lane id=":19_0_0" index="0" disallow="rail_fast" speed="9.74" length="3.41" width="3.19" shape="40.84,-9.31 40.67,-9.09 40.52,-8.90 40.38,-8.73 40.24,-8.59 40.11,-8.46 39.98,-8.35 39.85,-8.25 39.72,-8.17 39.60,-8.09 39.46,-8.03 39.32,-7.96 39.18,-7.90 39.02,-7.84 38.86,-7.77 38.68,-7.70 38.49,-7.62 38.28,-7.54 38.05,-7.43 37.80,-7.32"/>
        <lane id=":19_0_1" index="1" disallow="rail_fast" speed="36.11" length="3.41" width="3.52" shape="39.36,-11.88 36.33,-10.38"/>
        <lane id=":19_0_2" index="2" disallow="rail_fast" speed="36.11" length="3.41" width="3.68" shape="37.55,-15.05 34.75,-13.65"/>
    </edge>
    <edge id=":2_0" function="internal">
        <lane id=":2_0_0" index="0" disallow="bus truck rail_fast" speed="8.75" length="5.40" width="3.35" shape="77.40,70.44 77.00,70.46 76.64,70.47 76.32,70.49 76.02,70.51 75.75,70.54 75.49,70.57 75.26,70.62 75.04,70.67 74.82,70.73 74.62,70.81 74.42,70.90 74.22,71.01 74.02,71.13 73.81,71.27 73.59,71.44 73.35,71.62 73.10,71.83 72.83,72.06 72.53,72.32"/>
    </edge>
    <edge id=":20_0" function="internal">
        <lane id=":20_0_0" index="0" disallow="bus truck rail_fast" speed="14.27" length="3.68" width="2.93" shape="35.18,-6.05 34.93,-5.93 34.71,-5.83 34.50,-5.73 34.32,-5.65 34.15,-5.57 33.99,-5.50 33.85,-5.42 33.71,-5.35 33.58,-5.28 33.45,-5.21 33.33,-5.13 33.21,-5.04 33.08,-4.94 32.95,-4.83 32.81,-4.71 32.66,-4.57 32.51,-4.41 32.33,-4.24 32.14,-4.04"/>
    </edge>
    <edge id=":20_1" function="internal">
        <lane id=":20_1_0" index="0" disallow="rail_fast" speed="36.11" length="4.87" width="3.46" shape="33.73,-9.09 29.38,-6.93"/>
        <lane id=":20_1_1" index="1" disallow="rail_fast" speed="36.11" length="4.87" width="3.70" shape="32.17,-12.35 27.80,-10.16"/>
    </edge>
    <edge id=":20_3" function="internal">
        <lane id=":20_3_0" index="0" disallow="bus truck rail_fast" speed="36.11" length="4.93" width="3.01" shape="32.17,-12.35 31.84,-12.19 31.54,-12.04 31.27,-11.91 31.02,-11.80 30.79,-11.70 30.58,-11.61 30.39,-11.53 30.20,-11.45 30.01,-11.39 29.83,-11.32 29.64,-11.26 29.44,-11.21 29.23,-11.15 29.01,-11.09 28.77,-11.02 28.51,-10.95 28.22,-10.88 27.90,-10.79 27.54,-10.69"/>
    </edge>
    <edge id=":21_0" function="internal">
        <lane id=":21_0_0" index="0" disallow="rail_fast" speed="36.11" length="3.05" width="3.21" shape="28.20,-6.35 25.47,-5.00"/>
        <lane id=":21_0_1" index="1" disallow="rail_fast" speed="36.11" length="3.05" width="3.68" shape="26.62,-9.57 23.90,-8.21"/>
    </edge>
    <edge id=":22_0" function="internal">
        <lane id=":22_0_0" index="0" disallow="rail_fast" speed="36.11" length="10.83" width="3.17" shape="13.95,0.70 4.24,5.50"/>
        <lane id=":22_0_1" index="1" disallow="rail_fast" speed="36.11" length="10.83" width="3.68" shape="12.38,-2.43 2.70,2.42"/>
    </edge>
    <edge id=":22_2" function="internal">
        <lane id=":22_2_0" index="0" disallow="bus truck rail_fast" speed="9.83" length="11.33" width="3.68" shape="9.33,-6.21 9.21,-5.60 9.06,-5.01 8.89,-4.43 8.69,-3.87 8.47,-3.33 8.22,-2.81 7.95,-2.31 7.65,-1.82 7.32,-1.35 6.98,-0.89 6.60,-0.45 6.20,-0.03 5.78,0.37 5.33,0.75 4.85,1.12 4.35,1.47 3.83,1.81 3.28,2.12 2.70,2.42"/>
    </edge>
    <edge id=":23_0" function="internal">
        <lane id=":23_0_0" index="0" disallow="bus truck rail_fast" speed="36.11" length="4.83" width="5.13" shape="-9.92,16.66 -5.24,15.43"/>
    </edge>
    <edge id=":23_1" function="internal">
        <lane id=":23_1_0" index="0" disallow="rail_fast" speed="36.11" length="4.52" width="3.11" shape="-3.00,9.06 -7.04,11.12"/>
        <lane id=":23_1_1" index="1" disallow="rail_fast" speed="36.11" length="4.52" width="3.66" shape="-4.33,5.91 -8.34,7.98"/>
    </edge>
    <edge id=":25_0" function="internal">
        <lane id=":25_0_0" index="0" disallow="bus truck rail_fast" speed="36.11" length="2.87" width="5.36" shape="75.35,65.37 78.22,65.35"/>
    </edge>
    <edge id=":28_0" function="internal">
        <lane id=":28_0_0" index="0" disallow="rail_fast" speed="36.11" length="7.96" width="3.51" shape="-14.13,-92.70 -10.52,-85.37"/>
        <lane id=":28_0_1" index="1" disallow="rail_fast" speed="36.11" length="7.96" width="2.89" shape="-17.03,-91.12 -13.44,-83.92"/>
        <lane id=":28_0_2" index="2" disallow="rail_fast" speed="36.11" length="7.96" width="3.01" shape="-19.70,-89.66 -16.16,-82.58"/>
        <lane id=":28_0_3" index="3" disallow="rail_fast" speed="36.11" length="7.96" width="2.82" shape="-22.40,-88.18 -18.87,-81.24"/>
        <lane id=":28_0_4" index="4" disallow="bus rail_fast" speed="36.11" length="7.96" width="2.91" shape="-22.40,-88.18 -22.13,-87.66 -21.89,-87.19 -21.68,-86.76 -21.49,-86.37 -21.32,-86.01 -21.17,-85.68 -21.03,-85.36 -20.91,-85.06 -20.81,-84.76 -20.71,-84.47 -20.61,-84.16 -20.52,-83.85 -20.43,-83.52 -20.34,-83.16 -20.25,-82.77 -20.15,-82.35 -20.04,-81.88 -19.92,-81.36 -19.78,-80.79"/>
    </edge>
    <edge id=":29_0" function="internal">
        <lane id=":29_0_0" index="0" disallow="rail_fast" speed="36.11" length="3.88" width="3.35" shape="-5.74,-75.66 -4.04,-72.24"/>
        <lane id=":29_0_1" index="1" disallow="rail_fast" speed="36.11" length="3.88" width="2.89" shape="-8.59,-74.18 -6.87,-70.74"/>
        <lane id=":29_0_2" index="2" disallow="rail_fast" speed="36.11" length="3.88" width="3.08" shape="-11.28,-72.79 -9.55,-69.32"/>
        <lane id=":29_0_3" index="3" disallow="rail_fast" speed="36.11" length="3.88" width="2.82" shape="-13.95,-71.40 -12.20,-67.92"/>
        <lane id=":29_0_4" index="4" disallow="bus rail_fast" speed="36.11" length="3.88" width="3.05" shape="-16.34,-70.16 -16.24,-69.88 -16.15,-69.63 -16.07,-69.41 -16.00,-69.20 -15.93,-69.01 -15.87,-68.84 -15.81,-68.68 -15.75,-68.53 -15.69,-68.38 -15.64,-68.24 -15.58,-68.09 -15.51,-67.94 -15.45,-67.78 -15.37,-67.61 -15.29,-67.43 -15.19,-67.24 -15.09,-67.02 -14.97,-66.78 -14.84,-66.52"/>
    </edge>
    <edge id=":30_0" function="internal">
        <lane id=":30_0_0" index="0" disallow="bus truck rail_fast" speed="10.23" length="10.24" width="3.11" shape="15.69,-33.31 15.92,-32.91 16.18,-32.52 16.46,-32.14 16.76,-31.78 17.09,-31.43 17.44,-31.09 17.81,-30.77 18.20,-30.45 18.61,-30.15 19.05,-29.87 19.51,-29.59 20.00,-29.33 20.50,-29.09 21.03,-28.85 21.58,-28.63 22.16,-28.42 22.75,-28.23 23.37,-28.04 24.01,-27.88"/>
    </edge>
    <edge id=":30_1" function="internal">
        <lane id=":30_1_0" index="0" disallow="bus truck rail_fast" speed="11.58" length="11.05" width="3.13" shape="12.63,-31.71 12.99,-31.00 13.34,-30.36 13.67,-29.79 13.99,-29.28 14.30,-28.83 14.62,-28.43 14.94,-28.07 15.27,-27.75 15.62,-27.46 15.98,-27.20 16.37,-26.96 16.79,-26.74 17.24,-26.52 17.72,-26.30 18.25,-26.08 18.83,-25.85 19.46,-25.60 20.14,-25.33 20.89,-25.04"/>
    </edge>
    <edge id=":30_2" function="internal">
        <lane id=":30_2_0" index="0" disallow="rail_fast" speed="36.11" length="10.45" width="3.12" shape="12.63,-31.71 17.20,-22.15"/>
        <lane id=":30_2_1" index="1" disallow="rail_fast" speed="36.11" length="10.45" width="3.06" shape="9.90,-30.27 14.40,-20.84"/>
        <lane id=":30_2_2" index="2" disallow="rail_fast" speed="36.11" length="10.45" width="2.98" shape="7.20,-28.85 11.66,-19.55"/>
    </edge>
    <edge id=":30_5" function="internal">
        <lane id=":30_5_0" index="0" disallow="bus truck rail_fast" speed="36.11" length="10.20" width="2.87" shape="4.52,-27.44 4.86,-26.76 5.16,-26.14 5.44,-25.58 5.69,-25.07 5.92,-24.60 6.14,-24.17 6.33,-23.77 6.52,-23.38 6.69,-23.01 6.86,-22.64 7.02,-22.26 7.19,-21.87 7.35,-21.46 7.53,-21.02 7.71,-20.54 7.90,-20.02 8.11,-19.44 8.33,-18.80 8.58,-18.10"/>
    </edge>
    <edge id=":31_0" function="internal">
        <lane id=":31_0_0" index="0" disallow="rail_fast" speed="36.11" length="3.22" width="3.12" shape="18.08,-20.29 19.46,-17.39"/>
        <lane id=":31_0_1" index="1" disallow="rail_fast" speed="36.11" length="3.22" width="3.06" shape="15.32,-18.89 16.71,-15.99"/>
        <lane id=":31_0_2" index="2" disallow="rail_fast" speed="36.11" length="3.22" width="2.95" shape="12.63,-17.53 14.02,-14.62"/>
    </edge>
    <edge id=":32_0" function="internal">
        <lane id=":32_0_0" index="0" disallow="rail_fast" speed="36.11" length="2.64" width="3.14" shape="25.51,-4.80 26.66,-2.41"/>
        <lane id=":32_0_1" index="1" disallow="rail_fast" speed="36.11" length="2.64" width="3.10" shape="22.71,-3.44 23.85,-1.06"/>
        <lane id=":32_0_2" index="2" disallow="rail_fast" speed="36.11" length="2.64" width="2.93" shape="19.98,-2.12 21.12,0.26"/>
    </edge>
    <edge id=":34_0" function="internal">
        <lane id=":34_0_0" index="0" disallow="rail_fast" speed="36.11" length="3.05" width="2.78" shape="38.20,68.89 36.84,66.15"/>
        <lane id=":34_0_1" index="1" disallow="rail_fast" speed="36.11" length="3.05" width="3.00" shape="40.79,67.63 39.44,64.89"/>
        <lane id=":34_0_2" index="2" disallow="bus rail_fast" speed="36.11" length="3.05" width="3.02" shape="43.52,66.30 42.17,63.57"/>
        <lane id=":34_0_3" index="3" disallow="bus rail_fast" speed="36.11" length="3.05" width="2.96" shape="46.24,64.98 44.89,62.25"/>
        <lane id=":34_0_4" index="4" disallow="rail_fast" speed="36.11" length="3.05" width="3.03" shape="48.96,63.67 47.60,60.93"/>
    </edge>
    <edge id=":35_0" function="internal">
        <lane id=":35_0_0" index="0" disallow="rail_fast" speed="21.96" length="7.43" width="2.94" shape="28.84,50.28 28.58,49.79 28.34,49.34 28.12,48.95 27.91,48.59 27.71,48.27 27.52,47.98 27.33,47.72 27.13,47.47 26.94,47.24 26.73,47.02 26.52,46.81 26.29,46.59 26.05,46.37 25.78,46.13 25.50,45.87 25.19,45.59 24.84,45.29 24.47,44.94 24.06,44.56"/>
        <lane id=":35_0_1" index="1" disallow="rail_fast" speed="36.11" length="7.43" width="2.94" shape="28.84,50.28 25.53,43.73"/>
        <lane id=":35_0_2" index="2" disallow="rail_fast" speed="36.11" length="7.43" width="3.05" shape="31.50,48.94 28.17,42.23"/>
        <lane id=":35_0_3" index="3" disallow="rail_fast" speed="36.11" length="7.43" width="3.03" shape="34.23,47.56 30.83,40.72"/>
        <lane id=":35_0_4" index="4" disallow="rail_fast" speed="36.11" length="7.43" width="3.05" shape="36.96,46.18 33.49,39.21"/>
        <lane id=":35_0_5" index="5" disallow="rail_fast" speed="36.11" length="7.43" width="3.12" shape="39.71,44.80 36.72,38.73"/>
    </edge>
    <edge id=":36_0" function="internal">
        <lane id=":36_0_0" index="0" disallow="rail_fast" speed="15.71" length="3.50" width="3.22" shape="23.68,44.20 23.47,44.02 23.28,43.85 23.10,43.71 22.93,43.59 22.77,43.48 22.62,43.39 22.48,43.30 22.34,43.21 22.21,43.13 22.08,43.05 21.96,42.96 21.84,42.86 21.72,42.75 21.60,42.63 21.49,42.49 21.37,42.33 21.24,42.15 21.12,41.93 20.99,41.69"/>
        <lane id=":36_0_1" index="1" disallow="rail_fast" speed="36.11" length="3.50" width="2.87" shape="25.34,43.35 23.82,40.33"/>
        <lane id=":36_0_2" index="2" disallow="rail_fast" speed="36.11" length="3.50" width="3.00" shape="28.04,41.96 26.57,39.00"/>
        <lane id=":36_0_3" index="3" disallow="rail_fast" speed="36.11" length="3.50" width="3.02" shape="30.75,40.56 29.30,37.66"/>
        <lane id=":36_0_4" index="4" disallow="rail_fast" speed="36.11" length="3.50" width="3.02" shape="33.44,39.12 32.02,36.27"/>
        <lane id=":36_0_5" index="5" disallow="rail_fast" speed="36.11" length="3.50" width="3.03" shape="36.63,38.55 34.80,34.86"/>
    </edge>
    <edge id=":37_0" function="internal">
        <lane id=":37_0_0" index="0" disallow="bus truck rail_fast" speed="36.11" length="4.73" width="3.84" shape="11.45,22.73 11.29,22.41 11.14,22.13 11.02,21.87 10.90,21.63 10.80,21.42 10.70,21.22 10.61,21.03 10.52,20.86 10.44,20.69 10.35,20.52 10.25,20.36 10.15,20.19 10.04,20.02 9.92,19.84 9.78,19.64 9.62,19.43 9.45,19.21 9.25,18.96 9.03,18.68"/>
    </edge>
    <edge id=":37_1" function="internal">
        <lane id=":37_1_0" index="0" disallow="rail_fast" speed="36.11" length="5.10" width="2.87" shape="14.41,21.22 12.11,16.63"/>
        <lane id=":37_1_1" index="1" disallow="rail_fast" speed="36.11" length="5.10" width="3.02" shape="17.06,19.87 14.76,15.31"/>
        <lane id=":37_1_2" index="2" disallow="rail_fast" speed="36.11" length="5.10" width="3.12" shape="19.79,18.47 17.54,13.94"/>
    </edge>
    <edge id=":37_4" function="internal">
        <lane id=":37_4_0" index="0" disallow="bus truck rail_fast" speed="36.11" length="5.03" width="2.93" shape="22.54,17.07 20.29,12.57"/>
    </edge>
    <edge id=":37_5" function="internal">
        <lane id=":37_5_0" index="0" disallow="bus truck rail_fast" speed="36.11" length="4.99" width="3.03" shape="25.25,15.69 23.02,11.22"/>
    </edge>
    <edge id=":38_0" function="internal">
        <lane id=":38_0_0" index="0" disallow="rail_fast" speed="36.11" length="3.02" width="3.06" shape="7.52,7.38 6.18,4.68"/>
        <lane id=":38_0_1" index="1" disallow="rail_fast" speed="36.11" length="3.02" width="2.99" shape="10.24,6.05 8.92,3.33"/>
        <lane id=":38_0_2" index="2" disallow="rail_fast" speed="36.11" length="3.02" width="3.06" shape="13.00,4.70 11.67,1.98"/>
    </edge>
    <edge id=":39_0" function="internal">
        <lane id=":39_0_0" index="0" disallow="rail_fast" speed="36.11" length="1.22" width="3.29" shape="0.21,-7.38 0.75,-6.29"/>
        <lane id=":39_0_1" index="1" disallow="rail_fast" speed="36.11" length="1.22" width="2.97" shape="2.99,-8.81 3.52,-7.71"/>
        <lane id=":39_0_2" index="2" disallow="rail_fast" speed="36.11" length="1.22" width="3.01" shape="5.68,-10.19 6.22,-9.10"/>
    </edge>
    <edge id=":5_0" function="internal">
        <lane id=":5_0_0" index="0" disallow="bus truck rail_fast" speed="8.72" length="16.70" width="3.23" shape="-12.12,-0.89 -10.88,-1.53 -9.73,-2.17 -8.65,-2.80 -7.66,-3.43 -6.75,-4.06 -5.92,-4.69 -5.18,-5.32 -4.51,-5.94 -3.93,-6.56 -3.43,-7.19 -3.02,-7.81 -2.68,-8.43 -2.43,-9.04 -2.26,-9.66 -2.17,-10.27 -2.17,-10.88 -2.25,-11.49 -2.41,-12.10 -2.65,-12.71"/>
    </edge>
    <edge id=":5_1" function="internal">
        <lane id=":5_1_0" index="0" disallow="rail_fast" speed="36.11" length="13.86" width="3.23" shape="-12.12,-0.89 0.17,-7.24"/>
        <lane id=":5_1_1" index="1" disallow="rail_fast" speed="36.11" length="13.86" width="3.03" shape="-10.74,1.91 1.64,-4.38"/>
    </edge>
    <edge id=":5_3" function="internal">
        <lane id=":5_3_0" index="0" disallow="bus truck rail_fast" speed="36.11" length="1.56" width="2.92" shape="-9.38,4.64 -10.78,5.32"/>
    </edge>
    <edge id=":6_0" function="internal">
        <lane id=":6_0_0" index="0" disallow="bus truck rail_fast" speed="9.12" length="13.80" width="3.05" shape="31.59,-3.45 31.22,-3.03 30.90,-2.57 30.62,-2.09 30.39,-1.57 30.20,-1.03 30.06,-0.47 29.97,0.13 29.92,0.76 29.92,1.41 29.96,2.09 30.05,2.80 30.18,3.54 30.36,4.31 30.59,5.10 30.86,5.92 31.17,6.78 31.53,7.65 31.94,8.56 32.39,9.50"/>
    </edge>
    <edge id=":6_1" function="internal">
        <lane id=":6_1_0" index="0" disallow="rail_fast" speed="36.11" length="13.06" width="3.05" shape="26.75,-2.23 32.39,9.50"/>
        <lane id=":6_1_1" index="1" disallow="rail_fast" speed="36.11" length="13.06" width="2.91" shape="23.93,-0.87 29.58,10.91"/>
        <lane id=":6_1_2" index="2" disallow="rail_fast" speed="36.11" length="13.06" width="2.89" shape="21.20,0.44 26.87,12.26"/>
    </edge>
    <edge id=":6_4" function="internal">
        <lane id=":6_4_0" index="0" disallow="bus truck rail_fast" speed="36.11" length="13.55" width="2.89" shape="20.35,0.38 26.87,12.26"/>
    </edge>
    <edge id=":7_0" function="internal">
        <lane id=":7_0_0" index="0" disallow="rail_fast" speed="36.11" length="0.24" width="3.05" shape="42.72,30.75 42.83,30.96"/>
        <lane id=":7_0_1" index="1" disallow="rail_fast" speed="36.11" length="0.24" width="2.91" shape="40.06,32.09 40.16,32.30"/>
        <lane id=":7_0_2" index="2" disallow="rail_fast" speed="36.11" length="0.24" width="2.89" shape="37.46,33.39 37.57,33.61"/>
    </edge>
    <edge id=":8_0" function="internal">
        <lane id=":8_0_0" index="0" disallow="rail_fast" speed="36.11" length="3.05" width="3.03" shape="45.94,37.04 47.32,39.77"/>
        <lane id=":8_0_1" index="1" disallow="rail_fast" speed="36.11" length="3.05" width="3.00" shape="43.22,38.40 44.58,41.12"/>
        <lane id=":8_0_2" index="2" disallow="rail_fast" speed="36.11" length="3.05" width="2.94" shape="40.58,39.72 41.92,42.44"/>
    </edge>
    <edge id=":9_0" function="internal">
        <lane id=":9_0_0" index="0" disallow="bus truck rail_fast" speed="10.11" length="13.46" width="3.16" shape="55.57,56.30 56.01,57.14 56.46,57.94 56.91,58.69 57.37,59.40 57.83,60.07 58.31,60.70 58.79,61.28 59.28,61.83 59.77,62.32 60.27,62.78 60.78,63.19 61.30,63.56 61.82,63.89 62.35,64.18 62.89,64.42 63.44,64.62 63.99,64.77 64.55,64.89 65.12,64.96"/>
    </edge>
    <edge id=":9_1" function="internal">
        <lane id=":9_1_0" index="0" disallow="rail_fast" speed="36.11" length="13.11" width="3.16" shape="55.57,56.30 61.38,68.06"/>
        <lane id=":9_1_1" index="1" disallow="bus rail_fast" speed="36.11" length="13.11" width="2.93" shape="52.79,57.65 58.62,69.40"/>
        <lane id=":9_1_2" index="2" disallow="rail_fast" speed="36.11" length="13.11" width="3.07" shape="50.05,58.98 55.88,70.73"/>
    </edge>

    <edge id="3426" from="34" to="35" priority="1" spreadType="center" length="21.90">
        <lane id="3426_0" index="0" disallow="rail_fast" speed="36.11" length="21.90" width="2.78" customShape="1" shape="36.84,66.15 32.36,57.26 28.84,50.28"/>
        <lane id="3426_1" index="1" disallow="rail_fast" speed="36.11" length="21.90" width="3.00" customShape="1" shape="39.44,64.89 35.02,56.01 31.50,48.94"/>
        <lane id="3426_2" index="2" disallow="rail_fast" speed="36.11" length="21.90" width="3.02" customShape="1" shape="42.17,63.57 37.70,54.57 34.23,47.56"/>
        <lane id="3426_3" index="3" disallow="rail_fast" speed="36.11" length="21.90" width="2.96" customShape="1" shape="44.89,62.25 40.39,53.11 36.96,46.18"/>
        <lane id="3426_4" index="4" disallow="rail_fast" speed="36.11" length="21.90" width="3.03" customShape="1" shape="47.60,60.93 43.11,51.73 39.71,44.80"/>
    </edge>
    <edge id="3438" from="35" to="36" priority="1" spreadType="center" length="8.44">
        <lane id="3438_0" index="0" disallow="rail_fast" speed="36.11" length="8.44" width="2.94" customShape="1" shape="24.06,44.56 23.68,44.20"/>
        <lane id="3438_1" index="1" disallow="rail_fast" speed="36.11" length="8.44" width="2.94" customShape="1" shape="25.53,43.73 25.34,43.35"/>
        <lane id="3438_2" index="2" disallow="rail_fast" speed="36.11" length="8.44" width="3.05" customShape="1" shape="28.17,42.23 28.04,41.96"/>
        <lane id="3438_3" index="3" disallow="rail_fast" speed="36.11" length="8.44" width="3.03" customShape="1" shape="30.83,40.72 30.75,40.56"/>
        <lane id="3438_4" index="4" disallow="rail_fast" speed="36.11" length="8.44" width="3.05" customShape="1" shape="33.49,39.21 33.44,39.12"/>
        <lane id="3438_5" index="5" disallow="rail_fast" speed="36.11" length="8.44" width="3.12" customShape="1" shape="36.72,38.73 36.63,38.55"/>
    </edge>
    <edge id="3450" from="36" to="37" priority="1" spreadType="center" length="24.49">
        <lane id="3450_0" index="0" disallow="rail_fast" speed="36.11" length="24.49" width="3.22" customShape="1" shape="20.99,41.69 17.81,35.43 14.02,27.74 11.45,22.73"/>
        <lane id="3450_1" index="1" disallow="rail_fast" speed="36.11" length="24.49" width="2.87" customShape="1" shape="23.82,40.33 20.81,34.28 16.99,26.33 14.41,21.22"/>
        <lane id="3450_2" index="2" disallow="rail_fast" speed="36.11" length="24.49" width="3.00" customShape="1" shape="26.57,39.00 23.54,32.95 19.69,25.00 17.06,19.87"/>
        <lane id="3450_3" index="3" disallow="rail_fast" speed="36.11" length="24.49" width="3.02" customShape="1" shape="29.30,37.66 26.21,31.50 22.33,23.55 19.79,18.47"/>
        <lane id="3450_4" index="4" disallow="rail_fast" speed="36.11" length="24.49" width="3.02" customShape="1" shape="32.02,36.27 28.90,30.04 25.01,22.09 22.54,17.07"/>
        <lane id="3450_5" index="5" disallow="rail_fast" speed="36.11" length="24.49" width="3.03" customShape="1" shape="34.80,34.86 31.59,28.54 27.71,20.59 25.25,15.69"/>
    </edge>
    <edge id="3456" from="6" to="7" priority="1" spreadType="center" length="24.71">
        <lane id="3456_0" index="0" disallow="rail_fast" speed="36.11" length="24.71" width="3.05" customShape="1" shape="32.39,9.50 35.56,15.83 39.41,23.75 42.72,30.75"/>
        <lane id="3456_1" index="1" disallow="rail_fast" speed="36.11" length="24.71" width="2.91" customShape="1" shape="29.58,10.91 32.99,17.60 36.67,25.17 40.06,32.09"/>
        <lane id="3456_2" index="2" disallow="rail_fast" speed="36.11" length="24.71" width="2.89" customShape="1" shape="26.87,12.26 30.36,19.16 34.15,26.86 37.46,33.39"/>
    </edge>
    <edge id="3462" from="7" to="8" priority="1" spreadType="center" length="8.47">
        <lane id="3462_0" index="0" disallow="rail_fast" speed="36.11" length="8.47" width="3.05" customShape="1" shape="42.83,30.96 45.94,37.04"/>
        <lane id="3462_1" index="1" disallow="rail_fast" speed="36.11" length="8.47" width="2.91" customShape="1" shape="40.16,32.30 43.22,38.40"/>
        <lane id="3462_2" index="2" disallow="rail_fast" speed="36.11" length="8.47" width="2.89" customShape="1" shape="37.57,33.61 40.58,39.72"/>
    </edge>
    <edge id="3468" from="8" to="9" priority="1" spreadType="center" length="22.24">
        <lane id="3468_0" index="0" disallow="rail_fast" speed="36.11" length="22.24" width="3.03" customShape="1" shape="47.32,39.77 51.25,47.71 55.57,56.30"/>
        <lane id="3468_1" index="1" disallow="rail_fast" speed="36.11" length="22.24" width="3.00" customShape="1" shape="44.58,41.12 48.57,49.13 52.79,57.65"/>
        <lane id="3468_2" index="2" disallow="rail_fast" speed="36.11" length="22.24" width="2.94" customShape="1" shape="41.92,42.44 45.88,50.51 50.05,58.98"/>
    </edge>
    <edge id="3498" from="1" to="2" priority="1" spreadType="center" length="9.59">
        <lane id="3498_0" index="0" disallow="rail_fast" speed="36.11" length="9.59" width="4.77" customShape="1" shape="86.58,70.14 77.40,70.44"/>
    </edge>
    <edge id="3500" from="25" to="26" priority="1" spreadType="center" length="9.59">
        <lane id="3500_0" index="0" disallow="rail_fast" speed="36.11" length="9.59" width="5.36" customShape="1" shape="78.22,65.35 86.37,65.08"/>
    </edge>
    <edge id="3509" from="4" to="5" priority="1" spreadType="center" length="15.63">
        <lane id="3509_0" index="0" disallow="rail_fast" speed="36.11" length="15.63" width="3.23" customShape="1" shape="-24.21,5.12 -19.82,2.94 -12.12,-0.89"/>
        <lane id="3509_1" index="1" disallow="rail_fast" speed="36.11" length="15.63" width="3.02" customShape="1" shape="-22.83,7.92 -18.39,5.72 -10.74,1.91"/>
        <lane id="3509_2" index="2" disallow="rail_fast" speed="36.11" length="15.63" width="3.06" customShape="1" shape="-21.47,10.64 -16.98,8.41 -9.38,4.64"/>
    </edge>
    <edge id="3517" from="23" to="24" priority="1" spreadType="center" length="14.50">
        <lane id="3517_0" index="0" disallow="rail_fast" speed="36.11" length="14.50" width="5.13" acceleration="1" customShape="1" shape="-5.24,15.43 -12.58,18.97 -16.20,20.94"/>
        <lane id="3517_1" index="1" disallow="rail_fast" speed="36.11" length="14.50" width="3.11" customShape="1" shape="-7.04,11.12 -14.47,15.12 -18.17,17.33"/>
        <lane id="3517_2" index="2" disallow="rail_fast" speed="36.11" length="14.50" width="3.66" customShape="1" shape="-8.34,7.98 -16.00,12.09 -19.79,14.36"/>
    </edge>
    <edge id="3525" from="13" to="14" priority="1" spreadType="center" length="17.28">
        <lane id="3525_0" index="0" disallow="rail_fast" speed="36.11" length="17.28" width="3.87" customShape="1" shape="33.89,-28.65 42.45,-32.86 49.24,-36.20"/>