<routes>
	<vehicle depart="0.1" departLane="0" departPos="0" departSpeed="0.0" id="2331" type="passenger">
		<route edges="3664 3525"/>
	</vehicle>
	<vehicle depart="0.1" departLane="4" departPos="18.15997385551329" departSpeed="0.0" id="2336" type="passenger">
		<route edges="3450 3664 3525"/>
	</vehicle>
	<vehicle depart="0.1" departLane="4" departPos="0" departSpeed="0.0" id="2343" type="passenger">
		<route edges="3450 3664 3525"/>
	</vehicle>
	<vehicle depart="0.1" departLane="4" departPos="0" departSpeed="0.018288" id="2392" type="passenger">
		<route edges="3450 3664 3525"/>
	</vehicle>
	<vehicle depart="0.1" departLane="1" departPos="0" departSpeed="0.018288" id="2397" type="passenger">
		<route edges="3664 3525"/>
	</vehicle>
	<vehicle depart="0.1" departLane="4" departPos="4.610106976729669" departSpeed="0.0" id="2446" type="passenger">
		<route edges="3438 3450 3664 3525"/>
	</vehicle>
	<vehicle depart="0.1" departLane="3" departPos="20.603855961882285" departSpeed="0.03048" id="2452" type="passenger">
		<route edges="3426 3438 3450 3664 3525"/>
	</vehicle>
	<vehicle depart="0.1" departLane="5" departPos="0" departSpeed="0.0" id="2455" type="passenger">
		<route edges="3450 3664 3525"/>
	</vehicle>
	<vehicle depart="0.1" departLane="5" departPos="19.676209709893392" departSpeed="0.04572" id="2461" type="passenger">
		<route edges="3450 3664 3525"/>
	</vehicle>
	<vehicle depart="0.1" departLane="0" departPos="74.28443874208685" departSpeed="0.31699" id="2467" type="passenger">
		<route edges="3542"/>
	</vehicle>
	<vehicle depart="0.1" departLane="5" departPos="0" departSpeed="0.0" id="2472" type="passenger">
		<route edges="3450 3664 3525"/>
	</vehicle>
	<vehicle depart="0.1" departLane="5" departPos="5.9620228522937015" departSpeed="0.0" id="2479" type="passenger">
		<route edges="3438 3450 3664 3525"/>
	</vehicle>
	<vehicle depart="0.1" departLane="4" departPos="21.49977873662919" departSpeed="0.06096" id="2480" type="passenger">
		<route edges="3426 3438 3450 3664 3525"/>
	</vehicle>
	<vehicle depart="0.1" departLane="0" departPos="62.23031417912677" departSpeed="0.41758" id="2482" type="passenger">
		<route edges="3542"/>
	</vehicle>
	<vehicle depart="0.1" departLane="2" departPos="67.26736286535021" departSpeed="0.024384" id="2484" type="passenger">
		<route edges="3542"/>
	</vehicle>
	<vehicle depart="0.1" departLane="2" departPos="0" departSpeed="0.0" id="2487" type="passenger">
		<route edges="3632 3652 3616 3456 3462 3468 3713"/>
	</vehicle>
	<vehicle depart="0.1" departLane="1" departPos="23.922951996078016" departSpeed="0.018288" id="2488" type="passenger">
		<route edges="3450 3610 3646 3626 3542"/>
	</vehicle>
	<vehicle depart="0.1" departLane="3" departPos="47.16190852391646" departSpeed="0.0" id="2489" type="passenger">
		<route edges="3568 3632 3652 3616 3456 3462 3468 3713"/>
	</vehicle>
	<vehicle depart="0.1" departLane="4" departPos="15.338689668173606" departSpeed="0.0" id="2491" type="passenger">
		<route edges="3426 3438 3450 3664 3525"/>
	</vehicle>
	<vehicle depart="0.1" departLane="1" departPos="74.2596340512287" departSpeed="0.057912" id="2493" type="passenger">
		<route edges="3542"/>
	</vehicle>
	<vehicle depart="0.1" departLane="2" departPos="59.76185340068704" departSpeed="0.21336" id="2495" type="passenger">
		<route edges="3542"/>
	</vehicle>
	<vehicle depart="0.1" departLane="1" departPos="17.39669437722939" departSpeed="0.0" id="2496" type="passenger">
		<route edges="3450 3610 3646 3626 3542"/>
	</vehicle>
	<vehicle depart="0.1" departLane="3" departPos="13.159840267664052" departSpeed="0.0" id="2497" type="passenger">
		<route edges="3426 3438 3450 3664 3525"/>
	</vehicle>
	<vehicle depart="0.1" departLane="1" departPos="0" departSpeed="0.0" id="2498" type="passenger">
		<route edges="3450 3610 3646 3626 3542"/>
	</vehicle>
	<vehicle depart="0.1" departLane="1" departPos="60.12998687686736" departSpeed="0.064008" id="2499" type="passenger">
		<route edges="3542"/>
	</vehicle>
	<vehicle depart="0.1" departLane="3" departPos="22.672726404340494" departSpeed="0.0" id="2500" type="passenger">
		<route edges="3450 3610 3646 3626 3542"/>
	</vehicle>
	<vehicle depart="0.1" departLane="1" departPos="0" departSpeed="0.04572" id="2501" type="passenger">
		<route edges="3450 3610 3646 3626 3542"/>
	</vehicle>
	<vehicle depart="0.1" departLane="3" departPos="16.034492449882443" departSpeed="0.0" id="2502" type="passenger">
		<route edges="3450 3610 3646 3626 3542"/>
	</vehicle>
	<vehicle depart="0.1" departLane="2" departPos="21.319839206584366" departSpeed="0.23165" id="2507" type="passenger">
		<route edges="3450 3610 3646 3626 3542"/>
	</vehicle>
	<vehicle depart="0.1" departLane="0" departPos="21.19492473680125" departSpeed="0.0" id="2515" type="passenger">
		<route edges="3426 3438 3450 3610 3646 3626 3542"/>
	</vehicle>
	<vehicle depart="0.1" departLane="2" departPos="0" departSpeed="0.0" id="2516" type="passenger">
		<route edges="3450 3610 3646 3626 3542"/>
	</vehicle>
	<vehicle depart="0.1" departLane="3" departPos="0" departSpeed="0.17069" id="2517" type="passenger">
		<route edges="3426 3438 3450 3664 3525"/>
	</vehicle>
	<vehicle depart="0.1" departLane="3" departPos="29.455265030351697" departSpeed="0.0" id="2518" type="passenger">
		<route edges="3705 3426 3438 3450 3664 3525"/>
	</vehicle>
	<vehicle depart="0.1" departLane="0" departPos="13.632681247388941" departSpeed="0.012192" id="2521" type="passenger">
		<route edges="3426 3438 3450 3610 3646 3626 3542"/>
	</vehicle>
	<vehicle depart="0.1" departLane="2" departPos="0" departSpeed="0.0" id="2523" type="passenger">
		<route edges="3450 3610 3646 3626 3542"/>
	</vehicle>
	<vehicle depart="0.1" departLane="3" departPos="0" departSpeed="0.16154" id="2524" type="passenger">
		<route edges="3450 3610 3646 3626 3542"/>
	</vehicle>
	<vehicle depart="0.1" departLane="1" departPos="12.313187635754987" departSpeed="0.0" id="2526" type="passenger">
		<route edges="3426 3438 3450 3610 3646 3626 3542"/>
	</vehicle>
	<vehicle depart="0.1" departLane="2" departPos="6.353256581613683" departSpeed="0.021336" id="2527" type="passenger">
		<route edges="3438 3450 3610 3646 3626 3542"/>
	</vehicle>
	<vehicle depart="0.1" departLane="3" departPos="20.49911061045629" departSpeed="0.0" id="2529" type="passenger">
		<route edges="3705 3426 3438 3450 3664 3525"/>
	</vehicle>
	<vehicle depart="0.1" departLane="1" departPos="19.592035330361615" departSpeed="0.012192" id="2531" type="passenger">
		<route edges="3426 3438 3450 3610 3646 3626 3542"/>
	</vehicle>
	<vehicle depart="0.1" departLane="0" departPos="0" departSpeed="0.0" id="2532" type="passenger">
		<route edges="3632 3652 3616 3456 3462 3468 3713"/>
	</vehicle>
	<vehicle depart="0.1" departLane="3" departPos="0" departSpeed="0.018288" id="2533" type="passenger">
		<route edges="3705 3426 3438 3450 3664 3525"/>
	</vehicle>
	<vehicle depart="0.1" departLane="0" departPos="0" departSpeed="0.079248" id="2536" type="passenger">
		<route edges="3426 3438 3450 3610 3646 3626 3542"/>
	</vehicle>
	<vehicle depart="0.1" departLane="0" departPos="29.397618684004446" departSpeed="0.070104" id="2543" type="passenger">
		<route edges="3705 3426 3438 3450 3610 3646 3626 3542"/>
	</vehicle>
	<vehicle depart="0.1" departLane="1" departPos="0" departSpeed="0.01524" id="2544" type="passenger">
		<route edges="3426 3438 3450 3610 3646 3626 3542"/>
	</vehicle>
	<vehicle depart="0.1" departLane="0" departPos="17.013461658889476" departSpeed="0.024384" id="2546" type="passenger">
		<route edges="3705 3426 3438 3450 3610 3646 3626 3542"/>
	</vehicle>
	<vehicle depart="0.1" departLane="0" departPos="0" departSpeed="0.012192" id="2547" type="passenger">
		<route edges="3670 3640 3517"/>
	</vehicle>
	<vehicle depart="0.1" departLane="1" departPos="0" departSpeed="0.0" id="2551" type="passenger">
		<route edges="3632 3652 3616 3456 3462 3468 3713"/>
	</vehicle>
	<vehicle depart="0.1" departLane="1" departPos="47.08668512312135" departSpeed="0.0" id="2570" type="passenger">
		<route edges="3568 3680 3525"/>
	</vehicle>
	<vehicle depart="0.1" departLane="2" departPos="47.11691666699788" departSpeed="0.027432" id="2574" type="passenger">
		<route edges="3568 3632 3652 3616 3456 3462 3468 3713"/>
	</vehicle>
	<vehicle depart="0.1" departLane="2" departPos="35.83980195536458" departSpeed="0.0" id="2575" type="passenger">
		<route edges="3568 3632 3652 3616 3456 3462 3468 3713"/>
	</vehicle>
	<vehicle depart="0.1" departLane="3" departPos="33.509280371653034" departSpeed="0.0" id="2577" type="passenger">
		<route edges="3568 3632 3652 3616 3456 3462 3468 3713"/>
	</vehicle>
	<vehicle depart="0.1" departLane="1" departPos="32.69638229323194" departSpeed="0.0" id="2580" type="passenger">
		<route edges="3568 3680 3525"/>
	</vehicle>
	<vehicle depart="0.1" departLane="2" departPos="26.778749040538695" departSpeed="0.036576" id="2583" type="passenger">
		<route edges="3568 3632 3652 3616 3456 3462 3468 3713"/>
	</vehicle>
	<vehicle depart="0.1" departLane="4" departPos="0" departSpeed="0.039624" id="2584" type="passenger">
		<route edges="3426 3438 3450 3664 3525"/>
	</vehicle>
	<vehicle depart="0.1" departLane="1" departPos="23.907470456424715" departSpeed="0.024384" id="2586" type="passenger">
		<route edges="3568 3680 3525"/>
	</vehicle>
	<vehicle depart="0.1" departLane="2" departPos="19.2864795938379" departSpeed="0.0" id="2587" type="passenger">
		<route edges="3568 3632 3652 3616 3456 3462 3468 3713"/>
	</vehicle>
	<vehicle depart="0.1" departLane="0" departPos="0" departSpeed="0.0" id="2593" type="passenger">
		<route edges="3705 3426 3438 3450 3610 3646 3626 3542"/>
	</vehicle>
	<vehicle depart="0.1" departLane="2" departPos="51.21503472560581" departSpeed="0.0" id="2596" type="passenger">
		<route edges="3542"/>
	</vehicle>
	<vehicle depart="0.1" departLane="3" departPos="0" departSpeed="0.0" id="2597" type="passenger">
		<route edges="3705 3426 3438 3450 3664 3525"/>
	</vehicle>
	<vehicle depart="0.1" departLane="3" departPos="26.948972066920266" departSpeed="0.064008" id="2600" type="passenger">
		<route edges="3568 3632 3652 3616 3456 3462 3468 3713"/>
	</vehicle>
	<vehicle depart="0.1" departLane="3" departPos="21.004098946264705" departSpeed="0.0" id="2601" type="passenger">
		<route edges="3568 3632 3652 3616 3456 3462 3468 3713"/>
	</vehicle>
	<vehicle depart="0.1" departLane="1" departPos="0" departSpeed="0.0" id="2604" type="passenger">
		<route edges="3568 3680 3525"/>
	</vehicle>
	<vehicle depart="0.1" departLane="3" departPos="0" departSpeed="0.0" id="2606" type="passenger">
		<route edges="3705 3426 3438 3450 3664 3525"/>
	</vehicle>
	<vehicle depart="0.1" departLane="2" departPos="0" departSpeed="0.0" id="2607" type="passenger">
		<route edges="3568 3632 3652 3616 3456 3462 3468 3713"/>
	</vehicle>
	<vehicle depart="0.1" departLane="1" departPos="0" departSpeed="0.0" id="2608" type="passenger">
		<route edges="3568 3680 3525"/>
	</vehicle>
	<vehicle depart="0.1" departLane="3" departPos="0" departSpeed="0.0" id="2609" type="passenger">
		<route edges="3568 3632 3652 3616 3456 3462 3468 3713"/>
	</vehicle>
	<vehicle depart="0.1" departLane="1" departPos="0" departSpeed="0.012192" id="2611" type="passenger">
		<route edges="3568 3680 3525"/>
	</vehicle>
	<vehicle depart="0.1" departLane="2" departPos="0" departSpeed="0.0" id="2612" type="passenger">
		<route edges="3568 3632 3652 3616 3456 3462 3468 3713"/>
	</vehicle>
	<vehicle depart="0.1" departLane="2" departPos="17.458426182080366" departSpeed="0.0" id="2615" type="passenger">
		<route edges="3559 3568 3632 3652 3616 3456 3462 3468 3713"/>
	</vehicle>
	<vehicle depart="0.1" departLane="1" departPos="11.553692560463697" departSpeed="0.30175" id="2616" type="passenger">
		<route edges="3559 3568 3680 3525"/>
	</vehicle>
	<vehicle depart="0.1" departLane="2" departPos="10.327534642870773" departSpeed="0.0" id="2617" type="passenger">
		<route edges="3559 3568 3632 3652 3616 3456 3462 3468 3713"/>
	</vehicle>
	<vehicle depart="0.1" departLane="0" departPos="21.17717187471837" departSpeed="10.5644" id="2618" type="passenger">
		<route edges="3468 3713 3716"/>
	</vehicle>
	<vehicle depart="0.1" departLane="0" departPos="47.2009101887608" departSpeed="7.62" id="2619" type="passenger">
		<route edges="3568 3680 3525"/>
	</vehicle>
	<vehicle depart="0.1" departLane="2" departPos="22.689752539796654" departSpeed="11.6952" id="2621" type="passenger">
		<route edges="3456 3462 3468 3713 3713 3713"/>
	</vehicle>
	<vehicle depart="0.1" departLane="1" departPos="0" departSpeed="0.74981" id="2622" type="passenger">
		<route edges="3559 3568 3680 3525"/>
	</vehicle>
	<vehicle depart="0.1" departLane="3" departPos="17.203053486256756" departSpeed="3.5844" id="2624" type="passenger">
		<route edges="3559 3568 3632 3652 3616 3456 3462 3468 3713"/>
	</vehicle>
	<vehicle depart="0.1" departLane="0" departPos="0" departSpeed="0.051816" id="2625" type="passenger">
		<route edges="3602 3616 3456 3462 3468 3713"/>
	</vehicle>
	<vehicle depart="0.1" departLane="1" departPos="0" departSpeed="10.8234" id="2626" type="passenger">
		<route edges="3456 3462 3468 3713"/>
	</vehicle>
	<vehicle depart="0.1" departLane="1" departPos="0" departSpeed="2.4262" id="2628" type="passenger">
		<route edges="3555 3559 3568 3680 3525"/>
	</vehicle>
	<vehicle depart="0.1" departLane="0" departPos="34.743007649086515" departSpeed="8.571" id="2629" type="passenger">
		<route edges="3672 3616 3456 3456 3462 3468 3713"/>
	</vehicle>
	<vehicle depart="0.1" departLane="2" departPos="6.251526519985051" departSpeed="5.3553" id="2630" type="passenger">
		<route edges="3555 3559 3568 3632 3652 3616 3456 3462 3468 3713"/>
	</vehicle>
	<vehicle depart="0.1" departLane="0" departPos="20.308948025277125" departSpeed="7.4828" id="2631" type="passenger">
		<route edges="3672 3616 3456 3456 3462 3468 3713"/>
	</vehicle>
</routes>
