<!-- generated on Tue Feb  9 22:10:44 2021 by Eclipse SUMO netconvert Version 1.8.0
<configuration xmlns:xsi="http://www.w3.org/2001/XMLSchema-instance" xsi:noNamespaceSchemaLocation="http://sumo.dlr.de/xsd/netconvertConfiguration.xsd">

    <input>
        <node-files value="./converted_scenarios/scenario-factory/ARG_Carcarana-3_3_I-1-1/ARG_Carcarana-3_3_I-1-1.nod.xml"/>
        <edge-files value="./converted_scenarios/scenario-factory/ARG_Carcarana-3_3_I-1-1/ARG_Carcarana-3_3_I-1-1.edg.xml"/>
        <connection-files value="./converted_scenarios/scenario-factory/ARG_Carcarana-3_3_I-1-1/ARG_Carcarana-3_3_I-1-1.con.xml"/>
        <tllogic-files value="./converted_scenarios/scenario-factory/ARG_Carcarana-3_3_I-1-1/ARG_Carcarana-3_3_I-1-1.tll.xml"/>
        <type-files value="/home/zen/commonroad-interactive-benchmarks/install/commonroad-map-tool/crmapconverter/sumo_map/templates/DEU.typ.xml"/>
    </input>

    <output>
        <output-file value="./converted_scenarios/scenario-factory/ARG_Carcarana-3_3_I-1-1/ARG_Carcarana-3_3_I-1-1.net.xml"/>
    </output>

    <processing>
        <geometry.remove.keep-edges.explicit value="true"/>
        <geometry.avoid-overlap value="true"/>
        <offset.disable-normalization value="true"/>
    </processing>

    <junctions>
        <no-turnarounds value="true"/>
        <junctions.internal-link-detail value="20"/>
    </junctions>

    <report>
        <aggregate-warnings value="5"/>
    </report>

    <random_number>
        <seed value="1234"/>
    </random_number>

</configuration>
--><net xmlns:xsi="http://www.w3.org/2001/XMLSchema-instance" version="1.6" junctionCornerDetail="5" junctionLinkDetail="20" limitTurnSpeed="5.50" xsi:noNamespaceSchemaLocation="http://sumo.dlr.de/xsd/net_file.xsd">

    <location netOffset="0.00,0.00" convBoundary="-38.81,-790.30,536.57,-142.35" origBoundary="-38.81,-790.30,536.57,-142.35" projParameter="!"/>

    <type id="highway.bridleway" priority="1" speed="2.78" allow="pedestrian" oneway="1" width="2.00"/>
    <type id="highway.bus_guideway" priority="1" speed="27.78" allow="bus" oneway="1"/>
    <type id="highway.cycleway" priority="1" speed="8.33" allow="bicycle" oneway="0" width="1.00"/>
    <type id="highway.footway" priority="1" speed="2.78" allow="pedestrian" oneway="1" width="2.00"/>
    <type id="highway.ford" priority="1" speed="2.78" allow="army" oneway="0"/>
    <type id="highway.living_street" priority="2" speed="2.78" disallow="tram rail_urban rail rail_electric rail_fast ship" oneway="0"/>
    <type id="highway.motorway" priority="14" speed="39.44" allow="private emergency authority army vip passenger hov taxi bus coach delivery truck trailer motorcycle evehicle custom1 custom2" oneway="1"/>
    <type id="highway.motorway_link" priority="9" speed="22.22" allow="private emergency authority army vip passenger hov taxi bus coach delivery truck trailer motorcycle evehicle custom1 custom2" oneway="1"/>
    <type id="highway.path" priority="1" speed="2.78" allow="pedestrian bicycle" oneway="0" width="2.00"/>
    <type id="highway.pedestrian" priority="1" speed="2.78" allow="pedestrian" oneway="1" width="2.00"/>
    <type id="highway.primary" priority="12" speed="27.78" disallow="pedestrian tram rail_urban rail rail_electric rail_fast ship" oneway="0"/>
    <type id="highway.primary_link" priority="7" speed="22.22" disallow="pedestrian tram rail_urban rail rail_electric rail_fast ship" oneway="0"/>
    <type id="highway.raceway" priority="15" speed="83.33" allow="vip" oneway="0"/>
    <type id="highway.residential" priority="3" speed="13.89" disallow="pedestrian tram rail_urban rail rail_electric rail_fast ship" oneway="0"/>
    <type id="highway.secondary" priority="11" speed="27.78" disallow="pedestrian tram rail_urban rail rail_electric rail_fast ship" oneway="0"/>
    <type id="highway.secondary_link" priority="6" speed="22.22" disallow="pedestrian tram rail_urban rail rail_electric rail_fast ship" oneway="0"/>
    <type id="highway.service" priority="1" speed="5.56" allow="pedestrian delivery bicycle" oneway="0"/>
    <type id="highway.stairs" priority="1" speed="1.39" allow="pedestrian" oneway="1" width="2.00"/>
    <type id="highway.step" priority="1" speed="1.39" allow="pedestrian" oneway="1" width="2.00"/>
    <type id="highway.steps" priority="1" speed="1.39" allow="pedestrian" oneway="1" width="2.00"/>
    <type id="highway.tertiary" priority="10" speed="22.22" disallow="pedestrian tram rail_urban rail rail_electric rail_fast ship" oneway="0"/>
    <type id="highway.tertiary_link" priority="5" speed="22.22" disallow="pedestrian tram rail_urban rail rail_electric rail_fast ship" oneway="0"/>
    <type id="highway.track" priority="1" speed="5.56" allow="pedestrian motorcycle moped bicycle" oneway="0"/>
    <type id="highway.trunk" priority="13" speed="27.78" disallow="pedestrian bicycle tram rail_urban rail rail_electric rail_fast ship" oneway="0"/>
    <type id="highway.trunk_link" priority="8" speed="22.22" disallow="pedestrian bicycle tram rail_urban rail rail_electric rail_fast ship" oneway="0"/>
    <type id="highway.unclassified" priority="4" speed="13.89" disallow="pedestrian tram rail_urban rail rail_electric rail_fast ship" oneway="0"/>
    <type id="highway.unsurfaced" priority="1" speed="8.33" disallow="tram rail_urban rail rail_electric rail_fast ship" oneway="0"/>
    <type id="railway.highspeed" priority="21" speed="69.44" allow="rail_fast" oneway="1"/>
    <type id="railway.light_rail" priority="19" speed="27.78" allow="rail_urban" oneway="1"/>
    <type id="railway.preserved" priority="16" speed="27.78" allow="rail" oneway="1"/>
    <type id="railway.rail" priority="20" speed="44.44" allow="rail" oneway="1"/>
    <type id="railway.subway" priority="18" speed="27.78" allow="rail_urban" oneway="1"/>
    <type id="railway.tram" priority="17" speed="13.89" allow="tram" oneway="1"/>

    <edge id=":140_0" function="internal">
        <lane id=":140_0_0" index="0" disallow="pedestrian tram rail_urban rail rail_electric rail_fast ship" speed="36.11" length="3.00" width="3.50" shape="264.90,-203.15 265.61,-200.24"/>
    </edge>
    <edge id=":157_0" function="internal">
        <lane id=":157_0_0" index="0" disallow="pedestrian tram rail_urban rail rail_electric rail_fast ship" speed="36.11" length="0.10" width="3.50" shape="278.27,-179.48 278.27,-179.48"/>
    </edge>
    <edge id=":158_0" function="internal">
        <lane id=":158_0_0" index="0" disallow="pedestrian tram rail_urban rail rail_electric rail_fast ship" speed="36.11" length="3.00" width="3.50" shape="262.20,-199.43 261.50,-202.35"/>
    </edge>
    <edge id=":177_0" function="internal">
        <lane id=":177_0_0" index="0" disallow="pedestrian tram rail_urban rail rail_electric rail_fast ship" speed="36.11" length="0.10" width="3.50" shape="277.47,-176.07 277.47,-176.07"/>
    </edge>
    <edge id=":189_0" function="internal">
        <lane id=":189_0_0" index="0" disallow="pedestrian tram rail_urban rail rail_electric rail_fast ship" speed="11.15" length="28.54" width="3.50" shape="346.04,-434.26 345.22,-437.45 344.46,-439.51 343.50,-441.49 342.31,-443.34 341.62,-444.19 340.86,-444.99 340.04,-445.72 339.15,-446.37 338.22,-446.95 337.23,-447.44 336.21,-447.84 335.16,-448.16 333.00,-448.57 330.81,-448.70 328.61,-448.59 325.38,-448.10"/>
    </edge>
    <edge id=":189_1" function="internal">
        <lane id=":189_1_0" index="0" disallow="pedestrian tram rail_urban rail rail_electric rail_fast ship" speed="36.11" length="38.77" width="3.50" shape="346.04,-434.26 342.17,-453.25 338.30,-472.25"/>
    </edge>
    <edge id=":189_2" function="internal">
        <lane id=":189_2_0" index="0" disallow="pedestrian tram rail_urban rail rail_electric rail_fast ship" speed="12.26" length="34.55" width="3.50" shape="346.04,-434.26 345.45,-438.20 345.32,-440.85 345.47,-443.50 345.95,-446.11 346.33,-447.39 346.80,-448.62 347.38,-449.82 348.06,-450.96 348.84,-452.04 349.71,-453.04 350.66,-453.97 352.77,-455.59 355.07,-456.91 357.51,-457.96 360.03,-458.78 362.64,-459.42"/>
    </edge>
    <edge id=":189_3" function="internal">
        <lane id=":189_3_0" index="0" disallow="pedestrian tram rail_urban rail rail_electric rail_fast ship" speed="11.27" length="28.99" width="3.50" shape="363.35,-455.99 361.08,-455.44 358.90,-454.73 356.83,-453.84 354.90,-452.74 353.15,-451.38 352.40,-450.65 351.70,-449.84 351.07,-448.98 350.53,-448.06 350.06,-447.10 349.67,-446.09 349.37,-445.08 348.97,-442.89 348.85,-440.65 348.95,-438.39 349.47,-434.95"/>
    </edge>
    <edge id=":189_4" function="internal">
        <lane id=":189_4_0" index="0" disallow="pedestrian tram rail_urban rail rail_electric rail_fast ship" speed="36.11" length="38.78" width="3.50" shape="363.35,-455.99 344.34,-452.04 325.38,-448.10"/>
    </edge>
    <edge id=":189_5" function="internal">
        <lane id=":189_5_0" index="0" disallow="pedestrian tram rail_urban rail rail_electric rail_fast ship" speed="12.19" length="34.30" width="3.50" shape="363.35,-455.99 359.42,-455.38 356.79,-455.23 354.15,-455.36 351.56,-455.80 350.29,-456.16 349.05,-456.62 347.86,-457.18 346.72,-457.85 345.64,-458.61 344.64,-459.46 343.71,-460.40 342.09,-462.47 340.77,-464.75 339.72,-467.18 338.91,-469.68 338.30,-472.25"/>
    </edge>
    <edge id=":189_6" function="internal">
        <lane id=":189_6_0" index="0" disallow="pedestrian tram rail_urban rail rail_electric rail_fast ship" speed="11.18" length="28.70" width="3.50" shape="341.73,-472.95 342.26,-470.72 342.96,-468.56 343.84,-466.51 344.94,-464.61 346.29,-462.89 347.02,-462.16 347.82,-461.48 348.68,-460.87 349.60,-460.34 350.55,-459.89 351.56,-459.52 352.56,-459.23 354.75,-458.86 356.97,-458.76 359.21,-458.88 362.64,-459.42"/>
    </edge>
    <edge id=":189_7" function="internal">
        <lane id=":189_7_0" index="0" disallow="pedestrian tram rail_urban rail rail_electric rail_fast ship" speed="36.11" length="38.78" width="3.50" shape="341.73,-472.95 345.60,-453.95 349.47,-434.95"/>
    </edge>
    <edge id=":189_8" function="internal">
        <lane id=":189_8_0" index="0" disallow="pedestrian tram rail_urban rail rail_electric rail_fast ship" speed="12.17" length="33.99" width="3.50" shape="341.73,-472.95 342.15,-470.45 342.38,-467.91 342.37,-465.32 342.07,-462.71 341.42,-460.17 340.93,-458.88 340.33,-457.66 339.64,-456.50 338.84,-455.40 337.96,-454.38 336.99,-453.44 335.94,-452.57 333.77,-451.13 331.44,-449.96 329.02,-449.06 325.38,-448.10"/>
    </edge>
    <edge id=":189_9" function="internal">
        <lane id=":189_9_0" index="0" disallow="pedestrian tram rail_urban rail rail_electric rail_fast ship" speed="11.16" length="28.43" width="3.50" shape="324.66,-451.52 327.81,-452.35 329.86,-453.12 331.82,-454.10 333.65,-455.30 334.49,-456.00 335.27,-456.77 335.99,-457.60 336.63,-458.48 337.19,-459.42 337.67,-460.41 338.06,-461.43 338.61,-463.55 338.86,-465.72 338.86,-467.91 338.66,-470.09 338.30,-472.25"/>
    </edge>
    <edge id=":189_10" function="internal">
        <lane id=":189_10_0" index="0" disallow="pedestrian tram rail_urban rail rail_electric rail_fast ship" speed="36.11" length="38.79" width="3.50" shape="324.66,-451.52 343.63,-455.46 362.64,-459.42"/>
    </edge>
    <edge id=":189_11" function="internal">
        <lane id=":189_11_0" index="0" disallow="pedestrian tram rail_urban rail rail_electric rail_fast ship" speed="12.16" length="34.16" width="3.50" shape="324.66,-451.52 328.40,-452.09 331.00,-452.22 333.62,-452.07 336.20,-451.59 337.51,-451.19 338.77,-450.69 339.99,-450.09 341.16,-449.37 342.25,-448.56 343.27,-447.66 344.20,-446.68 345.06,-445.62 346.48,-443.42 347.63,-441.07 348.52,-438.64 349.47,-434.95"/>
    </edge>
    <edge id=":190_0" function="internal">
        <lane id=":190_0_0" index="0" disallow="pedestrian tram rail_urban rail rail_electric rail_fast ship" speed="11.22" length="28.84" width="3.50" shape="234.70,-429.25 231.48,-428.41 229.41,-427.63 227.42,-426.64 225.58,-425.41 224.73,-424.69 223.93,-423.92 223.21,-423.07 222.56,-422.17 222.00,-421.22 221.52,-420.21 221.13,-419.18 220.60,-417.02 220.36,-414.82 220.37,-412.60 220.59,-410.39 220.97,-408.21"/>
    </edge>
    <edge id=":190_1" function="internal">
        <lane id=":190_1_0" index="0" disallow="pedestrian tram rail_urban rail rail_electric rail_fast ship" speed="10.69" length="26.03" width="3.50" shape="234.70,-429.25 229.57,-428.36 225.68,-427.98 223.08,-427.94 220.48,-428.12 219.20,-428.32 217.93,-428.63 216.70,-429.05 215.53,-429.62 214.45,-430.35 213.51,-431.25 212.75,-432.30 212.19,-433.47 211.83,-434.73"/>
    </edge>
    <edge id=":190_2" function="internal">
        <lane id=":190_2_0" index="0" disallow="pedestrian tram rail_urban rail rail_electric rail_fast ship" speed="9.56" length="20.59" width="3.50" shape="215.24,-435.50 215.46,-434.69 215.83,-433.97 216.36,-433.34 217.04,-432.81 217.84,-432.38 218.74,-432.04 219.71,-431.79 220.72,-431.61 221.76,-431.49 223.95,-431.41 226.16,-431.51 229.51,-431.88 233.98,-432.68"/>
    </edge>
    <edge id=":190_3" function="internal">
        <lane id=":190_3_0" index="0" disallow="pedestrian tram rail_urban rail rail_electric rail_fast ship" speed="36.11" length="27.89" width="3.50" shape="215.24,-435.50 218.11,-421.82 220.97,-408.21"/>
    </edge>
    <edge id=":190_4" function="internal">
        <lane id=":190_4_0" index="0" disallow="pedestrian tram rail_urban rail rail_electric rail_fast ship" speed="36.11" length="27.83" width="3.50" shape="217.54,-407.49 214.68,-421.11 211.83,-434.73"/>
    </edge>
    <edge id=":190_5" function="internal">
        <lane id=":190_5_0" index="0" disallow="pedestrian tram rail_urban rail rail_electric rail_fast ship" speed="12.22" length="34.42" width="3.50" shape="217.54,-407.49 217.10,-410.01 216.85,-412.58 216.84,-415.20 217.13,-417.84 217.77,-420.42 218.26,-421.72 218.85,-422.96 219.55,-424.14 220.35,-425.26 221.24,-426.30 222.21,-427.25 223.27,-428.14 225.47,-429.60 227.83,-430.78 230.28,-431.70 233.98,-432.68"/>
    </edge>
    <edge id=":191_0" function="internal">
        <lane id=":191_0_0" index="0" disallow="pedestrian tram rail_urban rail rail_electric rail_fast ship" speed="9.64" length="20.89" width="3.50" shape="211.77,-434.97 211.45,-435.96 210.93,-436.86 210.21,-437.62 209.35,-438.21 208.41,-438.66 207.42,-438.99 206.40,-439.22 205.36,-439.36 203.28,-439.49 201.19,-439.43 198.07,-439.14 194.97,-438.66 192.91,-438.26"/>
    </edge>
    <edge id=":191_1" function="internal">
        <lane id=":191_1_0" index="0" disallow="pedestrian tram rail_urban rail rail_electric rail_fast ship" speed="36.11" length="28.09" width="3.50" shape="211.77,-434.97 208.89,-448.70 206.00,-462.46"/>
    </edge>
    <edge id=":191_2" function="internal">
        <lane id=":191_2_0" index="0" disallow="pedestrian tram rail_urban rail rail_electric rail_fast ship" speed="36.11" length="28.04" width="3.50" shape="209.43,-463.18 212.32,-449.42 215.19,-435.74"/>
    </edge>
    <edge id=":191_3" function="internal">
        <lane id=":191_3_0" index="0" disallow="pedestrian tram rail_urban rail rail_electric rail_fast ship" speed="12.19" length="34.34" width="3.50" shape="209.43,-463.18 210.04,-459.24 210.18,-456.60 210.03,-453.97 209.56,-451.38 209.18,-450.11 208.70,-448.88 208.11,-447.70 207.43,-446.57 206.65,-445.51 205.77,-444.52 204.82,-443.61 202.72,-442.01 200.42,-440.72 197.99,-439.68 195.48,-438.88 192.91,-438.26"/>
    </edge>
    <edge id=":191_4" function="internal">
        <lane id=":191_4_0" index="0" disallow="pedestrian tram rail_urban rail rail_electric rail_fast ship" speed="11.19" length="28.74" width="3.50" shape="192.20,-441.69 194.44,-442.23 196.61,-442.92 198.68,-443.79 200.60,-444.87 202.35,-446.20 203.10,-446.92 203.80,-447.72 204.42,-448.56 204.97,-449.47 205.44,-450.42 205.83,-451.41 206.13,-452.41 206.53,-454.58 206.65,-456.79 206.54,-459.03 206.00,-462.46"/>
    </edge>
    <edge id=":191_5" function="internal">
        <lane id=":191_5_0" index="0" disallow="pedestrian tram rail_urban rail rail_electric rail_fast ship" speed="10.74" length="26.27" width="3.50" shape="192.20,-441.69 194.60,-442.14 198.21,-442.67 201.88,-442.94 204.41,-442.90 206.93,-442.62 208.24,-442.33 209.52,-441.92 210.79,-441.36 212.00,-440.60 213.11,-439.64 214.04,-438.47 214.74,-437.14 215.19,-435.74"/>
    </edge>
    <edge id=":192_0" function="internal">
        <lane id=":192_0_0" index="0" disallow="pedestrian tram rail_urban rail rail_electric rail_fast ship" speed="11.24" length="28.84" width="3.50" shape="228.94,-353.76 228.07,-356.97 227.27,-359.05 226.27,-361.03 225.03,-362.87 224.31,-363.72 223.53,-364.51 222.69,-365.23 221.79,-365.88 220.83,-366.44 219.83,-366.92 218.79,-367.31 216.63,-367.85 214.43,-368.09 212.21,-368.08 209.99,-367.86 207.84,-367.48"/>
    </edge>
    <edge id=":192_1" function="internal">
        <lane id=":192_1_0" index="0" disallow="pedestrian tram rail_urban rail rail_electric rail_fast ship" speed="36.11" length="38.86" width="3.50" shape="228.94,-353.76 224.89,-372.77 220.84,-391.77"/>
    </edge>
    <edge id=":192_2" function="internal">
        <lane id=":192_2_0" index="0" disallow="pedestrian tram rail_urban rail rail_electric rail_fast ship" speed="36.11" length="38.81" width="3.50" shape="224.27,-392.49 228.31,-373.50 232.35,-354.53"/>
    </edge>
    <edge id=":192_3" function="internal">
        <lane id=":192_3_0" index="0" disallow="pedestrian tram rail_urban rail rail_electric rail_fast ship" speed="12.20" length="34.21" width="3.50" shape="224.27,-392.49 224.70,-389.98 224.95,-387.42 224.95,-384.81 224.64,-382.18 223.99,-379.62 223.49,-378.33 222.89,-377.10 222.19,-375.93 221.38,-374.83 220.49,-373.80 219.52,-372.86 218.45,-371.99 216.27,-370.54 213.92,-369.37 211.49,-368.45 207.84,-367.48"/>
    </edge>
    <edge id=":192_4" function="internal">
        <lane id=":192_4_0" index="0" disallow="pedestrian tram rail_urban rail rail_electric rail_fast ship" speed="11.20" length="28.65" width="3.50" shape="207.10,-370.90 210.28,-371.75 212.34,-372.52 214.32,-373.51 216.15,-374.72 217.01,-375.42 217.80,-376.19 218.52,-377.02 219.17,-377.91 219.74,-378.86 220.23,-379.85 220.63,-380.88 221.18,-383.01 221.43,-385.20 221.43,-387.41 221.22,-389.60 220.84,-391.77"/>
    </edge>
    <edge id=":192_5" function="internal">
        <lane id=":192_5_0" index="0" disallow="pedestrian tram rail_urban rail rail_electric rail_fast ship" speed="12.24" length="34.39" width="3.50" shape="207.10,-370.90 209.61,-371.34 212.18,-371.59 214.80,-371.61 217.44,-371.32 220.02,-370.68 221.33,-370.19 222.56,-369.60 223.75,-368.90 224.86,-368.10 225.90,-367.21 226.86,-366.25 227.75,-365.19 229.23,-363.00 230.42,-360.65 231.35,-358.20 232.35,-354.53"/>
    </edge>
    <edge id=":193_0" function="internal">
        <lane id=":193_0_0" index="0" disallow="pedestrian tram rail_urban rail rail_electric rail_fast ship" speed="11.21" length="28.78" width="3.50" shape="199.32,-494.30 198.77,-496.55 198.07,-498.72 197.19,-500.78 196.10,-502.70 194.77,-504.45 194.04,-505.20 193.25,-505.90 192.40,-506.53 191.50,-507.08 190.55,-507.55 189.55,-507.94 188.56,-508.24 186.38,-508.65 184.17,-508.77 181.93,-508.65 178.49,-508.11"/>
    </edge>
    <edge id=":193_1" function="internal">
        <lane id=":193_1_0" index="0" disallow="pedestrian tram rail_urban rail rail_electric rail_fast ship" speed="36.11" length="37.63" width="3.50" shape="199.32,-494.30 195.46,-512.71 191.59,-531.13"/>
    </edge>
    <edge id=":193_2" function="internal">
        <lane id=":193_2_0" index="0" disallow="pedestrian tram rail_urban rail rail_electric rail_fast ship" speed="36.11" length="37.63" width="3.50" shape="195.01,-531.86 198.88,-513.43 202.74,-495.03"/>
    </edge>
    <edge id=":193_3" function="internal">
        <lane id=":193_3_0" index="0" disallow="pedestrian tram rail_urban rail rail_electric rail_fast ship" speed="12.01" length="33.19" width="3.50" shape="195.01,-531.86 195.46,-529.21 195.68,-526.57 195.60,-523.92 195.18,-521.31 194.82,-520.03 194.36,-518.79 193.78,-517.60 193.10,-516.46 192.32,-515.40 191.44,-514.40 190.48,-513.49 188.37,-511.89 186.06,-510.60 183.62,-509.56 181.10,-508.75 178.49,-508.11"/>
    </edge>
    <edge id=":193_4" function="internal">
        <lane id=":193_4_0" index="0" disallow="pedestrian tram rail_urban rail rail_electric rail_fast ship" speed="10.97" length="27.59" width="3.50" shape="177.77,-511.54 180.04,-512.09 182.22,-512.79 184.29,-513.66 186.22,-514.74 187.98,-516.06 188.73,-516.77 189.44,-517.56 190.06,-518.41 190.61,-519.31 191.07,-520.25 191.45,-521.24 191.73,-522.23 192.09,-524.41 192.16,-526.62 191.98,-528.86 191.59,-531.13"/>
    </edge>
    <edge id=":193_5" function="internal">
        <lane id=":193_5_0" index="0" disallow="pedestrian tram rail_urban rail rail_electric rail_fast ship" speed="12.21" length="34.35" width="3.50" shape="177.77,-511.54 181.72,-512.15 184.35,-512.29 186.99,-512.14 189.58,-511.67 190.85,-511.29 192.08,-510.81 193.26,-510.22 194.39,-509.54 195.45,-508.75 196.44,-507.88 197.36,-506.93 198.95,-504.83 200.26,-502.54 201.30,-500.11 202.11,-497.60 202.74,-495.03"/>
    </edge>
    <edge id=":194_0" function="internal">
        <lane id=":194_0_0" index="0" disallow="pedestrian tram rail_urban rail rail_electric rail_fast ship" speed="36.11" length="38.82" width="3.50" shape="92.80,-399.75 89.46,-415.16 84.89,-437.75"/>
    </edge>
    <edge id=":194_1" function="internal">
        <lane id=":194_1_0" index="0" disallow="pedestrian tram rail_urban rail rail_electric rail_fast ship" speed="12.08" length="34.02" width="3.50" shape="92.80,-399.75 92.14,-403.65 91.97,-406.26 92.07,-408.87 92.50,-411.45 92.85,-412.71 93.31,-413.93 93.87,-415.11 94.53,-416.24 95.29,-417.31 96.14,-418.30 97.07,-419.21 99.14,-420.81 101.41,-422.11 103.82,-423.14 106.30,-423.94 108.85,-424.55"/>
    </edge>
    <edge id=":194_2" function="internal">
        <lane id=":194_2_0" index="0" disallow="pedestrian tram rail_urban rail rail_electric rail_fast ship" speed="11.07" length="28.37" width="3.50" shape="109.55,-421.12 107.34,-420.59 105.21,-419.90 103.17,-419.03 101.28,-417.96 99.57,-416.63 98.84,-415.92 98.16,-415.13 97.56,-414.28 97.03,-413.38 96.59,-412.44 96.22,-411.45 95.94,-410.46 95.58,-408.31 95.50,-406.12 95.64,-403.91 96.22,-400.51"/>
    </edge>
    <edge id=":194_3" function="internal">
        <lane id=":194_3_0" index="0" disallow="pedestrian tram rail_urban rail rail_electric rail_fast ship" speed="12.12" length="34.10" width="3.50" shape="109.55,-421.12 105.79,-420.56 103.20,-420.44 100.59,-420.59 98.01,-421.08 96.70,-421.48 95.44,-421.98 94.22,-422.60 93.07,-423.31 91.98,-424.13 90.97,-425.04 90.04,-426.02 89.19,-427.10 87.79,-429.30 86.67,-431.66 85.80,-434.10 84.89,-437.75"/>
    </edge>
    <edge id=":194_4" function="internal">
        <lane id=":194_4_0" index="0" disallow="pedestrian tram rail_urban rail rail_electric rail_fast ship" speed="11.12" length="28.51" width="3.50" shape="88.32,-438.45 89.11,-435.26 89.85,-433.19 90.79,-431.21 91.96,-429.36 92.65,-428.50 93.39,-427.70 94.21,-426.96 95.08,-426.30 96.02,-425.73 97.00,-425.23 98.01,-424.82 99.06,-424.50 101.21,-424.09 103.40,-423.96 105.59,-424.06 108.85,-424.55"/>
    </edge>
    <edge id=":194_5" function="internal">
        <lane id=":194_5_0" index="0" disallow="pedestrian tram rail_urban rail rail_electric rail_fast ship" speed="36.11" length="38.75" width="3.50" shape="88.32,-438.45 92.89,-415.88 96.22,-400.51"/>
    </edge>
    <edge id=":195_0" function="internal">
        <lane id=":195_0_0" index="0" disallow="pedestrian tram rail_urban rail rail_electric rail_fast ship" speed="11.16" length="28.58" width="3.50" shape="108.41,-328.48 107.56,-331.66 106.78,-333.71 105.79,-335.68 104.56,-337.50 103.84,-338.33 103.06,-339.11 102.22,-339.82 101.32,-340.44 100.36,-340.99 99.37,-341.45 98.33,-341.83 96.19,-342.34 94.01,-342.56 91.81,-342.54 89.62,-342.31 87.45,-341.93"/>
    </edge>
    <edge id=":195_1" function="internal">
        <lane id=":195_1_0" index="0" disallow="pedestrian tram rail_urban rail rail_electric rail_fast ship" speed="36.11" length="38.74" width="3.50" shape="108.41,-328.48 107.34,-333.59 100.24,-366.35"/>
    </edge>
    <edge id=":195_2" function="internal">
        <lane id=":195_2_0" index="0" disallow="pedestrian tram rail_urban rail rail_electric rail_fast ship" speed="12.16" length="33.98" width="3.50" shape="108.41,-328.48 107.98,-330.96 107.73,-333.51 107.73,-336.09 108.02,-338.70 108.66,-341.25 109.14,-342.53 109.72,-343.75 110.41,-344.92 111.20,-346.03 112.08,-347.05 113.04,-348.00 114.09,-348.88 116.26,-350.33 118.58,-351.50 121.00,-352.42 124.63,-353.39"/>
    </edge>
    <edge id=":195_3" function="internal">
        <lane id=":195_3_0" index="0" disallow="pedestrian tram rail_urban rail rail_electric rail_fast ship" speed="11.16" length="28.40" width="3.50" shape="125.37,-349.97 122.21,-349.13 120.17,-348.35 118.21,-347.37 116.40,-346.15 115.56,-345.44 114.78,-344.68 114.07,-343.84 113.43,-342.95 112.88,-342.01 112.40,-341.03 112.02,-340.00 111.48,-337.88 111.24,-335.71 111.25,-333.52 111.46,-331.34 111.83,-329.21"/>
    </edge>
    <edge id=":195_4" function="internal">
        <lane id=":195_4_0" index="0" disallow="pedestrian tram rail_urban rail rail_electric rail_fast ship" speed="36.11" length="38.76" width="3.50" shape="125.37,-349.97 106.42,-345.95 87.45,-341.93"/>
    </edge>
    <edge id=":195_5" function="internal">
        <lane id=":195_5_0" index="0" disallow="pedestrian tram rail_urban rail rail_electric rail_fast ship" speed="12.24" length="34.24" width="3.50" shape="125.37,-349.97 122.87,-349.53 120.31,-349.29 117.70,-349.28 115.07,-349.58 112.51,-350.24 111.21,-350.73 109.99,-351.33 108.81,-352.03 107.71,-352.83 106.68,-353.72 105.73,-354.68 104.85,-355.74 103.39,-357.91 102.20,-360.25 101.26,-362.67 100.24,-366.35"/>
    </edge>
    <edge id=":195_6" function="internal">
        <lane id=":195_6_0" index="0" disallow="pedestrian tram rail_urban rail rail_electric rail_fast ship" speed="11.24" length="28.67" width="3.50" shape="103.66,-367.11 104.54,-363.92 105.34,-361.86 106.34,-359.89 107.57,-358.06 108.28,-357.21 109.05,-356.42 109.89,-355.70 110.78,-355.05 111.73,-354.48 112.72,-354.00 113.75,-353.60 115.89,-353.05 118.08,-352.80 120.29,-352.80 122.48,-353.02 124.63,-353.39"/>
    </edge>
    <edge id=":195_7" function="internal">
        <lane id=":195_7_0" index="0" disallow="pedestrian tram rail_urban rail rail_electric rail_fast ship" speed="36.11" length="38.77" width="3.50" shape="103.66,-367.11 110.76,-334.31 111.83,-329.21"/>
    </edge>
    <edge id=":195_8" function="internal">
        <lane id=":195_8_0" index="0" disallow="pedestrian tram rail_urban rail rail_electric rail_fast ship" speed="12.18" length="34.44" width="3.50" shape="103.66,-367.11 104.32,-363.19 104.49,-360.55 104.39,-357.90 103.96,-355.29 103.60,-354.01 103.14,-352.77 102.58,-351.57 101.91,-350.43 101.15,-349.35 100.29,-348.34 99.35,-347.41 97.26,-345.78 94.97,-344.45 92.54,-343.39 90.02,-342.56 87.45,-341.93"/>
    </edge>
    <edge id=":195_9" function="internal">
        <lane id=":195_9_0" index="0" disallow="pedestrian tram rail_urban rail rail_electric rail_fast ship" speed="11.18" length="28.81" width="3.50" shape="86.73,-345.35 88.96,-345.90 91.13,-346.62 93.19,-347.51 95.11,-348.62 96.84,-349.97 97.58,-350.71 98.27,-351.52 98.88,-352.38 99.41,-353.29 99.86,-354.25 100.24,-355.26 100.52,-356.27 100.88,-358.46 100.97,-360.69 100.82,-362.93 100.24,-366.35"/>
    </edge>
    <edge id=":195_10" function="internal">
        <lane id=":195_10_0" index="0" disallow="pedestrian tram rail_urban rail rail_electric rail_fast ship" speed="36.11" length="38.74" width="3.50" shape="86.73,-345.35 105.69,-349.38 124.63,-353.39"/>
    </edge>
    <edge id=":195_11" function="internal">
        <lane id=":195_11_0" index="0" disallow="pedestrian tram rail_urban rail rail_electric rail_fast ship" speed="12.16" length="34.16" width="3.50" shape="86.73,-345.35 89.23,-345.79 91.78,-346.05 94.37,-346.08 96.99,-345.81 99.56,-345.20 100.86,-344.73 102.09,-344.16 103.27,-343.48 104.39,-342.69 105.43,-341.82 106.39,-340.86 107.28,-339.81 108.75,-337.64 109.94,-335.30 110.86,-332.87 111.83,-329.21"/>
    </edge>
    <edge id=":196_0" function="internal">
        <lane id=":196_0_0" index="0" disallow="pedestrian tram rail_urban rail rail_electric rail_fast ship" speed="36.11" length="38.55" width="3.50" shape="243.95,-283.44 239.97,-302.31 235.99,-321.16"/>
    </edge>
    <edge id=":196_1" function="internal">
        <lane id=":196_1_0" index="0" disallow="pedestrian tram rail_urban rail rail_electric rail_fast ship" speed="12.21" length="34.23" width="3.50" shape="243.95,-283.44 243.52,-285.95 243.28,-288.51 243.27,-291.11 243.55,-293.73 244.17,-296.30 244.65,-297.60 245.22,-298.83 245.91,-300.02 246.69,-301.14 247.57,-302.18 248.52,-303.14 249.58,-304.04 251.75,-305.51 254.10,-306.70 256.53,-307.63 260.19,-308.61"/>
    </edge>
    <edge id=":196_2" function="internal">
        <lane id=":196_2_0" index="0" disallow="pedestrian tram rail_urban rail rail_electric rail_fast ship" speed="11.21" length="28.67" width="3.50" shape="260.92,-305.19 257.75,-304.34 255.68,-303.55 253.71,-302.55 251.89,-301.31 251.05,-300.59 250.27,-299.81 249.56,-298.97 248.93,-298.06 248.38,-297.10 247.92,-296.10 247.53,-295.07 247.01,-292.92 246.78,-290.73 246.80,-288.52 247.01,-286.32 247.38,-284.15"/>
    </edge>
    <edge id=":196_3" function="internal">
        <lane id=":196_3_0" index="0" disallow="pedestrian tram rail_urban rail rail_electric rail_fast ship" speed="12.15" length="33.81" width="3.50" shape="260.92,-305.19 258.46,-304.76 255.94,-304.51 253.36,-304.49 250.77,-304.76 248.23,-305.37 246.94,-305.84 245.72,-306.41 244.55,-307.08 243.45,-307.85 242.41,-308.71 241.46,-309.65 240.57,-310.69 239.10,-312.83 237.91,-315.14 236.98,-317.55 235.99,-321.16"/>