<routes>
	<vehicle depart="0.1" departLane="0" departPos="16.315884983801446" departSpeed="7.6411498" id="32" type="passenger">
		<route edges=":199_4 6273 5487"/>
	</vehicle>
	<vehicle depart="0.1" departLane="0" departPos="11.906841637109949" departSpeed="8.404397" id="319" type="passenger">
		<route edges="6274 6277"/>
	</vehicle>
	<vehicle depart="0.1" departLane="0" departPos="20.721443461901803" departSpeed="8.0388051" id="326" type="passenger">
		<route edges=":199_3 6063 6040"/>
	</vehicle>
	<vehicle depart="0.1" departLane="0" departPos="33.62962530316092" departSpeed="12.643918" id="329" type="passenger">
		<route edges=":202_5 6274 6277 6280"/>
	</vehicle>
	<vehicle depart="0.1" departLane="0" departPos="70.75008220102544" departSpeed="7.4677391" id="352" type="passenger">
		<route edges="6276 6063"/>
	</vehicle>
	<vehicle depart="0.1" departLane="0" departPos="9.89452974594941" departSpeed="7.4221152" id="354" type="motorcycle">
		<route edges=":199_10 6277 6280"/>
	</vehicle>
</routes>
