<!-- generated on Tue Feb  9 22:17:07 2021 by Eclipse SUMO netconvert Version 1.8.0
<configuration xmlns:xsi="http://www.w3.org/2001/XMLSchema-instance" xsi:noNamespaceSchemaLocation="http://sumo.dlr.de/xsd/netconvertConfiguration.xsd">

    <input>
        <node-files value="./converted_scenarios/scenario-factory/DEU_Rheinbach-1_2_I-1-1/DEU_Rheinbach-1_2_I-1-1.nod.xml"/>
        <edge-files value="./converted_scenarios/scenario-factory/DEU_Rheinbach-1_2_I-1-1/DEU_Rheinbach-1_2_I-1-1.edg.xml"/>
        <connection-files value="./converted_scenarios/scenario-factory/DEU_Rheinbach-1_2_I-1-1/DEU_Rheinbach-1_2_I-1-1.con.xml"/>
        <tllogic-files value="./converted_scenarios/scenario-factory/DEU_Rheinbach-1_2_I-1-1/DEU_Rheinbach-1_2_I-1-1.tll.xml"/>
        <type-files value="/home/zen/commonroad-interactive-benchmarks/install/commonroad-map-tool/crmapconverter/sumo_map/templates/DEU.typ.xml"/>
    </input>

    <output>
        <output-file value="./converted_scenarios/scenario-factory/DEU_Rheinbach-1_2_I-1-1/DEU_Rheinbach-1_2_I-1-1.net.xml"/>
    </output>

    <processing>
        <geometry.remove.keep-edges.explicit value="true"/>
        <geometry.avoid-overlap value="true"/>
        <offset.disable-normalization value="true"/>
    </processing>

    <junctions>
        <no-turnarounds value="true"/>
        <junctions.internal-link-detail value="20"/>
    </junctions>

    <report>
        <aggregate-warnings value="5"/>
    </report>

    <random_number>
        <seed value="1234"/>
    </random_number>

</configuration>
--><net xmlns:xsi="http://www.w3.org/2001/XMLSchema-instance" version="1.6" junctionCornerDetail="5" junctionLinkDetail="20" limitTurnSpeed="5.50" xsi:noNamespaceSchemaLocation="http://sumo.dlr.de/xsd/net_file.xsd">

    <location netOffset="0.00,0.00" convBoundary="-667.82,795.81,-563.27,969.16" origBoundary="-667.82,795.81,-563.27,969.97" projParameter="!"/>

    <type id="highway.bridleway" priority="1" speed="2.78" allow="pedestrian" oneway="1" width="2.00"/>
    <type id="highway.bus_guideway" priority="1" speed="27.78" allow="bus" oneway="1"/>
    <type id="highway.cycleway" priority="1" speed="8.33" allow="bicycle" oneway="0" width="1.00"/>
    <type id="highway.footway" priority="1" speed="2.78" allow="pedestrian" oneway="1" width="2.00"/>
    <type id="highway.ford" priority="1" speed="2.78" allow="army" oneway="0"/>
    <type id="highway.living_street" priority="2" speed="2.78" disallow="tram rail_urban rail rail_electric rail_fast ship" oneway="0"/>
    <type id="highway.motorway" priority="14" speed="39.44" allow="private emergency authority army vip passenger hov taxi bus coach delivery truck trailer motorcycle evehicle custom1 custom2" oneway="1"/>
    <type id="highway.motorway_link" priority="9" speed="22.22" allow="private emergency authority army vip passenger hov taxi bus coach delivery truck trailer motorcycle evehicle custom1 custom2" oneway="1"/>
    <type id="highway.path" priority="1" speed="2.78" allow="pedestrian bicycle" oneway="0" width="2.00"/>
    <type id="highway.pedestrian" priority="1" speed="2.78" allow="pedestrian" oneway="1" width="2.00"/>
    <type id="highway.primary" priority="12" speed="27.78" disallow="pedestrian tram rail_urban rail rail_electric rail_fast ship" oneway="0"/>
    <type id="highway.primary_link" priority="7" speed="22.22" disallow="pedestrian tram rail_urban rail rail_electric rail_fast ship" oneway="0"/>
    <type id="highway.raceway" priority="15" speed="83.33" allow="vip" oneway="0"/>
    <type id="highway.residential" priority="3" speed="13.89" disallow="pedestrian tram rail_urban rail rail_electric rail_fast ship" oneway="0"/>
    <type id="highway.secondary" priority="11" speed="27.78" disallow="pedestrian tram rail_urban rail rail_electric rail_fast ship" oneway="0"/>
    <type id="highway.secondary_link" priority="6" speed="22.22" disallow="pedestrian tram rail_urban rail rail_electric rail_fast ship" oneway="0"/>
    <type id="highway.service" priority="1" speed="5.56" allow="pedestrian delivery bicycle" oneway="0"/>
    <type id="highway.stairs" priority="1" speed="1.39" allow="pedestrian" oneway="1" width="2.00"/>
    <type id="highway.step" priority="1" speed="1.39" allow="pedestrian" oneway="1" width="2.00"/>
    <type id="highway.steps" priority="1" speed="1.39" allow="pedestrian" oneway="1" width="2.00"/>
    <type id="highway.tertiary" priority="10" speed="22.22" disallow="pedestrian tram rail_urban rail rail_electric rail_fast ship" oneway="0"/>
    <type id="highway.tertiary_link" priority="5" speed="22.22" disallow="pedestrian tram rail_urban rail rail_electric rail_fast ship" oneway="0"/>
    <type id="highway.track" priority="1" speed="5.56" allow="pedestrian motorcycle moped bicycle" oneway="0"/>
    <type id="highway.trunk" priority="13" speed="27.78" disallow="pedestrian bicycle tram rail_urban rail rail_electric rail_fast ship" oneway="0"/>
    <type id="highway.trunk_link" priority="8" speed="22.22" disallow="pedestrian bicycle tram rail_urban rail rail_electric rail_fast ship" oneway="0"/>
    <type id="highway.unclassified" priority="4" speed="13.89" disallow="pedestrian tram rail_urban rail rail_electric rail_fast ship" oneway="0"/>
    <type id="highway.unsurfaced" priority="1" speed="8.33" disallow="tram rail_urban rail rail_electric rail_fast ship" oneway="0"/>
    <type id="railway.highspeed" priority="21" speed="69.44" allow="rail_fast" oneway="1"/>
    <type id="railway.light_rail" priority="19" speed="27.78" allow="rail_urban" oneway="1"/>
    <type id="railway.preserved" priority="16" speed="27.78" allow="rail" oneway="1"/>
    <type id="railway.rail" priority="20" speed="44.44" allow="rail" oneway="1"/>
    <type id="railway.subway" priority="18" speed="27.78" allow="rail_urban" oneway="1"/>
    <type id="railway.tram" priority="17" speed="13.89" allow="tram" oneway="1"/>

    <edge id=":1_0" function="internal">
        <lane id=":1_0_0" index="0" disallow="pedestrian tram rail_urban rail rail_electric rail_fast ship" speed="36.11" length="2.99" width="3.50" shape="-607.35,854.24 -605.66,851.77"/>
    </edge>
    <edge id=":7_0" function="internal">
        <lane id=":7_0_0" index="0" disallow="pedestrian tram rail_urban rail rail_electric rail_fast ship" speed="36.11" length="0.25" width="3.50" shape="-638.76,903.16 -638.65,902.94"/>
    </edge>
    <edge id=":9_0" function="internal">
        <lane id=":9_0_0" index="0" disallow="pedestrian tram rail_urban rail rail_electric rail_fast ship" speed="36.11" length="7.45" width="3.50" shape="-617.62,876.65 -618.38,877.86 -619.08,879.03 -619.80,880.22 -621.39,883.07"/>
        <lane id=":9_0_1" index="1" disallow="pedestrian tram rail_urban rail rail_electric rail_fast ship" speed="36.11" length="7.45" width="3.50" shape="-617.62,876.65 -618.38,877.86 -619.08,879.03 -619.80,880.22 -621.54,882.99"/>
    </edge>

    <edge id="32756" from="9" to="4" priority="3" type="highway.residential" spreadType="center" length="95.63">
        <lane id="32756_0" index="0" disallow="pedestrian tram rail_urban rail rail_electric rail_fast ship" speed="36.11" length="95.63" width="3.50" customShape="1" shape="-620.48,883.54 -634.16,909.43 -639.60,920.15 -647.02,936.04 -654.51,953.00 -661.56,969.83"/>
        <lane id="32756_1" index="1" disallow="pedestrian tram rail_urban rail rail_electric rail_fast ship" speed="36.11" length="95.94" width="3.50" customShape="1" shape="-623.58,881.91 -637.27,907.83 -642.75,918.62 -650.20,934.58 -657.72,951.61 -664.79,968.48"/>
    </edge>
    <edge id="32758" from="8" to="7" priority="3" type="highway.residential" spreadType="center" length="69.88">
        <lane id="32758_0" index="0" disallow="pedestrian tram rail_urban rail rail_electric rail_fast ship" speed="36.11" length="69.88" width="3.50" customShape="1" shape="-667.82,966.68 -660.91,950.17 -653.36,933.06 -645.86,917.02 -640.36,906.19 -638.76,903.16"/>
    </edge>
    <edge id="32962" from="6" to="9" priority="3" type="highway.residential" spreadType="center" length="95.79">
        <lane id="32962_0" index="0" disallow="pedestrian tram rail_urban rail rail_electric rail_fast ship" speed="36.11" length="95.79" width="3.50" customShape="1" shape="-563.27,797.79 -571.55,808.87 -582.33,823.98 -618.22,876.24"/>
    </edge>
    <edge id="32963" from="1" to="2" priority="3" type="highway.residential" spreadType="center" length="68.50">
        <lane id="32963_0" index="0" disallow="pedestrian tram rail_urban rail rail_electric rail_fast ship" speed="36.11" length="68.50" width="3.50" customShape="1" shape="-605.66,851.77 -585.18,821.95 -574.37,806.80 -566.16,795.81"/>
    </edge>
    <edge id="34544" from="7" to="1" priority="3" type="highway.residential" spreadType="center" length="57.91">
        <lane id="34544_0" index="0" disallow="pedestrian tram rail_urban rail rail_electric rail_fast ship" speed="36.11" length="57.91" width="3.50" customShape="1" shape="-638.65,902.94 -636.11,898.50 -632.11,892.34 -625.02,881.96 -622.80,878.41 -622.08,877.22 -621.37,876.04 -614.68,865.30 -607.35,854.24"/>
    </edge>

    <junction id="1" type="priority" x="-606.51" y="853.00" incLanes="34544_0" intLanes=":1_0_0" shape="-604.21,852.76 -607.10,850.78 -608.79,853.26 -605.90,855.23" rightOfWay="edgePriority">
        <request index="0" response="0" foes="0" cont="0"/>
    </junction>
    <junction id="2" type="dead_end" x="-566.16" y="795.81" incLanes="32963_0" intLanes="" shape="-567.56,794.76 -564.76,796.86" rightOfWay="edgePriority"/>
    <junction id="4" type="dead_end" x="-663.17" y="969.16" incLanes="32756_0 32756_1" intLanes="" shape="-659.94,970.51 -666.40,967.81" rightOfWay="edgePriority"/>
    <junction id="6" type="dead_end" x="-563.27" y="797.79" incLanes="" intLanes="" shape="-564.67,796.74 -561.87,798.84" rightOfWay="edgePriority"/>
    <junction id="7" type="priority" x="-638.71" y="903.05" incLanes="32758_0" intLanes=":7_0_0" shape="-637.13,903.81 -640.17,902.08 -640.31,902.34 -637.22,903.98" rightOfWay="edgePriority">
        <request index="0" response="0" foes="0" cont="0"/>
    </junction>
    <junction id="8" type="dead_end" x="-667.82" y="966.68" incLanes="" intLanes="" shape="-666.21,967.36 -669.44,966.00" rightOfWay="edgePriority"/>
    <junction id="9" type="priority" x="-618.85" y="880.25" incLanes="32962_0" intLanes=":9_0_0 :9_0_1" shape="-616.77,877.23 -619.66,875.25 -621.67,877.45 -622.54,878.08 -623.39,878.74 -624.24,879.67 -625.13,881.10 -618.93,884.35 -618.07,881.73 -617.99,880.71 -617.88,879.71 -617.54,878.59">
        <request index="0" response="00" foes="00" cont="0"/>
        <request index="1" response="00" foes="00" cont="0"/>
    </junction>

    <connection from="32758" to="34544" fromLane="0" toLane="0" contPos="-4.00" via=":7_0_0" dir="s" state="M"/>
    <connection from="32962" to="32756" fromLane="0" toLane="0" contPos="-4.00" shape="-603.62,854.98 -604.20,855.84 -611.73,867.19 -618.38,877.86 -619.08,879.03 -619.80,880.22 -622.52,885.11 -625.61,891.55 -630.68,902.69 -632.52,906.33" via=":9_0_0" dir="s" state="M"/>
    <connection from="32962" to="32756" fromLane="0" toLane="1" contPos="-4.00" shape="-603.62,854.98 -604.20,855.84 -611.73,867.19 -618.38,877.86 -619.08,879.03 -619.80,880.22 -622.05,883.81 -629.13,894.17 -633.08,900.24 -635.63,904.71" via=":9_0_1" dir="s" state="M"/>
    <connection from="34544" to="32963" fromLane="0" toLane="0" contPos="-4.00" via=":1_0_0" dir="s" state="M"/>

    <connection from=":1_0" to="32963" fromLane="0" toLane="0" dir="s" state="M"/>
    <connection from=":7_0" to="34544" fromLane="0" toLane="0" dir="s" state="M"/>
    <connection from=":9_0" to="32756" fromLane="0" toLane="0" dir="s" state="M"/>
    <connection from=":9_0" to="32756" fromLane="1" toLane="1" dir="s" state="M"/>

</net>