<routes>
	<vehicle depart="0.1" departLane="0" departPos="30.79565666008078" departSpeed="6.8992925" id="317" type="bicycle">
		<route edges="34544 32963"/>
	</vehicle>
	<vehicle depart="0.1" departLane="0" departPos="22.14345102033206" departSpeed="18.180269" id="323" type="passenger">
		<route edges="34544 32963"/>
	</vehicle>
	<vehicle depart="0.1" departLane="0" departPos="65.65351820178662" departSpeed="15.420158" id="326" type="passenger">
		<route edges="32758 34544 32963"/>
	</vehicle>
	<vehicle depart="0.1" departLane="0" departPos="42.144601609807836" departSpeed="11.832342" id="328" type="passenger">
		<route edges="32758 34544 32963"/>
	</vehicle>
	<vehicle depart="0.1" departLane="0" departPos="53.66766829129106" departSpeed="13.997116" id="329" type="passenger">
		<route edges="32962 32756"/>
	</vehicle>
	<vehicle depart="0.1" departLane="0" departPos="9.84104848412144" departSpeed="8.8869701" id="330" type="passenger">
		<route edges="32962 32756"/>
	</vehicle>
	<vehicle depart="0.1" departLane="0" departPos="24.800683139695376" departSpeed="9.1958612" id="331" type="passenger">
		<route edges="32758 34544"/>
	</vehicle>
	<vehicle depart="0.1" departLane="1" departPos="21.813848753558798" departSpeed="12.66446" id="325" type="truck">
		<route edges=":9_0 32756"/>
	</vehicle>
</routes>
