<routes>
	<vehicle depart="0.1" departLane="0" departPos="34.23179022504466" departSpeed="4.7542186" id="1" type="passenger">
		<route edges="50201 50213 50197"/>
	</vehicle>
	<vehicle depart="0.1" departLane="0" departPos="71.64473895748975" departSpeed="3.7856916" id="2" type="passenger">
		<route edges="50195 50211 50199"/>
	</vehicle>
	<vehicle depart="0.1" departLane="0" departPos="129.4637379661521" departSpeed="3.2673729" id="4" type="passenger">
		<route edges="50205 50207 50197"/>
	</vehicle>
	<vehicle depart="0.1" departLane="0" departPos="137.46390607473924" departSpeed="6.6035643" id="5" type="passenger">
		<route edges="50205 50217 50199"/>
	</vehicle>
	<vehicle depart="0.1" departLane="0" departPos="26.22844999487999" departSpeed="2.3294592" id="7" type="passenger">
		<route edges="50201 50213 50197"/>
	</vehicle>
</routes>
