<routes>
	<vehicle depart="0.1" departLane="0" departPos="28.191145225115896" departSpeed="8.1405827" id="1" type="passenger">
		<route edges="50201 50213 50197"/>
	</vehicle>
	<vehicle depart="0.1" departLane="0" departPos="120.8946705710245" departSpeed="0.62660104" id="2" type="passenger">
		<route edges="50195 50211 50199"/>
	</vehicle>
	<vehicle depart="0.1" departLane="0" departPos="147.39860594348445" departSpeed="1.3869128" id="4" type="passenger">
		<route edges="50205 50207 50197"/>
	</vehicle>
	<vehicle depart="0.1" departLane="0" departPos="155.39876746881697" departSpeed="3.3313862" id="5" type="passenger">
		<route edges="50205 50217 50199"/>
	</vehicle>
	<vehicle depart="0.1" departLane="0" departPos="20.18817026180186" departSpeed="3.7720885" id="7" type="passenger">
		<route edges="50201 50213 50197"/>
	</vehicle>
</routes>
