<!-- generated on Tue Feb  9 22:09:49 2021 by Eclipse SUMO netconvert Version 1.8.0
<configuration xmlns:xsi="http://www.w3.org/2001/XMLSchema-instance" xsi:noNamespaceSchemaLocation="http://sumo.dlr.de/xsd/netconvertConfiguration.xsd">

    <input>
        <node-files value="./converted_scenarios/scenario-factory/ITA_Empoli-4_1_I-1-1/ITA_Empoli-4_1_I-1-1.nod.xml"/>
        <edge-files value="./converted_scenarios/scenario-factory/ITA_Empoli-4_1_I-1-1/ITA_Empoli-4_1_I-1-1.edg.xml"/>
        <connection-files value="./converted_scenarios/scenario-factory/ITA_Empoli-4_1_I-1-1/ITA_Empoli-4_1_I-1-1.con.xml"/>
        <tllogic-files value="./converted_scenarios/scenario-factory/ITA_Empoli-4_1_I-1-1/ITA_Empoli-4_1_I-1-1.tll.xml"/>
        <type-files value="/home/zen/commonroad-interactive-benchmarks/install/commonroad-map-tool/crmapconverter/sumo_map/templates/DEU.typ.xml"/>
    </input>

    <output>
        <output-file value="./converted_scenarios/scenario-factory/ITA_Empoli-4_1_I-1-1/ITA_Empoli-4_1_I-1-1.net.xml"/>
    </output>

    <processing>
        <geometry.remove.keep-edges.explicit value="true"/>
        <geometry.avoid-overlap value="true"/>
        <offset.disable-normalization value="true"/>
    </processing>

    <junctions>
        <no-turnarounds value="true"/>
        <junctions.internal-link-detail value="20"/>
    </junctions>

    <report>
        <aggregate-warnings value="5"/>
    </report>

    <random_number>
        <seed value="1234"/>
    </random_number>

</configuration>
--><net xmlns:xsi="http://www.w3.org/2001/XMLSchema-instance" version="1.6" junctionCornerDetail="5" junctionLinkDetail="20" limitTurnSpeed="5.50" xsi:noNamespaceSchemaLocation="http://sumo.dlr.de/xsd/net_file.xsd">

    <location netOffset="0.00,0.00" convBoundary="244.77,-664.49,372.24,-554.19" origBoundary="232.11,-677.46,372.24,-554.19" projParameter="!"/>

    <type id="highway.bridleway" priority="1" speed="2.78" allow="pedestrian" oneway="1" width="2.00"/>
    <type id="highway.bus_guideway" priority="1" speed="27.78" allow="bus" oneway="1"/>
    <type id="highway.cycleway" priority="1" speed="8.33" allow="bicycle" oneway="0" width="1.00"/>
    <type id="highway.footway" priority="1" speed="2.78" allow="pedestrian" oneway="1" width="2.00"/>
    <type id="highway.ford" priority="1" speed="2.78" allow="army" oneway="0"/>
    <type id="highway.living_street" priority="2" speed="2.78" disallow="tram rail_urban rail rail_electric rail_fast ship" oneway="0"/>
    <type id="highway.motorway" priority="14" speed="39.44" allow="private emergency authority army vip passenger hov taxi bus coach delivery truck trailer motorcycle evehicle custom1 custom2" oneway="1"/>
    <type id="highway.motorway_link" priority="9" speed="22.22" allow="private emergency authority army vip passenger hov taxi bus coach delivery truck trailer motorcycle evehicle custom1 custom2" oneway="1"/>
    <type id="highway.path" priority="1" speed="2.78" allow="pedestrian bicycle" oneway="0" width="2.00"/>
    <type id="highway.pedestrian" priority="1" speed="2.78" allow="pedestrian" oneway="1" width="2.00"/>
    <type id="highway.primary" priority="12" speed="27.78" disallow="pedestrian tram rail_urban rail rail_electric rail_fast ship" oneway="0"/>
    <type id="highway.primary_link" priority="7" speed="22.22" disallow="pedestrian tram rail_urban rail rail_electric rail_fast ship" oneway="0"/>
    <type id="highway.raceway" priority="15" speed="83.33" allow="vip" oneway="0"/>
    <type id="highway.residential" priority="3" speed="13.89" disallow="pedestrian tram rail_urban rail rail_electric rail_fast ship" oneway="0"/>
    <type id="highway.secondary" priority="11" speed="27.78" disallow="pedestrian tram rail_urban rail rail_electric rail_fast ship" oneway="0"/>
    <type id="highway.secondary_link" priority="6" speed="22.22" disallow="pedestrian tram rail_urban rail rail_electric rail_fast ship" oneway="0"/>
    <type id="highway.service" priority="1" speed="5.56" allow="pedestrian delivery bicycle" oneway="0"/>
    <type id="highway.stairs" priority="1" speed="1.39" allow="pedestrian" oneway="1" width="2.00"/>
    <type id="highway.step" priority="1" speed="1.39" allow="pedestrian" oneway="1" width="2.00"/>
    <type id="highway.steps" priority="1" speed="1.39" allow="pedestrian" oneway="1" width="2.00"/>
    <type id="highway.tertiary" priority="10" speed="22.22" disallow="pedestrian tram rail_urban rail rail_electric rail_fast ship" oneway="0"/>
    <type id="highway.tertiary_link" priority="5" speed="22.22" disallow="pedestrian tram rail_urban rail rail_electric rail_fast ship" oneway="0"/>
    <type id="highway.track" priority="1" speed="5.56" allow="pedestrian motorcycle moped bicycle" oneway="0"/>
    <type id="highway.trunk" priority="13" speed="27.78" disallow="pedestrian bicycle tram rail_urban rail rail_electric rail_fast ship" oneway="0"/>
    <type id="highway.trunk_link" priority="8" speed="22.22" disallow="pedestrian bicycle tram rail_urban rail rail_electric rail_fast ship" oneway="0"/>
    <type id="highway.unclassified" priority="4" speed="13.89" disallow="pedestrian tram rail_urban rail rail_electric rail_fast ship" oneway="0"/>
    <type id="highway.unsurfaced" priority="1" speed="8.33" disallow="tram rail_urban rail rail_electric rail_fast ship" oneway="0"/>
    <type id="railway.highspeed" priority="21" speed="69.44" allow="rail_fast" oneway="1"/>
    <type id="railway.light_rail" priority="19" speed="27.78" allow="rail_urban" oneway="1"/>
    <type id="railway.preserved" priority="16" speed="27.78" allow="rail" oneway="1"/>
    <type id="railway.rail" priority="20" speed="44.44" allow="rail" oneway="1"/>
    <type id="railway.subway" priority="18" speed="27.78" allow="rail_urban" oneway="1"/>
    <type id="railway.tram" priority="17" speed="13.89" allow="tram" oneway="1"/>

    <edge id=":45_0" function="internal">
        <lane id=":45_0_0" index="0" disallow="pedestrian tram rail_urban rail rail_electric rail_fast ship" speed="11.46" length="30.67" width="3.50" shape="336.28,-572.33 333.71,-571.70 331.08,-571.41 329.67,-571.43 328.29,-571.59 326.93,-571.89 325.60,-572.33 324.33,-572.92 323.13,-573.64 322.02,-574.47 321.01,-575.39 320.09,-576.38 319.24,-577.45 317.83,-579.63 316.66,-581.94 315.69,-584.31 314.54,-587.90"/>
    </edge>
    <edge id=":45_1" function="internal">
        <lane id=":45_1_0" index="0" disallow="pedestrian tram rail_urban rail rail_electric rail_fast ship" speed="10.36" length="24.98" width="3.50" shape="317.91,-588.83 318.90,-585.73 319.71,-583.71 320.68,-581.77 321.83,-579.93 322.49,-579.06 323.21,-578.25 324.00,-577.50 324.85,-576.83 325.76,-576.24 326.73,-575.76 327.75,-575.38 328.81,-575.12 329.88,-574.98 330.97,-574.94 333.13,-575.15 335.24,-575.67"/>
    </edge>
    <edge id=":45_2" function="internal">
        <lane id=":45_2_0" index="0" disallow="pedestrian tram rail_urban rail rail_electric rail_fast ship" speed="11.67" length="31.49" width="3.50" shape="317.91,-588.83 318.80,-585.00 319.17,-582.40 319.33,-579.78 319.20,-577.16 318.72,-574.58 318.33,-573.33 317.83,-572.12 317.21,-570.96 316.49,-569.86 315.65,-568.85 314.73,-567.92 313.72,-567.08 312.64,-566.33 310.33,-565.09 307.88,-564.16 306.62,-563.79"/>
    </edge>
    <edge id=":45_3" function="internal">
        <lane id=":45_3_0" index="0" disallow="pedestrian tram rail_urban rail rail_electric rail_fast ship" speed="10.64" length="25.89" width="3.50" shape="305.70,-567.17 306.75,-567.47 308.80,-568.26 310.70,-569.30 311.53,-569.88 312.31,-570.55 313.02,-571.29 313.66,-572.09 314.21,-572.95 314.67,-573.86 315.05,-574.82 315.34,-575.80 315.71,-577.94 315.79,-580.12 315.65,-582.33 315.32,-584.55 314.54,-587.90"/>
    </edge>
    <edge id=":46_0" function="internal">
        <lane id=":46_0_0" index="0" disallow="pedestrian tram rail_urban rail rail_electric rail_fast ship" speed="12.26" length="32.60" width="3.50" shape="329.16,-649.34 328.24,-652.55 326.84,-656.77 325.17,-660.87 323.72,-663.79 322.03,-666.55 320.76,-668.21 319.36,-669.72 317.77,-671.01 316.98,-671.51 316.12,-671.96 315.23,-672.31 314.32,-672.56 313.39,-672.71 312.44,-672.77 311.48,-672.73 310.46,-672.59"/>
    </edge>
    <edge id=":46_1" function="internal">
        <lane id=":46_1_0" index="0" disallow="pedestrian tram rail_urban rail rail_electric rail_fast ship" speed="11.42" length="48.70" width="3.50" shape="329.16,-649.34 328.72,-651.05 327.57,-656.15 326.99,-659.65 326.65,-663.19 326.60,-665.02 326.67,-666.87 326.91,-668.76 327.39,-670.66 328.24,-672.55 329.56,-674.25 331.34,-675.54 333.38,-676.26 335.44,-676.47 337.41,-676.33 339.27,-675.97 341.05,-675.46 342.78,-674.83 346.04,-673.39 350.67,-670.87"/>
    </edge>
    <edge id=":46_2" function="internal">
        <lane id=":46_2_0" index="0" disallow="pedestrian tram rail_urban rail rail_electric rail_fast ship" speed="10.29" length="39.17" width="3.50" shape="348.81,-667.90 344.92,-670.01 342.15,-671.22 340.73,-671.73 339.27,-672.13 337.78,-672.40 336.28,-672.48 334.78,-672.29 333.38,-671.73 332.22,-670.78 331.37,-669.53 330.82,-668.13 330.49,-666.65 330.33,-665.15 330.29,-663.64 330.34,-662.13 330.65,-659.12 331.16,-656.14 332.16,-651.72 332.54,-650.25"/>
    </edge>
    <edge id=":46_3" function="internal">
        <lane id=":46_3_0" index="0" disallow="pedestrian tram rail_urban rail rail_electric rail_fast ship" speed="21.30" length="39.48" width="3.50" shape="348.81,-667.90 346.27,-669.28 343.52,-670.52 340.70,-671.56 336.81,-672.64 332.84,-673.39 328.81,-673.82 324.74,-673.96 320.67,-673.85 315.57,-673.38 310.46,-672.59"/>
    </edge>
    <edge id=":46_4" function="internal">
        <lane id=":46_4_0" index="0" disallow="pedestrian tram rail_urban rail rail_electric rail_fast ship" speed="22.07" length="42.08" width="3.50" shape="309.82,-676.03 315.20,-676.86 320.57,-677.35 324.88,-677.46 329.19,-677.30 333.48,-676.83 337.71,-676.02 341.86,-674.86 344.90,-673.74 347.85,-672.41 350.67,-670.87"/>
    </edge>
    <edge id=":46_5" function="internal">
        <lane id=":46_5_0" index="0" disallow="pedestrian tram rail_urban rail rail_electric rail_fast ship" speed="13.20" length="37.84" width="3.50" shape="309.82,-676.03 311.08,-676.21 312.30,-676.28 313.52,-676.24 314.72,-676.07 315.91,-675.79 317.06,-675.40 318.17,-674.89 319.23,-674.28 321.18,-672.82 322.90,-671.10 324.43,-669.21 326.41,-666.13 328.09,-662.89 329.97,-658.39 331.53,-653.77 332.54,-650.25"/>
    </edge>
    <edge id=":47_0" function="internal">
        <lane id=":47_0_0" index="0" disallow="pedestrian tram rail_urban rail rail_electric rail_fast ship" speed="11.41" length="28.83" width="3.29" shape="267.10,-642.74 266.13,-645.78 265.30,-647.75 264.31,-649.65 263.13,-651.43 261.75,-653.06 260.15,-654.48 258.35,-655.63 256.40,-656.50 254.34,-657.06 252.22,-657.33 250.08,-657.36 247.95,-657.18 245.85,-656.83"/>
    </edge>
    <edge id=":47_1" function="internal">
        <lane id=":47_1_0" index="0" disallow="pedestrian tram rail_urban rail rail_electric rail_fast ship" speed="11.74" length="31.20" width="3.50" shape="267.10,-642.74 266.52,-645.13 265.93,-648.76 265.76,-651.29 265.85,-653.84 266.26,-656.37 266.61,-657.67 267.07,-658.91 267.64,-660.12 268.33,-661.28 269.13,-662.36 270.03,-663.37 271.01,-664.28 272.06,-665.09 273.19,-665.82 275.48,-666.97 278.11,-667.90"/>
    </edge>
    <edge id=":47_2" function="internal">
        <lane id=":47_2_0" index="0" disallow="pedestrian tram rail_urban rail rail_electric rail_fast ship" speed="10.72" length="25.74" width="3.50" shape="279.13,-664.55 276.89,-663.76 275.00,-662.79 274.11,-662.20 273.28,-661.54 272.51,-660.81 271.82,-660.00 271.21,-659.13 270.69,-658.20 270.25,-657.23 269.91,-656.23 269.64,-655.20 269.34,-653.09 269.30,-650.97 269.45,-648.85 269.98,-645.70 270.47,-643.66"/>
    </edge>
    <edge id=":47_3" function="internal">
        <lane id=":47_3_0" index="0" disallow="pedestrian tram rail_urban rail rail_electric rail_fast ship" speed="36.11" length="34.17" width="3.29" shape="279.13,-664.55 270.69,-662.30 257.25,-659.23 245.85,-656.83"/>
    </edge>
    <edge id=":47_4" function="internal">
        <lane id=":47_4_0" index="0" disallow="pedestrian tram rail_urban rail rail_electric rail_fast ship" speed="36.11" length="33.91" width="3.50" shape="245.08,-660.25 256.48,-662.64 269.81,-665.68 278.11,-667.90"/>
    </edge>
    <edge id=":47_5" function="internal">
        <lane id=":47_5_0" index="0" disallow="pedestrian tram rail_urban rail rail_electric rail_fast ship" speed="12.40" length="34.24" width="3.50" shape="245.08,-660.25 247.57,-660.67 250.06,-660.88 252.58,-660.85 255.12,-660.52 257.62,-659.85 260.01,-658.81 262.21,-657.41 264.15,-655.70 265.83,-653.75 267.23,-651.64 268.40,-649.42 269.36,-647.13 270.47,-643.66"/>
    </edge>
    <edge id=":48_0" function="internal">
        <lane id=":48_0_0" index="0" disallow="pedestrian tram rail_urban rail rail_electric rail_fast ship" speed="10.59" length="25.91" width="3.50" shape="297.15,-650.87 296.17,-653.96 295.37,-655.97 294.43,-657.91 293.31,-659.76 291.98,-661.45 291.22,-662.23 290.41,-662.93 289.53,-663.56 288.60,-664.10 287.61,-664.54 286.58,-664.88 285.53,-665.11 284.46,-665.23 283.38,-665.25 281.23,-665.04 279.13,-664.55"/>
    </edge>
    <edge id=":48_1" function="internal">
        <lane id=":48_1_0" index="0" disallow="pedestrian tram rail_urban rail rail_electric rail_fast ship" speed="11.57" length="32.76" width="3.50" shape="297.15,-650.87 296.23,-654.87 295.84,-657.57 295.68,-660.30 295.84,-663.03 296.05,-664.37 296.38,-665.70 296.82,-666.99 297.39,-668.24 298.08,-669.41 298.90,-670.50 299.83,-671.50 300.87,-672.39 301.98,-673.18 303.16,-673.87 305.67,-674.95 308.29,-675.71 309.61,-675.99"/>
    </edge>
    <edge id=":48_2" function="internal">
        <lane id=":48_2_0" index="0" disallow="pedestrian tram rail_urban rail rail_electric rail_fast ship" speed="10.53" length="26.87" width="3.50" shape="310.27,-672.55 309.16,-672.32 306.96,-671.68 304.89,-670.77 303.99,-670.23 303.12,-669.60 302.33,-668.89 301.62,-668.11 301.01,-667.26 300.49,-666.34 300.07,-665.37 299.73,-664.34 299.49,-663.28 299.33,-662.20 299.22,-659.91 299.37,-657.60 299.71,-655.29 300.52,-651.81"/>
    </edge>
    <edge id=":48_3" function="internal">
        <lane id=":48_3_0" index="0" disallow="pedestrian tram rail_urban rail rail_electric rail_fast ship" speed="36.11" length="32.16" width="3.50" shape="310.27,-672.55 303.16,-671.05 293.10,-668.52 279.13,-664.55"/>
    </edge>
    <edge id=":48_4" function="internal">
        <lane id=":48_4_0" index="0" disallow="pedestrian tram rail_urban rail rail_electric rail_fast ship" speed="36.11" length="32.51" width="3.50" shape="278.14,-667.90 292.23,-671.91 302.40,-674.47 309.61,-675.99"/>
    </edge>
    <edge id=":48_5" function="internal">
        <lane id=":48_5_0" index="0" disallow="pedestrian tram rail_urban rail rail_electric rail_fast ship" speed="11.66" length="31.54" width="3.50" shape="278.14,-667.90 280.66,-668.50 283.26,-668.78 284.64,-668.77 285.99,-668.64 287.33,-668.38 288.65,-667.99 289.93,-667.46 291.14,-666.80 292.27,-666.03 293.31,-665.17 294.29,-664.21 295.93,-662.19 297.31,-659.99 298.44,-657.71 299.39,-655.36 300.52,-651.81"/>
    </edge>
    <edge id=":49_0" function="internal">
        <lane id=":49_0_0" index="0" disallow="pedestrian tram rail_urban rail rail_electric rail_fast ship" speed="11.68" length="31.22" width="3.50" shape="306.42,-563.74 303.84,-563.18 301.25,-562.94 299.95,-562.95 298.66,-563.06 297.38,-563.29 296.13,-563.63 294.91,-564.09 293.75,-564.67 292.65,-565.36 291.61,-566.14 290.65,-567.02 288.96,-568.98 287.53,-571.16 286.35,-573.47 284.93,-577.10 284.19,-579.59"/>
    </edge>
    <edge id=":49_1" function="internal">
        <lane id=":49_1_0" index="0" disallow="pedestrian tram rail_urban rail rail_electric rail_fast ship" speed="10.61" length="25.65" width="3.50" shape="287.56,-580.51 288.21,-578.34 289.43,-575.18 290.41,-573.23 291.58,-571.41 292.96,-569.77 293.70,-569.08 294.50,-568.45 295.35,-567.90 296.25,-567.43 297.18,-567.06 298.15,-566.78 299.16,-566.59 300.18,-566.48 301.20,-566.46 303.35,-566.66 305.51,-567.12"/>
    </edge>
    <edge id=":49_2" function="internal">
        <lane id=":49_2_0" index="0" disallow="pedestrian tram rail_urban rail rail_electric rail_fast ship" speed="11.71" length="31.40" width="3.42" shape="287.56,-580.51 287.88,-579.27 288.58,-575.61 288.82,-573.07 288.82,-570.49 288.51,-567.92 288.20,-566.59 287.79,-565.31 287.26,-564.07 286.61,-562.87 285.84,-561.74 284.97,-560.69 284.01,-559.73 282.94,-558.85 280.73,-557.44 278.35,-556.36 275.93,-555.57"/>
    </edge>
    <edge id=":49_3" function="internal">
        <lane id=":49_3_0" index="0" disallow="pedestrian tram rail_urban rail rail_electric rail_fast ship" speed="10.66" length="25.85" width="3.50" shape="274.99,-558.95 277.04,-559.61 279.00,-560.51 280.80,-561.68 281.62,-562.38 282.37,-563.15 283.05,-563.99 283.63,-564.90 284.13,-565.85 284.53,-566.85 284.84,-567.88 285.07,-568.93 285.31,-571.07 285.29,-573.23 285.07,-575.37 284.45,-578.54 284.19,-579.59"/>
    </edge>
    <edge id=":50_0" function="internal">
        <lane id=":50_0_0" index="0" disallow="pedestrian tram rail_urban rail rail_electric rail_fast ship" speed="11.15" length="41.31" width="3.50" shape="368.86,-588.83 366.55,-586.36 364.09,-584.16 362.76,-583.18 361.35,-582.32 359.86,-581.61 358.29,-581.12 356.66,-580.91 355.02,-581.04 353.44,-581.52 352.00,-582.31 350.70,-583.33 349.56,-584.52 348.54,-585.82 347.63,-587.20 346.06,-590.10 344.75,-593.13 343.12,-597.80 342.20,-600.97"/>
    </edge>
    <edge id=":50_1" function="internal">
        <lane id=":50_1_0" index="0" disallow="pedestrian tram rail_urban rail rail_electric rail_fast ship" speed="10.01" length="33.10" width="3.07" shape="345.58,-601.88 346.38,-599.12 347.79,-595.04 348.89,-592.44 350.20,-589.96 350.92,-588.84 351.71,-587.77 352.58,-586.82 353.51,-586.02 354.50,-585.41 355.54,-585.03 356.61,-584.88 357.72,-584.97 358.85,-585.28 359.99,-585.77 361.10,-586.43 362.16,-587.19 364.25,-589.02 366.20,-591.11"/>
    </edge>
    <edge id=":50_2" function="internal">
        <lane id=":50_2_0" index="0" disallow="pedestrian tram rail_urban rail rail_electric rail_fast ship" speed="12.46" length="34.54" width="3.50" shape="345.58,-601.88 346.18,-599.52 346.90,-595.94 347.38,-592.29 347.52,-588.57 347.36,-586.03 346.91,-583.50 346.14,-581.04 345.59,-579.80 344.93,-578.63 344.16,-577.52 343.29,-576.49 342.31,-575.55 341.26,-574.72 340.13,-573.99 338.93,-573.35 336.55,-572.42"/>
    </edge>
    <edge id=":50_3" function="internal">
        <lane id=":50_3_0" index="0" disallow="pedestrian tram rail_urban rail rail_electric rail_fast ship" speed="11.45" length="29.19" width="3.50" shape="335.47,-575.74 337.48,-576.54 338.43,-577.06 339.32,-577.67 340.15,-578.36 340.91,-579.14 341.57,-579.99 342.15,-580.90 342.64,-581.86 343.05,-582.87 343.62,-584.95 343.93,-587.09 344.02,-589.25 343.85,-592.49 343.39,-595.70 342.74,-598.88 342.20,-600.97"/>
    </edge>

    <edge id="1413" from="47" to="49" priority="3" type="highway.residential" spreadType="center" length="65.43" shape="265.91,-656.44 290.79,-568.02">
        <lane id="1413_0" index="0" disallow="pedestrian tram rail_urban rail rail_electric rail_fast ship" speed="36.11" length="65.43" width="3.50" customShape="1" shape="270.47,-643.66 279.02,-612.07 287.56,-580.50"/>
    </edge>
    <edge id="1414" from="49" to="47" priority="3" type="highway.residential" spreadType="center" length="65.43" shape="287.42,-567.07 262.54,-655.49">
        <lane id="1414_0" index="0" disallow="pedestrian tram rail_urban rail rail_electric rail_fast ship" speed="36.11" length="65.43" width="3.50" customShape="1" shape="284.19,-579.59 275.64,-611.15 267.10,-642.75"/>
    </edge>
    <edge id="1731" from="48" to="45" priority="3" type="highway.residential" spreadType="center" length="65.34" shape="297.49,-664.43 321.06,-576.40">
        <lane id="1731_0" index="0" disallow="pedestrian tram rail_urban rail rail_electric rail_fast ship" speed="36.11" length="65.34" width="3.50" customShape="1" shape="300.52,-651.81 309.22,-620.32 317.91,-588.83"/>
    </edge>
    <edge id="1732" from="45" to="48" priority="3" type="highway.residential" spreadType="center" length="65.34" shape="317.68,-575.49 294.11,-663.53">
        <lane id="1732_0" index="0" disallow="pedestrian tram rail_urban rail rail_electric rail_fast ship" speed="36.11" length="65.34" width="3.50" customShape="1" shape="314.54,-587.90 305.84,-619.39 297.15,-650.88"/>
    </edge>
    <edge id="1767" from="46" to="50" priority="3" type="highway.residential" spreadType="center" length="50.10" shape="331.97,-664.91 350.84,-588.87">
        <lane id="1767_0" index="0" disallow="pedestrian tram rail_urban rail rail_electric rail_fast ship" speed="36.11" length="50.10" width="3.50" customShape="1" shape="332.54,-650.25 339.06,-626.07 345.58,-601.88"/>
    </edge>
    <edge id="1768" from="50" to="46" priority="3" type="highway.residential" spreadType="center" length="50.10" shape="347.45,-588.02 328.57,-664.07">
        <lane id="1768_0" index="0" disallow="pedestrian tram rail_urban rail rail_electric rail_fast ship" speed="36.11" length="50.10" width="3.50" customShape="1" shape="342.20,-600.97 335.68,-625.16 329.16,-649.34"/>
    </edge>
    <edge id="1886" from="46" to="26" priority="3" type="highway.residential" spreadType="center" length="60.72" shape="331.62,-665.61 371.12,-615.38">
        <lane id="1886_0" index="0" disallow="pedestrian tram rail_urban rail rail_electric rail_fast ship" speed="36.11" length="60.72" width="3.50" customShape="1" shape="350.67,-670.87 352.01,-670.04 354.07,-668.46 355.90,-666.63 357.46,-664.56 359.57,-660.99 361.37,-657.25 363.05,-652.89 364.54,-647.92 365.93,-641.85 368.06,-629.58 369.61,-621.43 371.12,-615.38"/>
    </edge>
    <edge id="1887" from="34" to="46" priority="3" type="highway.residential" spreadType="center" length="58.09" shape="367.74,-614.48 328.87,-663.44">
        <lane id="1887_0" index="0" disallow="pedestrian tram rail_urban rail rail_electric rail_fast ship" speed="36.11" length="58.09" width="3.50" customShape="1" shape="367.74,-614.48 366.24,-620.45 364.70,-628.49 362.63,-640.47 361.34,-646.32 359.97,-651.07 358.43,-655.23 356.77,-658.77 354.84,-662.17 353.50,-664.04 351.93,-665.69 350.09,-667.11 348.82,-667.91"/>
    </edge>
    <edge id="1889" from="48" to="46" priority="3" type="highway.residential" spreadType="center" length="0.26" shape="295.69,-665.69 330.24,-666.24">
        <lane id="1889_0" index="0" disallow="pedestrian tram rail_urban rail rail_electric rail_fast ship" speed="36.11" length="0.26" width="3.50" customShape="1" shape="309.61,-675.99 309.75,-676.02 309.87,-676.04"/>
    </edge>
    <edge id="1890" from="46" to="48" priority="3" type="highway.residential" spreadType="center" length="0.21" shape="330.30,-662.74 295.75,-662.20">
        <lane id="1890_0" index="0" disallow="pedestrian tram rail_urban rail rail_electric rail_fast ship" speed="36.11" length="0.21" width="3.50" customShape="1" shape="310.46,-672.59 310.25,-672.55"/>
    </edge>
    <edge id="1892" from="47" to="48" priority="3" type="highway.residential" spreadType="center" length="0.10" shape="263.79,-657.66 295.47,-665.67">
        <lane id="1892_0" index="0" disallow="pedestrian tram rail_urban rail rail_electric rail_fast ship" speed="36.11" length="0.10" width="3.50" customShape="1" shape="278.11,-667.90 278.21,-667.92"/>
    </edge>
    <edge id="1893" from="48" to="47" priority="3" type="highway.residential" spreadType="center" length="0.10" shape="296.33,-662.28 264.65,-654.27">
        <lane id="1893_0" index="0" disallow="pedestrian tram rail_urban rail rail_electric rail_fast ship" speed="36.11" length="0.10" width="3.50" customShape="1" shape="279.23,-664.58 279.13,-664.55"/>
    </edge>
    <edge id="1895" from="33" to="47" priority="3" type="highway.residential" spreadType="center" length="70.00" shape="244.77,-601.14 262.57,-656.55">
        <lane id="1895_0" index="0" disallow="pedestrian tram rail_urban rail rail_electric rail_fast ship" speed="36.11" length="70.00" width="3.50" customShape="1" shape="244.77,-601.14 243.74,-604.64 239.79,-619.27 236.74,-631.97 234.19,-644.25 233.13,-647.75 232.40,-650.26 232.11,-652.32 232.19,-653.89 232.59,-655.40 233.34,-656.77 234.05,-657.53 234.94,-658.08 235.42,-658.28 235.92,-658.43 238.51,-658.79 245.15,-660.26"/>
    </edge>
    <edge id="1896" from="47" to="14" priority="3" type="highway.residential" spreadType="center" length="70.00" shape="265.82,-655.57 249.67,-596.85">
        <lane id="1896_0" index="0" disallow="pedestrian tram rail_urban rail rail_electric rail_fast ship" speed="36.11" length="70.00" width="3.29" customShape="1" shape="245.85,-656.83 239.35,-655.38 236.84,-655.05 236.66,-655.01 236.69,-655.23 236.24,-654.83 235.98,-654.33 235.78,-653.24 235.81,-652.01 236.02,-650.71 236.48,-648.85 237.13,-646.48 237.98,-643.07 240.53,-631.10 243.52,-618.82 247.38,-604.66 249.67,-596.85"/>
    </edge>
    <edge id="1920" from="49" to="41" priority="3" type="highway.residential" spreadType="center" length="5.27" shape="290.10,-566.20 270.84,-554.19">
        <lane id="1920_0" index="0" disallow="pedestrian tram rail_urban rail rail_electric rail_fast ship" speed="36.11" length="5.27" width="3.42" customShape="1" shape="275.93,-555.57 275.78,-555.53 275.66,-555.50 270.84,-554.19"/>
    </edge>
    <edge id="1921" from="43" to="49" priority="3" type="highway.residential" spreadType="center" length="5.23" shape="269.96,-557.54 288.28,-569.13">
        <lane id="1921_0" index="0" disallow="pedestrian tram rail_urban rail rail_electric rail_fast ship" speed="36.11" length="5.23" width="3.50" customShape="1" shape="269.96,-557.54 274.78,-558.89 275.00,-558.95"/>
    </edge>
    <edge id="1923" from="45" to="49" priority="3" type="highway.residential" spreadType="center" length="0.25" shape="319.84,-574.26 289.46,-565.87">
        <lane id="1923_0" index="0" disallow="pedestrian tram rail_urban rail rail_electric rail_fast ship" speed="36.11" length="0.25" width="3.50" customShape="1" shape="306.62,-563.79 306.50,-563.76 306.38,-563.73"/>
    </edge>
    <edge id="1924" from="49" to="45" priority="3" type="highway.residential" spreadType="center" length="0.22" shape="288.53,-569.23 318.91,-577.63">
        <lane id="1924_0" index="0" disallow="pedestrian tram rail_urban rail rail_electric rail_fast ship" speed="36.11" length="0.22" width="3.50" customShape="1" shape="305.51,-567.12 305.72,-567.17"/>
    </edge>
    <edge id="1926" from="50" to="45" priority="3" type="highway.residential" spreadType="center" length="0.34" shape="349.90,-586.91 320.05,-574.33">
        <lane id="1926_0" index="0" disallow="pedestrian tram rail_urban rail rail_electric rail_fast ship" speed="36.11" length="0.34" width="3.50" customShape="1" shape="336.56,-572.42 336.39,-572.37 336.24,-572.32"/>
    </edge>
    <edge id="1927" from="45" to="50" priority="3" type="highway.residential" spreadType="center" length="0.26" shape="318.70,-577.56 348.55,-590.13">
        <lane id="1927_0" index="0" disallow="pedestrian tram rail_urban rail rail_electric rail_fast ship" speed="36.11" length="0.26" width="3.50" customShape="1" shape="335.24,-575.67 335.36,-575.71 335.49,-575.75"/>
    </edge>
    <edge id="1929" from="44" to="50" priority="3" type="highway.residential" spreadType="center" length="5.32" shape="372.24,-592.84 349.46,-586.76">
        <lane id="1929_0" index="0" disallow="pedestrian tram rail_urban rail rail_electric rail_fast ship" speed="36.11" length="5.32" width="3.50" customShape="1" shape="372.24,-592.84 369.02,-589.02 368.89,-588.86 368.81,-588.77"/>
    </edge>
    <edge id="1930" from="50" to="40" priority="3" type="highway.residential" spreadType="center" length="5.20" shape="348.68,-589.95 369.71,-594.95">
        <lane id="1930_0" index="0" disallow="pedestrian tram rail_urban rail rail_electric rail_fast ship" speed="36.11" length="5.20" width="3.07" customShape="1" shape="366.20,-591.11 366.33,-591.26 369.71,-594.95"/>
    </edge>

    <junction id="14" type="dead_end" x="249.67" y="-596.85" incLanes="1896_0" intLanes="" shape="251.25,-597.31 248.10,-596.38" rightOfWay="edgePriority"/>
    <junction id="26" type="dead_end" x="371.12" y="-615.38" incLanes="1886_0" intLanes="" shape="372.82,-615.80 369.42,-614.95" rightOfWay="edgePriority"/>
    <junction id="33" type="dead_end" x="244.77" y="-601.14" incLanes="" intLanes="" shape="246.45,-601.63 243.09,-600.65" rightOfWay="edgePriority"/>
    <junction id="34" type="dead_end" x="367.74" y="-614.48" incLanes="" intLanes="" shape="369.44,-614.90 366.04,-614.05" rightOfWay="edgePriority"/>
    <junction id="40" type="dead_end" x="369.71" y="-594.95" incLanes="1930_0" intLanes="" shape="368.57,-595.98 370.84,-593.91" rightOfWay="edgePriority"/>
    <junction id="41" type="dead_end" x="270.84" y="-554.19" incLanes="1920_0" intLanes="" shape="271.28,-552.54 270.39,-555.84" rightOfWay="edgePriority"/>
    <junction id="43" type="dead_end" x="269.96" y="-557.54" incLanes="" intLanes="" shape="270.43,-555.85 269.49,-559.22" rightOfWay="edgePriority"/>
    <junction id="44" type="dead_end" x="372.24" y="-592.84" incLanes="" intLanes="" shape="370.90,-593.97 373.58,-591.72" rightOfWay="edgePriority"/>
    <junction id="45" type="priority" x="319.37" y="-575.95" incLanes="1926_0 1731_0 1924_0" intLanes=":45_0_0 :45_1_0 :45_2_0 :45_3_0" shape="336.80,-570.66 334.72,-577.34 331.28,-576.74 328.20,-577.17 325.50,-578.64 323.16,-581.15 321.19,-584.71 319.60,-589.30 312.85,-587.44 313.82,-582.65 313.90,-578.54 313.08,-575.10 311.37,-572.35 308.76,-570.27 305.27,-568.86 307.07,-562.10">
        <request index="0" response="1000" foes="1100" cont="0"/>
        <request index="1" response="0000" foes="0000" cont="0"/>