<routes>
	<vehicle depart="0.1" departLane="0" departPos="59.28545341541141" departSpeed="7.9416875" id="34" type="bicycle">
		<route edges="1413 1920"/>
	</vehicle>
	<vehicle depart="0.1" departLane="0" departPos="44.046790254205675" departSpeed="11.988802" id="319" type="passenger">
		<route edges="1413 1920"/>
	</vehicle>
	<vehicle depart="0.1" departLane="0" departPos="32.228277124250575" departSpeed="13.682658" id="322" type="passenger">
		<route edges=":47_5 1413 1920"/>
	</vehicle>
	<vehicle depart="0.1" departLane="0" departPos="20.134846332245708" departSpeed="0.14306088" id="325" type="passenger">
		<route edges="1414 1896"/>
	</vehicle>
	<vehicle depart="0.1" departLane="0" departPos="12.218950087027414" departSpeed="0.41115583" id="328" type="passenger">
		<route edges="1414 1896"/>
	</vehicle>
	<vehicle depart="0.1" departLane="0" departPos="2.5" departSpeed="0.97352455" id="331" type="passenger">
		<route edges="1414 1896"/>
	</vehicle>
	<vehicle depart="0.1" departLane="0" departPos="20.409803875073486" departSpeed="1.5880741" id="334" type="passenger">
		<route edges=":49_3 1414"/>
	</vehicle>
	<vehicle depart="0.1" departLane="0" departPos="5.475583245002662" departSpeed="0.0" id="337" type="passenger">
		<route edges="1921 1414"/>
	</vehicle>
</routes>
