<routes>
	<vehicle depart="0.1" departLane="0" departPos="22.480893161779743" departSpeed="2.4413823" id="34" type="passenger">
		<route edges="46106 46103 46154"/>
	</vehicle>
	<vehicle depart="0.1" departLane="0" departPos="38.849552960713154" departSpeed="3.1603846" id="316" type="passenger">
		<route edges=":82_1 46630 46627"/>
	</vehicle>
	<vehicle depart="0.1" departLane="0" departPos="7.174412192021185" departSpeed="0.0" id="319" type="passenger">
		<route edges="46631 46107"/>
	</vehicle>
	<vehicle depart="0.1" departLane="0" departPos="20.723425177263806" departSpeed="0.0" id="323" type="passenger">
		<route edges="46104 46107"/>
	</vehicle>
	<vehicle depart="0.1" departLane="0" departPos="30.024292363009465" departSpeed="2.2688973" id="327" type="passenger">
		<route edges=":80_7 46631"/>
	</vehicle>
	<vehicle depart="0.1" departLane="0" departPos="12.921230162344603" departSpeed="1.1540606" id="333" type="passenger">
		<route edges="46799 46802"/>
	</vehicle>
	<vehicle depart="0.1" departLane="0" departPos="16.39313711541591" departSpeed="6.1623891" id="340" type="passenger">
		<route edges=":80_6 46798"/>
	</vehicle>
	<vehicle depart="0.1" departLane="0" departPos="2.5" departSpeed="4.2682352" id="345" type="passenger">
		<route edges=":80_8 46802"/>
	</vehicle>
	<vehicle depart="0.1" departLane="0" departPos="13.107107038633009" departSpeed="5.3363368" id="348" type="passenger">
		<route edges="46628 46798"/>
	</vehicle>
	<vehicle depart="0.1" departLane="0" departPos="17.335394533841843" departSpeed="2.261284" id="33" type="motorcycle">
		<route edges="46799 46802 46551 48138"/>
	</vehicle>
</routes>
