<routes>
	<vehicle depart="0.1" departLane="0" departPos="1.0" departSpeed="1.665115" id="39" type="bicycle">
		<route edges=":40_11 74433"/>
	</vehicle>
	<vehicle depart="0.1" departLane="0" departPos="5.954164024869302" departSpeed="0.6473221" id="38" type="passenger">
		<route edges=":40_5 74437"/>
	</vehicle>
	<vehicle depart="0.1" departLane="0" departPos="7.884467972297928" departSpeed="0.41892479" id="316" type="passenger">
		<route edges=":40_2 74498"/>
	</vehicle>
	<vehicle depart="0.1" departLane="0" departPos="10.981033679071405" departSpeed="0.71433577" id="318" type="passenger">
		<route edges="74499 74433"/>
	</vehicle>
	<vehicle depart="0.1" departLane="0" departPos="10.30417217946777" departSpeed="0.10742207" id="323" type="passenger">
		<route edges=":38_1 74501"/>
	</vehicle>
	<vehicle depart="0.1" departLane="0" departPos="71.97038280276844" departSpeed="0.26254724" id="325" type="passenger">
		<route edges="74379 74376"/>
	</vehicle>
	<vehicle depart="0.1" departLane="0" departPos="31.338045958480745" departSpeed="1.4852175" id="329" type="passenger">
		<route edges="74434 74502"/>
	</vehicle>
	<vehicle depart="0.1" departLane="0" departPos="64.8144967261232" departSpeed="0.47045095" id="338" type="passenger">
		<route edges="74377 74501"/>
	</vehicle>
	<vehicle depart="0.1" departLane="0" departPos="1.25" departSpeed="11.723427" id="331" type="motorcycle">
		<route edges="74498 74199"/>
	</vehicle>
	<vehicle depart="0.1" departLane="0" departPos="1.25" departSpeed="4.4174502" id="336" type="motorcycle">
		<route edges=":38_4 74501"/>
	</vehicle>
</routes>
