<routes>
	<vehicle depart="0.1" departLane="4" departPos="196.89335180808789" departSpeed="17.7668" id="322" type="passenger">
		<route edges="14"/>
	</vehicle>
	<vehicle depart="0.1" departLane="4" departPos="164.25473686924008" departSpeed="17.7302" id="363" type="passenger">
		<route edges="14"/>
	</vehicle>
	<vehicle depart="0.1" departLane="4" departPos="135.23730667880886" departSpeed="18.1265" id="376" type="passenger">
		<route edges="14"/>
	</vehicle>
	<vehicle depart="0.1" departLane="3" departPos="210.57262053221976" departSpeed="19.815" id="383" type="passenger">
		<route edges="14"/>
	</vehicle>
	<vehicle depart="0.1" departLane="0" departPos="154.2051352874864" departSpeed="14.4384" id="387" type="passenger">
		<route edges="14 14 14 14"/>
	</vehicle>
	<vehicle depart="0.1" departLane="1" departPos="211.2411802723724" departSpeed="21.3421" id="388" type="passenger">
		<route edges="14"/>
	</vehicle>
	<vehicle depart="0.1" departLane="3" departPos="185.70678870017025" departSpeed="18.288" id="394" type="passenger">
		<route edges="14"/>
	</vehicle>
	<vehicle depart="0.1" departLane="3" departPos="143.0078553117049" departSpeed="18.8062" id="395" type="passenger">
		<route edges="14"/>
	</vehicle>
	<vehicle depart="0.1" departLane="3" departPos="113.23317751898797" departSpeed="15.24" id="396" type="passenger">
		<route edges="14 14"/>
	</vehicle>
	<vehicle depart="0.1" departLane="3" departPos="81.68724648756948" departSpeed="16.8158" id="397" type="passenger">
		<route edges="14"/>
	</vehicle>
	<vehicle depart="0.1" departLane="3" departPos="126.64641685295776" departSpeed="16.3678" id="399" type="passenger">
		<route edges="14"/>
	</vehicle>
	<vehicle depart="0.1" departLane="1" departPos="87.12984553026915" departSpeed="13.7343" id="400" type="passenger">
		<route edges="14"/>
	</vehicle>
	<vehicle depart="0.1" departLane="2" departPos="142.65707097586437" departSpeed="20.3667" id="401" type="passenger">
		<route edges="14"/>
	</vehicle>
	<vehicle depart="0.1" departLane="1" departPos="110.28131911471455" departSpeed="13.9751" id="402" type="passenger">
		<route edges="14"/>
	</vehicle>
	<vehicle depart="0.1" departLane="2" departPos="111.07012876661125" departSpeed="18.288" id="403" type="passenger">
		<route edges="14"/>
	</vehicle>
	<vehicle depart="0.1" departLane="4" departPos="109.93079636019745" departSpeed="17.5199" id="404" type="passenger">
		<route edges="14"/>
	</vehicle>
	<vehicle depart="0.1" departLane="3" departPos="97.13379049918943" departSpeed="15.2644" id="405" type="passenger">
		<route edges="14"/>
	</vehicle>
	<vehicle depart="0.1" departLane="0" departPos="144.17088325812864" departSpeed="24.0762" id="407" type="passenger">
		<route edges="14"/>
	</vehicle>
	<vehicle depart="0.1" departLane="1" departPos="74.66232288886403" departSpeed="12.7193" id="408" type="passenger">
		<route edges="14"/>
	</vehicle>
	<vehicle depart="0.1" departLane="1" departPos="64.45186896296332" departSpeed="14.8499" id="410" type="passenger">
		<route edges="14 14"/>
	</vehicle>
	<vehicle depart="0.1" departLane="1" departPos="47.40665000345019" departSpeed="15.4198" id="415" type="passenger">
		<route edges="14 14"/>
	</vehicle>
	<vehicle depart="0.1" departLane="0" departPos="66.50361475648765" departSpeed="16.764" id="416" type="passenger">
		<route edges="14"/>
	</vehicle>
	<vehicle depart="0.1" departLane="4" departPos="66.62426766724566" departSpeed="20.7569" id="417" type="passenger">
		<route edges="14"/>
	</vehicle>
	<vehicle depart="0.1" departLane="3" departPos="38.34289029312803" departSpeed="17.7576" id="418" type="passenger">
		<route edges="14"/>
	</vehicle>
	<vehicle depart="0.1" departLane="2" departPos="75.26307031724505" departSpeed="18.1417" id="419" type="passenger">
		<route edges="14"/>
	</vehicle>
	<vehicle depart="0.1" departLane="4" departPos="16.287520084723916" departSpeed="18.0411" id="422" type="passenger">
		<route edges="14"/>
	</vehicle>
	<vehicle depart="0.1" departLane="3" departPos="14.210562307401254" departSpeed="15.9075" id="423" type="passenger">
		<route edges="14"/>
	</vehicle>
	<vehicle depart="0.1" departLane="1" departPos="26.962521392700417" departSpeed="15.24" id="424" type="passenger">
		<route edges="14"/>
	</vehicle>
	<vehicle depart="0.1" departLane="0" departPos="0" departSpeed="17.1572" id="433" type="passenger">
		<route edges="14"/>
	</vehicle>
</routes>
