<routes>
	<vehicle depart="0.1" departLane="0" departPos="8.414471084344845" departSpeed="12.321468" id="35" type="passenger">
		<route edges=":62_2 19838"/>
	</vehicle>
	<vehicle depart="0.1" departLane="0" departPos="26.32116127077435" departSpeed="9.8562119" id="337" type="passenger">
		<route edges=":62_2 19838"/>
	</vehicle>
	<vehicle depart="0.1" departLane="0" departPos="26.108549922540192" departSpeed="10.979773" id="340" type="passenger">
		<route edges=":62_4 19729 19726 19715"/>
	</vehicle>
	<vehicle depart="0.1" departLane="0" departPos="71.71310716615719" departSpeed="4.9695443" id="341" type="passenger">
		<route edges="19837 19729"/>
	</vehicle>
	<vehicle depart="0.1" departLane="0" departPos="65.36732994658237" departSpeed="2.6872254" id="347" type="passenger">
		<route edges="19837 19729"/>
	</vehicle>
	<vehicle depart="0.1" departLane="0" departPos="44.856370595687444" departSpeed="2.0230996" id="351" type="passenger">
		<route edges="19837 19834"/>
	</vehicle>
	<vehicle depart="0.1" departLane="0" departPos="33.33383827970703" departSpeed="15.938058" id="357" type="passenger">
		<route edges=":60_4 19730 19838"/>
	</vehicle>
	<vehicle depart="0.1" departLane="0" departPos="11.472192353750954" departSpeed="6.8803571" id="327" type="motorcycle">
		<route edges=":62_1 19729 19726"/>
	</vehicle>
</routes>
