<!-- generated on Tue Feb  9 22:12:16 2021 by Eclipse SUMO netconvert Version 1.8.0
<configuration xmlns:xsi="http://www.w3.org/2001/XMLSchema-instance" xsi:noNamespaceSchemaLocation="http://sumo.dlr.de/xsd/netconvertConfiguration.xsd">

    <input>
        <node-files value="./converted_scenarios/scenario-factory/PRI_Barceloneta-1_2_I-1-1/PRI_Barceloneta-1_2_I-1-1.nod.xml"/>
        <edge-files value="./converted_scenarios/scenario-factory/PRI_Barceloneta-1_2_I-1-1/PRI_Barceloneta-1_2_I-1-1.edg.xml"/>
        <connection-files value="./converted_scenarios/scenario-factory/PRI_Barceloneta-1_2_I-1-1/PRI_Barceloneta-1_2_I-1-1.con.xml"/>
        <tllogic-files value="./converted_scenarios/scenario-factory/PRI_Barceloneta-1_2_I-1-1/PRI_Barceloneta-1_2_I-1-1.tll.xml"/>
        <type-files value="/home/zen/commonroad-interactive-benchmarks/install/commonroad-map-tool/crmapconverter/sumo_map/templates/DEU.typ.xml"/>
    </input>

    <output>
        <output-file value="./converted_scenarios/scenario-factory/PRI_Barceloneta-1_2_I-1-1/PRI_Barceloneta-1_2_I-1-1.net.xml"/>
    </output>

    <processing>
        <geometry.remove.keep-edges.explicit value="true"/>
        <geometry.avoid-overlap value="true"/>
        <offset.disable-normalization value="true"/>
    </processing>

    <junctions>
        <no-turnarounds value="true"/>
        <junctions.internal-link-detail value="20"/>
    </junctions>

    <report>
        <aggregate-warnings value="5"/>
    </report>

    <random_number>
        <seed value="1234"/>
    </random_number>

</configuration>
--><net xmlns:xsi="http://www.w3.org/2001/XMLSchema-instance" version="1.6" junctionCornerDetail="5" junctionLinkDetail="20" limitTurnSpeed="5.50" xsi:noNamespaceSchemaLocation="http://sumo.dlr.de/xsd/net_file.xsd">

    <location netOffset="0.00,0.00" convBoundary="-268.37,-17.35,-16.51,248.96" origBoundary="-268.37,-17.35,-16.51,248.96" projParameter="!"/>

    <type id="highway.bridleway" priority="1" speed="2.78" allow="pedestrian" oneway="1" width="2.00"/>
    <type id="highway.bus_guideway" priority="1" speed="27.78" allow="bus" oneway="1"/>
    <type id="highway.cycleway" priority="1" speed="8.33" allow="bicycle" oneway="0" width="1.00"/>
    <type id="highway.footway" priority="1" speed="2.78" allow="pedestrian" oneway="1" width="2.00"/>
    <type id="highway.ford" priority="1" speed="2.78" allow="army" oneway="0"/>
    <type id="highway.living_street" priority="2" speed="2.78" disallow="tram rail_urban rail rail_electric rail_fast ship" oneway="0"/>
    <type id="highway.motorway" priority="14" speed="39.44" allow="private emergency authority army vip passenger hov taxi bus coach delivery truck trailer motorcycle evehicle custom1 custom2" oneway="1"/>
    <type id="highway.motorway_link" priority="9" speed="22.22" allow="private emergency authority army vip passenger hov taxi bus coach delivery truck trailer motorcycle evehicle custom1 custom2" oneway="1"/>
    <type id="highway.path" priority="1" speed="2.78" allow="pedestrian bicycle" oneway="0" width="2.00"/>
    <type id="highway.pedestrian" priority="1" speed="2.78" allow="pedestrian" oneway="1" width="2.00"/>
    <type id="highway.primary" priority="12" speed="27.78" disallow="pedestrian tram rail_urban rail rail_electric rail_fast ship" oneway="0"/>
    <type id="highway.primary_link" priority="7" speed="22.22" disallow="pedestrian tram rail_urban rail rail_electric rail_fast ship" oneway="0"/>
    <type id="highway.raceway" priority="15" speed="83.33" allow="vip" oneway="0"/>
    <type id="highway.residential" priority="3" speed="13.89" disallow="pedestrian tram rail_urban rail rail_electric rail_fast ship" oneway="0"/>
    <type id="highway.secondary" priority="11" speed="27.78" disallow="pedestrian tram rail_urban rail rail_electric rail_fast ship" oneway="0"/>
    <type id="highway.secondary_link" priority="6" speed="22.22" disallow="pedestrian tram rail_urban rail rail_electric rail_fast ship" oneway="0"/>
    <type id="highway.service" priority="1" speed="5.56" allow="pedestrian delivery bicycle" oneway="0"/>
    <type id="highway.stairs" priority="1" speed="1.39" allow="pedestrian" oneway="1" width="2.00"/>
    <type id="highway.step" priority="1" speed="1.39" allow="pedestrian" oneway="1" width="2.00"/>
    <type id="highway.steps" priority="1" speed="1.39" allow="pedestrian" oneway="1" width="2.00"/>
    <type id="highway.tertiary" priority="10" speed="22.22" disallow="pedestrian tram rail_urban rail rail_electric rail_fast ship" oneway="0"/>
    <type id="highway.tertiary_link" priority="5" speed="22.22" disallow="pedestrian tram rail_urban rail rail_electric rail_fast ship" oneway="0"/>
    <type id="highway.track" priority="1" speed="5.56" allow="pedestrian motorcycle moped bicycle" oneway="0"/>
    <type id="highway.trunk" priority="13" speed="27.78" disallow="pedestrian bicycle tram rail_urban rail rail_electric rail_fast ship" oneway="0"/>
    <type id="highway.trunk_link" priority="8" speed="22.22" disallow="pedestrian bicycle tram rail_urban rail rail_electric rail_fast ship" oneway="0"/>
    <type id="highway.unclassified" priority="4" speed="13.89" disallow="pedestrian tram rail_urban rail rail_electric rail_fast ship" oneway="0"/>
    <type id="highway.unsurfaced" priority="1" speed="8.33" disallow="tram rail_urban rail rail_electric rail_fast ship" oneway="0"/>
    <type id="railway.highspeed" priority="21" speed="69.44" allow="rail_fast" oneway="1"/>
    <type id="railway.light_rail" priority="19" speed="27.78" allow="rail_urban" oneway="1"/>
    <type id="railway.preserved" priority="16" speed="27.78" allow="rail" oneway="1"/>
    <type id="railway.rail" priority="20" speed="44.44" allow="rail" oneway="1"/>
    <type id="railway.subway" priority="18" speed="27.78" allow="rail_urban" oneway="1"/>
    <type id="railway.tram" priority="17" speed="13.89" allow="tram" oneway="1"/>

    <edge id=":57_0" function="internal">
        <lane id=":57_0_0" index="0" disallow="pedestrian tram rail_urban rail rail_electric rail_fast ship" speed="10.97" length="28.92" width="3.50" shape="-96.33,162.80 -97.08,159.55 -97.80,157.44 -98.73,155.42 -99.91,153.54 -100.61,152.67 -101.37,151.86 -102.21,151.13 -103.11,150.48 -104.07,149.92 -105.08,149.45 -106.13,149.08 -107.21,148.80 -109.41,148.48 -111.63,148.45 -113.85,148.65 -117.12,149.29"/>
    </edge>
    <edge id=":57_1" function="internal">
        <lane id=":57_1_0" index="0" disallow="pedestrian tram rail_urban rail rail_electric rail_fast ship" speed="11.50" length="28.77" width="3.50" shape="-96.33,162.80 -96.90,158.92 -97.19,155.00 -97.19,152.39 -96.96,149.78 -96.45,147.22 -96.06,145.97 -95.57,144.76 -94.97,143.60 -94.25,142.51 -93.40,141.51 -92.44,140.62 -91.38,139.86 -90.23,139.23 -89.03,138.73 -87.77,138.35"/>
    </edge>
    <edge id=":57_2" function="internal">
        <lane id=":57_2_0" index="0" disallow="pedestrian tram rail_urban rail rail_electric rail_fast ship" speed="10.44" length="23.50" width="3.50" shape="-86.89,141.73 -87.86,142.03 -88.76,142.42 -89.60,142.90 -90.36,143.49 -91.04,144.17 -91.64,144.95 -92.14,145.81 -92.57,146.73 -92.92,147.71 -93.19,148.71 -93.56,150.88 -93.70,153.10 -93.68,155.34 -93.39,158.77 -92.88,162.17"/>
    </edge>
    <edge id=":57_3" function="internal">
        <lane id=":57_3_0" index="0" disallow="pedestrian tram rail_urban rail rail_electric rail_fast ship" speed="36.11" length="31.16" width="3.50" shape="-86.89,141.73 -102.02,145.52 -117.12,149.29"/>
    </edge>
    <edge id=":57_4" function="internal">
        <lane id=":57_4_0" index="0" disallow="pedestrian tram rail_urban rail rail_electric rail_fast ship" speed="36.11" length="31.12" width="3.50" shape="-117.96,145.89 -102.87,142.12 -87.77,138.35"/>
    </edge>
    <edge id=":57_5" function="internal">
        <lane id=":57_5_0" index="0" disallow="pedestrian tram rail_urban rail rail_electric rail_fast ship" speed="11.98" length="34.74" width="3.50" shape="-117.96,145.89 -114.18,145.16 -111.56,144.92 -108.90,144.96 -106.26,145.33 -104.90,145.69 -103.60,146.15 -102.34,146.74 -101.14,147.44 -100.01,148.25 -98.96,149.17 -98.01,150.17 -97.13,151.26 -95.72,153.52 -94.60,155.93 -93.75,158.43 -92.88,162.17"/>
    </edge>
    <edge id=":58_0" function="internal">
        <lane id=":58_0_0" index="0" disallow="pedestrian tram rail_urban rail rail_electric rail_fast ship" speed="36.11" length="50.42" width="3.50" shape="-42.60,188.02 -47.09,176.50 -51.13,167.04 -54.65,159.60 -58.04,153.25 -60.71,148.85 -63.06,145.48 -65.00,143.08"/>
    </edge>
    <edge id=":58_1" function="internal">
        <lane id=":58_1_0" index="0" disallow="pedestrian tram rail_urban rail rail_electric rail_fast ship" speed="34.11" length="59.93" width="3.50" shape="-42.60,188.02 -44.26,183.02 -45.54,177.92 -46.48,172.75 -47.11,167.53 -47.48,161.23 -47.49,154.93 -47.17,148.63 -46.43,141.31 -45.35,134.03 -44.39,128.86"/>
    </edge>
    <edge id=":58_2" function="internal">
        <lane id=":58_2_0" index="0" disallow="pedestrian tram rail_urban rail rail_electric rail_fast ship" speed="33.56" length="58.03" width="3.50" shape="-40.95,129.52 -41.89,134.58 -42.95,141.66 -43.67,148.78 -43.99,154.89 -43.99,161.00 -43.64,167.09 -43.04,172.12 -42.14,177.10 -40.91,182.00 -39.32,186.80"/>
    </edge>
    <edge id=":58_3" function="internal">
        <lane id=":58_3_0" index="0" disallow="pedestrian tram rail_urban rail rail_electric rail_fast ship" speed="36.11" length="51.70" width="3.50" shape="-62.37,140.77 -60.32,143.30 -57.87,146.81 -55.10,151.34 -51.62,157.85 -48.01,165.45 -43.89,175.08 -39.32,186.80"/>
    </edge>
    <edge id=":59_0" function="internal">
        <lane id=":59_0_0" index="0" disallow="pedestrian tram rail_urban rail rail_electric rail_fast ship" speed="12.38" length="22.45" width="3.50" shape="-65.17,142.88 -65.90,142.17 -66.72,141.57 -67.61,141.08 -68.55,140.68 -70.52,140.15 -72.55,139.89 -74.59,139.83 -77.64,140.01 -80.68,140.41 -84.69,141.20 -86.67,141.68"/>
    </edge>
    <edge id=":59_1" function="internal">
        <lane id=":59_1_0" index="0" disallow="pedestrian tram rail_urban rail rail_electric rail_fast ship" speed="36.11" length="33.42" width="3.50" shape="-65.17,142.88 -69.96,137.38 -80.06,125.41 -86.58,117.22"/>
    </edge>
    <edge id=":59_2" function="internal">
        <lane id=":59_2_0" index="0" disallow="pedestrian tram rail_urban rail rail_electric rail_fast ship" speed="36.11" length="33.15" width="3.50" shape="-83.80,115.10 -77.34,123.21 -67.30,135.10 -62.56,140.55"/>
    </edge>
    <edge id=":59_3" function="internal">
        <lane id=":59_3_0" index="0" disallow="pedestrian tram rail_urban rail rail_electric rail_fast ship" speed="10.71" length="34.25" width="3.50" shape="-83.80,115.10 -81.19,118.73 -78.89,122.56 -77.61,125.25 -77.08,126.64 -76.65,128.07 -76.34,129.53 -76.19,131.01 -76.22,132.50 -76.49,133.96 -77.01,135.35 -77.78,136.63 -78.75,137.76 -79.88,138.72 -81.13,139.54 -82.45,140.22 -83.83,140.80 -86.67,141.68"/>
    </edge>
    <edge id=":59_4" function="internal">
        <lane id=":59_4_0" index="0" disallow="pedestrian tram rail_urban rail rail_electric rail_fast ship" speed="9.57" length="27.06" width="3.50" shape="-87.56,138.29 -85.19,137.55 -84.13,137.10 -83.12,136.55 -82.22,135.93 -81.44,135.22 -80.80,134.41 -80.33,133.51 -80.04,132.53 -79.91,131.49 -79.94,130.39 -80.11,129.27 -80.39,128.13 -80.77,126.99 -81.22,125.87 -82.32,123.62 -84.32,120.35 -86.58,117.22"/>
    </edge>
    <edge id=":59_5" function="internal">
        <lane id=":59_5_0" index="0" disallow="pedestrian tram rail_urban rail rail_electric rail_fast ship" speed="13.43" length="26.26" width="3.50" shape="-87.56,138.29 -85.31,137.76 -80.86,136.91 -77.43,136.49 -73.96,136.37 -71.57,136.51 -69.18,136.90 -66.85,137.62 -65.66,138.16 -64.54,138.83 -63.50,139.63 -62.56,140.55"/>
    </edge>
    <edge id=":60_0" function="internal">
        <lane id=":60_0_0" index="0" disallow="pedestrian tram rail_urban rail rail_electric rail_fast ship" speed="14.63" length="34.94" width="3.50" shape="-93.54,108.03 -95.59,105.44 -98.49,102.18 -100.80,99.91 -103.26,97.84 -105.87,96.00 -108.65,94.46 -110.55,93.64 -112.52,93.01 -114.53,92.57 -116.57,92.35 -118.62,92.36 -120.67,92.58 -122.72,93.01"/>
    </edge>
    <edge id=":60_1" function="internal">
        <lane id=":60_1_0" index="0" disallow="pedestrian tram rail_urban rail rail_electric rail_fast ship" speed="11.45" length="39.18" width="3.50" shape="-93.54,108.04 -96.13,104.29 -97.62,101.68 -98.86,98.93 -99.35,97.51 -99.72,96.05 -99.96,94.57 -100.04,93.06 -99.93,91.56 -99.60,90.09 -99.07,88.69 -98.33,87.37 -97.42,86.17 -96.38,85.09 -95.22,84.13 -93.98,83.27 -91.34,81.82 -88.56,80.67 -84.24,79.35"/>
    </edge>
    <edge id=":60_2" function="internal">
        <lane id=":60_2_0" index="0" disallow="pedestrian tram rail_urban rail rail_electric rail_fast ship" speed="10.39" length="31.98" width="3.50" shape="-83.34,82.73 -87.11,83.88 -89.46,84.86 -91.68,86.08 -92.66,86.76 -93.57,87.52 -94.37,88.36 -95.05,89.26 -95.59,90.23 -95.98,91.26 -96.21,92.35 -96.29,93.47 -96.22,94.63 -96.03,95.80 -95.72,96.97 -95.33,98.11 -94.28,100.44 -93.00,102.67 -90.75,105.92"/>
    </edge>
    <edge id=":60_3" function="internal">
        <lane id=":60_3_0" index="0" disallow="pedestrian tram rail_urban rail rail_electric rail_fast ship" speed="36.11" length="40.70" width="3.50" shape="-83.34,82.73 -103.03,87.87 -122.72,93.01"/>
    </edge>
    <edge id=":60_4" function="internal">
        <lane id=":60_4_0" index="0" disallow="pedestrian tram rail_urban rail rail_electric rail_fast ship" speed="36.11" length="40.70" width="3.50" shape="-123.62,89.63 -103.91,84.48 -84.24,79.35"/>
    </edge>
    <edge id=":60_5" function="internal">
        <lane id=":60_5_0" index="0" disallow="pedestrian tram rail_urban rail rail_electric rail_fast ship" speed="15.46" length="39.09" width="3.50" shape="-123.62,89.63 -121.27,89.13 -118.92,88.86 -116.56,88.84 -114.20,89.07 -111.88,89.54 -109.62,90.24 -107.44,91.14 -104.32,92.83 -101.40,94.85 -98.67,97.12 -96.12,99.59 -92.97,103.12 -90.75,105.92"/>
    </edge>
    <edge id=":61_0" function="internal">
        <lane id=":61_0_0" index="0" disallow="pedestrian tram rail_urban rail rail_electric rail_fast ship" speed="10.98" length="29.30" width="3.50" shape="-178.83,126.75 -179.57,123.28 -180.28,121.09 -181.20,119.02 -182.37,117.09 -183.02,116.25 -183.76,115.45 -184.56,114.74 -185.42,114.10 -186.33,113.56 -187.30,113.10 -188.32,112.73 -189.34,112.46 -191.58,112.13 -193.85,112.10 -196.13,112.31 -199.60,112.99"/>
    </edge>
    <edge id=":61_1" function="internal">
        <lane id=":61_1_0" index="0" disallow="pedestrian tram rail_urban rail rail_electric rail_fast ship" speed="36.11" length="40.57" width="3.50" shape="-178.83,126.75 -182.13,106.73 -185.44,86.72"/>
    </edge>
    <edge id=":61_2" function="internal">
        <lane id=":61_2_0" index="0" disallow="pedestrian tram rail_urban rail rail_electric rail_fast ship" speed="13.03" length="36.39" width="3.50" shape="-178.83,126.75 -179.01,125.50 -179.31,121.88 -179.27,119.38 -179.00,116.89 -178.46,114.42 -177.61,112.01 -176.45,109.72 -174.97,107.61 -173.23,105.73 -171.27,104.10 -169.17,102.73 -166.95,101.58 -164.66,100.63 -161.17,99.53"/>
    </edge>
    <edge id=":61_3" function="internal">
        <lane id=":61_3_0" index="0" disallow="pedestrian tram rail_urban rail rail_electric rail_fast ship" speed="12.09" length="31.16" width="3.50" shape="-160.28,102.91 -163.35,103.88 -165.34,104.70 -167.25,105.69 -169.05,106.87 -170.70,108.24 -172.16,109.81 -173.39,111.57 -174.36,113.49 -175.08,115.52 -175.53,117.61 -175.76,119.75 -175.80,121.90 -175.53,125.11 -175.38,126.18"/>
    </edge>
    <edge id=":61_4" function="internal">
        <lane id=":61_4_0" index="0" disallow="pedestrian tram rail_urban rail rail_electric rail_fast ship" speed="36.11" length="40.59" width="3.50" shape="-160.28,102.91 -193.54,111.47 -199.60,112.99"/>
    </edge>
    <edge id=":61_5" function="internal">
        <lane id=":61_5_0" index="0" disallow="pedestrian tram rail_urban rail rail_electric rail_fast ship" speed="11.94" length="35.10" width="3.50" shape="-160.28,102.91 -164.24,103.74 -166.93,104.03 -169.63,104.04 -172.31,103.69 -173.62,103.37 -174.89,102.93 -176.12,102.37 -177.29,101.70 -178.39,100.91 -179.41,100.03 -180.34,99.05 -181.18,97.99 -182.61,95.70 -183.72,93.24 -184.56,90.67 -185.44,86.72"/>
    </edge>
    <edge id=":61_6" function="internal">
        <lane id=":61_6_0" index="0" disallow="pedestrian tram rail_urban rail rail_electric rail_fast ship" speed="10.92" length="29.17" width="3.50" shape="-181.99,86.14 -181.23,89.58 -180.51,91.75 -179.58,93.81 -178.39,95.72 -177.74,96.54 -177.00,97.32 -176.19,98.03 -175.33,98.64 -174.41,99.17 -173.43,99.61 -172.41,99.96 -171.39,100.22 -169.16,100.51 -166.90,100.50 -164.62,100.25 -161.17,99.53"/>
    </edge>
    <edge id=":61_7" function="internal">
        <lane id=":61_7_0" index="0" disallow="pedestrian tram rail_urban rail rail_electric rail_fast ship" speed="36.11" length="40.58" width="3.50" shape="-181.99,86.14 -178.68,106.16 -175.38,126.18"/>
    </edge>
    <edge id=":61_8" function="internal">
        <lane id=":61_8_0" index="0" disallow="pedestrian tram rail_urban rail rail_electric rail_fast ship" speed="12.90" length="36.14" width="3.50" shape="-181.99,86.14 -181.54,89.87 -181.48,92.43 -181.65,94.99 -182.09,97.55 -182.86,100.05 -183.97,102.45 -185.43,104.67 -187.19,106.64 -189.18,108.34 -191.35,109.77 -193.63,110.94 -196.00,111.90 -199.60,112.99"/>
    </edge>
    <edge id=":61_9" function="internal">
        <lane id=":61_9_0" index="0" disallow="pedestrian tram rail_urban rail rail_electric rail_fast ship" speed="11.95" length="30.85" width="3.50" shape="-200.45,109.59 -197.28,108.64 -195.24,107.81 -193.28,106.80 -191.44,105.59 -189.76,104.17 -188.29,102.52 -187.08,100.68 -186.15,98.68 -185.51,96.57 -185.14,94.40 -184.99,92.20 -185.05,90.00 -185.44,86.72"/>
    </edge>
    <edge id=":61_10" function="internal">
        <lane id=":61_10_0" index="0" disallow="pedestrian tram rail_urban rail rail_electric rail_fast ship" speed="36.11" length="40.55" width="3.50" shape="-200.45,109.59 -194.40,108.08 -161.17,99.53"/>
    </edge>
    <edge id=":61_11" function="internal">
        <lane id=":61_11_0" index="0" disallow="pedestrian tram rail_urban rail rail_electric rail_fast ship" speed="11.99" length="35.20" width="3.50" shape="-200.45,109.59 -196.46,108.81 -193.77,108.57 -191.06,108.61 -188.38,109.00 -187.07,109.34 -185.80,109.81 -184.58,110.38 -183.41,111.07 -182.32,111.88 -181.32,112.78 -180.40,113.77 -179.56,114.84 -178.16,117.15 -177.06,119.63 -176.23,122.21 -175.38,126.18"/>
    </edge>
    <edge id=":62_0" function="internal">
        <lane id=":62_0_0" index="0" disallow="pedestrian tram rail_urban rail rail_electric rail_fast ship" speed="36.11" length="41.15" width="3.50" shape="-27.75,52.30 -31.12,72.60 -34.50,92.89"/>
    </edge>
    <edge id=":62_1" function="internal">
        <lane id=":62_1_0" index="0" disallow="pedestrian tram rail_urban rail rail_electric rail_fast ship" speed="15.60" length="38.90" width="3.50" shape="-27.75,52.30 -27.98,53.51 -28.61,55.82 -29.50,58.08 -30.63,60.22 -31.98,62.23 -33.52,64.08 -35.23,65.77 -37.98,67.99 -40.94,69.90 -44.03,71.53 -47.22,72.92 -51.54,74.46 -55.94,75.72"/>
    </edge>
    <edge id=":62_2" function="internal">
        <lane id=":62_2_0" index="0" disallow="pedestrian tram rail_urban rail rail_electric rail_fast ship" speed="14.78" length="34.84" width="3.50" shape="-56.81,72.33 -52.74,71.17 -48.75,69.76 -45.84,68.51 -43.03,67.06 -40.35,65.37 -37.86,63.42 -36.34,61.95 -34.97,60.35 -33.76,58.62 -32.76,56.76 -31.97,54.80 -31.40,52.77 -31.20,51.74"/>
    </edge>
    <edge id=":62_3" function="internal">
        <lane id=":62_3_0" index="0" disallow="pedestrian tram rail_urban rail rail_electric rail_fast ship" speed="11.47" length="39.77" width="3.50" shape="-56.81,72.33 -52.31,71.38 -49.27,71.03 -46.21,70.98 -44.69,71.11 -43.18,71.36 -41.71,71.76 -40.29,72.34 -38.96,73.10 -37.76,74.04 -36.72,75.17 -35.86,76.43 -35.18,77.80 -34.66,79.24 -34.29,80.72 -34.03,82.23 -33.83,85.28 -33.94,88.33 -34.50,92.89"/>
    </edge>
    <edge id=":62_4" function="internal">
        <lane id=":62_4_0" index="0" disallow="pedestrian tram rail_urban rail rail_electric rail_fast ship" speed="10.41" length="32.48" width="3.50" shape="-37.96,92.34 -37.46,88.35 -37.37,85.75 -37.54,83.17 -37.74,81.96 -38.04,80.78 -38.45,79.66 -38.96,78.62 -39.60,77.68 -40.36,76.86 -41.23,76.17 -42.22,75.60 -43.29,75.17 -44.44,74.86 -45.65,74.65 -46.86,74.55 -49.45,74.59 -52.03,74.90 -55.94,75.72"/>
    </edge>
    <edge id=":62_5" function="internal">
        <lane id=":62_5_0" index="0" disallow="pedestrian tram rail_urban rail rail_electric rail_fast ship" speed="36.11" length="41.16" width="3.50" shape="-37.96,92.34 -34.58,72.02 -31.20,51.74"/>
    </edge>
    <edge id=":63_0" function="internal">
        <lane id=":63_0_0" index="0" disallow="pedestrian tram rail_urban rail rail_electric rail_fast ship" speed="36.11" length="39.14" width="3.50" shape="-170.07,180.00 -173.27,160.65 -176.45,141.38"/>
    </edge>
    <edge id=":63_1" function="internal">
        <lane id=":63_1_0" index="0" disallow="pedestrian tram rail_urban rail rail_electric rail_fast ship" speed="12.68" length="35.03" width="3.50" shape="-170.07,180.00 -170.52,176.09 -170.54,173.50 -170.30,170.92 -169.74,168.39 -168.85,165.95 -167.60,163.68 -166.01,161.64 -164.14,159.84 -162.05,158.31 -159.80,157.03 -157.43,155.98 -153.74,154.75 -152.49,154.42"/>
    </edge>
    <edge id=":63_2" function="internal">
        <lane id=":63_2_0" index="0" disallow="pedestrian tram rail_urban rail rail_electric rail_fast ship" speed="11.71" length="29.73" width="3.50" shape="-151.65,157.82 -152.73,158.10 -156.00,159.19 -158.03,160.09 -159.96,161.18 -161.72,162.46 -163.28,163.94 -164.58,165.61 -165.61,167.47 -166.36,169.48 -166.82,171.59 -167.03,173.78 -167.01,175.99 -166.62,179.41"/>
    </edge>
    <edge id=":63_3" function="internal">
        <lane id=":63_3_0" index="0" disallow="pedestrian tram rail_urban rail rail_electric rail_fast ship" speed="11.92" length="34.67" width="3.50" shape="-151.65,157.82 -155.43,158.54 -158.05,158.77 -160.70,158.72 -163.34,158.33 -164.69,157.97 -165.99,157.49 -167.24,156.90 -168.43,156.18 -169.55,155.35 -170.59,154.43 -171.52,153.42 -172.38,152.31 -173.76,150.03 -174.84,147.61 -175.64,145.11 -176.45,141.38"/>
    </edge>
    <edge id=":63_4" function="internal">
        <lane id=":63_4_0" index="0" disallow="pedestrian tram rail_urban rail rail_electric rail_fast ship" speed="10.90" length="28.80" width="3.50" shape="-173.00,140.79 -172.30,144.04 -171.62,146.15 -170.72,148.17 -169.57,150.07 -168.89,150.94 -168.14,151.76 -167.32,152.50 -166.43,153.16 -165.48,153.72 -164.47,154.20 -163.43,154.58 -162.36,154.87 -160.17,155.20 -157.96,155.24 -155.75,155.05 -152.49,154.42"/>
    </edge>
    <edge id=":63_5" function="internal">
        <lane id=":63_5_0" index="0" disallow="pedestrian tram rail_urban rail rail_electric rail_fast ship" speed="36.11" length="39.14" width="3.50" shape="-173.00,140.79 -169.81,160.08 -166.62,179.41"/>
    </edge>

    <edge id="19708" from="63" to="53" priority="3" type="highway.residential" spreadType="center" length="70.00" shape="-163.31,158.77 -154.84,248.41">
        <lane id="19708_0" index="0" disallow="pedestrian tram rail_urban rail rail_electric rail_fast ship" speed="36.11" length="70.00" width="3.50" customShape="1" shape="-166.62,179.41 -154.84,248.41"/>
    </edge>
    <edge id="19709" from="56" to="63" priority="3" type="highway.residential" spreadType="center" length="70.00" shape="-158.30,248.96 -166.80,159.09">
        <lane id="19709_0" index="0" disallow="pedestrian tram rail_urban rail rail_electric rail_fast ship" speed="36.11" length="70.00" width="3.50" customShape="1" shape="-158.30,248.96 -170.08,179.96"/>
    </edge>
    <edge id="19711" from="61" to="63" priority="3" type="highway.residential" spreadType="center" length="14.83" shape="-178.71,105.86 -163.36,158.53">
        <lane id="19711_0" index="0" disallow="pedestrian tram rail_urban rail rail_electric rail_fast ship" speed="36.11" length="14.83" width="3.50" customShape="1" shape="-175.38,126.18 -174.19,133.48 -173.00,140.82"/>
    </edge>
    <edge id="19712" from="63" to="61" priority="3" type="highway.residential" spreadType="center" length="14.83" shape="-166.72,159.51 -182.07,106.84">
        <lane id="19712_0" index="0" disallow="pedestrian tram rail_urban rail rail_electric rail_fast ship" speed="36.11" length="14.83" width="3.50" customShape="1" shape="-176.45,141.38 -177.64,134.04 -178.83,126.74"/>
    </edge>
    <edge id="19714" from="54" to="61" priority="3" type="highway.residential" spreadType="center" length="42.45" shape="-188.96,44.27 -178.66,106.11">
        <lane id="19714_0" index="0" disallow="pedestrian tram rail_urban rail rail_electric rail_fast ship" speed="36.11" length="42.45" width="3.50" customShape="1" shape="-188.96,44.27 -185.48,65.18 -181.98,86.14"/>
    </edge>
    <edge id="19715" from="61" to="47" priority="3" type="highway.residential" spreadType="center" length="42.50" shape="-182.11,106.69 -192.42,44.80">
        <lane id="19715_0" index="0" disallow="pedestrian tram rail_urban rail rail_electric rail_fast ship" speed="36.11" length="42.50" width="3.50" customShape="1" shape="-185.44,86.72 -188.93,65.76 -192.42,44.80"/>
    </edge>
    <edge id="19723" from="61" to="45" priority="3" type="highway.residential" spreadType="center" length="70.00" shape="-179.93,108.04 -267.53,129.90">
        <lane id="19723_0" index="0" disallow="pedestrian tram rail_urban rail rail_electric rail_fast ship" speed="36.11" length="70.00" width="3.50" customShape="1" shape="-199.60,112.99 -267.53,129.90"/>
    </edge>
    <edge id="19724" from="55" to="61" priority="3" type="highway.residential" spreadType="center" length="69.99" shape="-268.37,126.50 -180.78,104.65">
        <lane id="19724_0" index="0" disallow="pedestrian tram rail_urban rail rail_electric rail_fast ship" speed="36.11" length="69.99" width="3.50" customShape="1" shape="-268.37,126.50 -200.45,109.59"/>
    </edge>
    <edge id="19726" from="60" to="61" priority="3" type="highway.residential" spreadType="center" length="38.84" shape="-99.41,94.83 -180.14,108.08">
        <lane id="19726_0" index="0" disallow="pedestrian tram rail_urban rail rail_electric rail_fast ship" speed="36.11" length="38.84" width="3.50" customShape="1" shape="-122.72,93.01 -141.49,97.96 -160.28,102.91"/>
    </edge>
    <edge id="19727" from="61" to="60" priority="3" type="highway.residential" spreadType="center" length="38.86" shape="-180.71,104.63 -99.98,91.38">
        <lane id="19727_0" index="0" disallow="pedestrian tram rail_urban rail rail_electric rail_fast ship" speed="36.11" length="38.86" width="3.50" customShape="1" shape="-161.17,99.53 -142.38,94.57 -123.59,89.62"/>
    </edge>
    <edge id="19729" from="62" to="60" priority="3" type="highway.residential" spreadType="center" length="28.31" shape="-40.08,74.53 -99.13,94.76">
        <lane id="19729_0" index="0" disallow="pedestrian tram rail_urban rail rail_electric rail_fast ship" speed="36.11" length="28.31" width="3.50" customShape="1" shape="-55.94,75.72 -69.65,79.23 -83.37,82.74"/>
    </edge>
    <edge id="19730" from="60" to="62" priority="3" type="highway.residential" spreadType="center" length="28.33" shape="-100.27,91.45 -41.21,71.22">
        <lane id="19730_0" index="0" disallow="pedestrian tram rail_urban rail rail_electric rail_fast ship" speed="36.11" length="28.33" width="3.50" customShape="1" shape="-84.24,79.35 -70.52,75.84 -56.80,72.32"/>
    </edge>
    <edge id="19828" from="57" to="63" priority="3" type="highway.residential" spreadType="center" length="35.59" shape="-99.59,151.77 -164.86,160.70">
        <lane id="19828_0" index="0" disallow="pedestrian tram rail_urban rail rail_electric rail_fast ship" speed="36.11" length="35.59" width="3.50" customShape="1" shape="-117.12,149.29 -134.39,153.56 -151.67,157.82"/>
    </edge>
    <edge id="19829" from="63" to="57" priority="3" type="highway.residential" spreadType="center" length="35.59" shape="-165.34,157.24 -100.06,148.31">
        <lane id="19829_0" index="0" disallow="pedestrian tram rail_urban rail rail_electric rail_fast ship" speed="36.11" length="35.59" width="3.50" customShape="1" shape="-152.49,154.42 -135.23,150.16 -117.94,145.89"/>
    </edge>
    <edge id="19831" from="59" to="57" priority="3" type="highway.residential" spreadType="center" length="0.27" shape="-77.53,133.90 -98.71,151.39">
        <lane id="19831_0" index="0" disallow="pedestrian tram rail_urban rail rail_electric rail_fast ship" speed="36.11" length="0.27" width="3.50" customShape="1" shape="-86.67,141.68 -86.93,141.74"/>
    </edge>
    <edge id="19832" from="57" to="59" priority="3" type="highway.residential" spreadType="center" length="0.26" shape="-100.94,148.69 -79.75,131.20">
        <lane id="19832_0" index="0" disallow="pedestrian tram rail_urban rail rail_electric rail_fast ship" speed="36.11" length="0.26" width="3.50" customShape="1" shape="-87.77,138.35 -87.52,138.28"/>
    </edge>
    <edge id="19834" from="62" to="58" priority="3" type="highway.residential" spreadType="center" length="37.21" shape="-38.95,73.03 -47.36,153.03">
        <lane id="19834_0" index="0" disallow="pedestrian tram rail_urban rail rail_electric rail_fast ship" speed="36.11" length="37.21" width="3.50" customShape="1" shape="-34.50,92.89 -38.37,116.02 -40.96,129.53"/>
    </edge>
    <edge id="19835" from="58" to="62" priority="3" type="highway.residential" spreadType="center" length="37.12" shape="-50.84,152.66 -42.43,72.67">