<!-- generated on Tue Feb  9 22:00:51 2021 by Eclipse SUMO netconvert Version 1.8.0
<configuration xmlns:xsi="http://www.w3.org/2001/XMLSchema-instance" xsi:noNamespaceSchemaLocation="http://sumo.dlr.de/xsd/netconvertConfiguration.xsd">

    <input>
        <node-files value="./converted_scenarios/scenario-factory/ITA_Siderno-2_4_I-1-1/ITA_Siderno-2_4_I-1-1.nod.xml"/>
        <edge-files value="./converted_scenarios/scenario-factory/ITA_Siderno-2_4_I-1-1/ITA_Siderno-2_4_I-1-1.edg.xml"/>
        <connection-files value="./converted_scenarios/scenario-factory/ITA_Siderno-2_4_I-1-1/ITA_Siderno-2_4_I-1-1.con.xml"/>
        <tllogic-files value="./converted_scenarios/scenario-factory/ITA_Siderno-2_4_I-1-1/ITA_Siderno-2_4_I-1-1.tll.xml"/>
        <type-files value="/home/zen/commonroad-interactive-benchmarks/install/commonroad-map-tool/crmapconverter/sumo_map/templates/DEU.typ.xml"/>
    </input>

    <output>
        <output-file value="./converted_scenarios/scenario-factory/ITA_Siderno-2_4_I-1-1/ITA_Siderno-2_4_I-1-1.net.xml"/>
    </output>

    <processing>
        <geometry.remove.keep-edges.explicit value="true"/>
        <geometry.avoid-overlap value="true"/>
        <offset.disable-normalization value="true"/>
    </processing>

    <junctions>
        <no-turnarounds value="true"/>
        <junctions.internal-link-detail value="20"/>
    </junctions>

    <report>
        <aggregate-warnings value="5"/>
    </report>

    <random_number>
        <seed value="1234"/>
    </random_number>

</configuration>
--><net xmlns:xsi="http://www.w3.org/2001/XMLSchema-instance" version="1.6" junctionCornerDetail="5" junctionLinkDetail="20" limitTurnSpeed="5.50" xsi:noNamespaceSchemaLocation="http://sumo.dlr.de/xsd/net_file.xsd">

    <location netOffset="0.00,0.00" convBoundary="136.80,-706.38,345.13,-509.64" origBoundary="136.80,-706.38,345.13,-509.64" projParameter="!"/>

    <type id="highway.bridleway" priority="1" speed="2.78" allow="pedestrian" oneway="1" width="2.00"/>
    <type id="highway.bus_guideway" priority="1" speed="27.78" allow="bus" oneway="1"/>
    <type id="highway.cycleway" priority="1" speed="8.33" allow="bicycle" oneway="0" width="1.00"/>
    <type id="highway.footway" priority="1" speed="2.78" allow="pedestrian" oneway="1" width="2.00"/>
    <type id="highway.ford" priority="1" speed="2.78" allow="army" oneway="0"/>
    <type id="highway.living_street" priority="2" speed="2.78" disallow="tram rail_urban rail rail_electric rail_fast ship" oneway="0"/>
    <type id="highway.motorway" priority="14" speed="39.44" allow="private emergency authority army vip passenger hov taxi bus coach delivery truck trailer motorcycle evehicle custom1 custom2" oneway="1"/>
    <type id="highway.motorway_link" priority="9" speed="22.22" allow="private emergency authority army vip passenger hov taxi bus coach delivery truck trailer motorcycle evehicle custom1 custom2" oneway="1"/>
    <type id="highway.path" priority="1" speed="2.78" allow="pedestrian bicycle" oneway="0" width="2.00"/>
    <type id="highway.pedestrian" priority="1" speed="2.78" allow="pedestrian" oneway="1" width="2.00"/>
    <type id="highway.primary" priority="12" speed="27.78" disallow="pedestrian tram rail_urban rail rail_electric rail_fast ship" oneway="0"/>
    <type id="highway.primary_link" priority="7" speed="22.22" disallow="pedestrian tram rail_urban rail rail_electric rail_fast ship" oneway="0"/>
    <type id="highway.raceway" priority="15" speed="83.33" allow="vip" oneway="0"/>
    <type id="highway.residential" priority="3" speed="13.89" disallow="pedestrian tram rail_urban rail rail_electric rail_fast ship" oneway="0"/>
    <type id="highway.secondary" priority="11" speed="27.78" disallow="pedestrian tram rail_urban rail rail_electric rail_fast ship" oneway="0"/>
    <type id="highway.secondary_link" priority="6" speed="22.22" disallow="pedestrian tram rail_urban rail rail_electric rail_fast ship" oneway="0"/>
    <type id="highway.service" priority="1" speed="5.56" allow="pedestrian delivery bicycle" oneway="0"/>
    <type id="highway.stairs" priority="1" speed="1.39" allow="pedestrian" oneway="1" width="2.00"/>
    <type id="highway.step" priority="1" speed="1.39" allow="pedestrian" oneway="1" width="2.00"/>
    <type id="highway.steps" priority="1" speed="1.39" allow="pedestrian" oneway="1" width="2.00"/>
    <type id="highway.tertiary" priority="10" speed="22.22" disallow="pedestrian tram rail_urban rail rail_electric rail_fast ship" oneway="0"/>
    <type id="highway.tertiary_link" priority="5" speed="22.22" disallow="pedestrian tram rail_urban rail rail_electric rail_fast ship" oneway="0"/>
    <type id="highway.track" priority="1" speed="5.56" allow="pedestrian motorcycle moped bicycle" oneway="0"/>
    <type id="highway.trunk" priority="13" speed="27.78" disallow="pedestrian bicycle tram rail_urban rail rail_electric rail_fast ship" oneway="0"/>
    <type id="highway.trunk_link" priority="8" speed="22.22" disallow="pedestrian bicycle tram rail_urban rail rail_electric rail_fast ship" oneway="0"/>
    <type id="highway.unclassified" priority="4" speed="13.89" disallow="pedestrian tram rail_urban rail rail_electric rail_fast ship" oneway="0"/>
    <type id="highway.unsurfaced" priority="1" speed="8.33" disallow="tram rail_urban rail rail_electric rail_fast ship" oneway="0"/>
    <type id="railway.highspeed" priority="21" speed="69.44" allow="rail_fast" oneway="1"/>
    <type id="railway.light_rail" priority="19" speed="27.78" allow="rail_urban" oneway="1"/>
    <type id="railway.preserved" priority="16" speed="27.78" allow="rail" oneway="1"/>
    <type id="railway.rail" priority="20" speed="44.44" allow="rail" oneway="1"/>
    <type id="railway.subway" priority="18" speed="27.78" allow="rail_urban" oneway="1"/>
    <type id="railway.tram" priority="17" speed="13.89" allow="tram" oneway="1"/>

    <edge id=":45_0" function="internal">
        <lane id=":45_0_0" index="0" disallow="pedestrian tram rail_urban rail rail_electric rail_fast ship" speed="11.01" length="28.61" width="3.50" shape="227.29,-558.78 225.80,-560.38 224.17,-561.87 222.41,-563.18 220.50,-564.27 219.49,-564.71 218.44,-565.06 217.37,-565.32 216.29,-565.49 215.19,-565.56 214.09,-565.52 212.99,-565.39 211.92,-565.16 209.83,-564.47 207.85,-563.50 205.98,-562.34 204.22,-561.01 202.56,-559.56"/>
    </edge>
    <edge id=":45_1" function="internal">
        <lane id=":45_1_0" index="0" disallow="pedestrian tram rail_urban rail rail_electric rail_fast ship" speed="36.11" length="39.74" width="3.50" shape="227.29,-558.78 211.70,-577.07 201.70,-589.18"/>
    </edge>
    <edge id=":45_2" function="internal">
        <lane id=":45_2_0" index="0" disallow="pedestrian tram rail_urban rail rail_electric rail_fast ship" speed="12.47" length="34.58" width="3.50" shape="227.29,-558.78 225.74,-560.71 224.31,-562.77 223.06,-564.98 222.05,-567.35 221.35,-569.86 221.01,-572.44 221.00,-573.79 221.10,-575.11 221.30,-576.42 221.61,-577.73 222.48,-580.16 223.66,-582.45 225.07,-584.57 226.66,-586.53 229.25,-589.18"/>
    </edge>
    <edge id=":45_3" function="internal">
        <lane id=":45_3_0" index="0" disallow="pedestrian tram rail_urban rail rail_electric rail_fast ship" speed="11.48" length="29.14" width="3.50" shape="231.63,-586.62 229.37,-584.31 228.01,-582.63 226.81,-580.83 225.82,-578.91 225.09,-576.88 224.84,-575.83 224.67,-574.76 224.59,-573.69 224.60,-572.61 224.87,-570.46 225.45,-568.39 226.30,-566.40 227.36,-564.52 228.59,-562.74 229.94,-561.07"/>
    </edge>
    <edge id=":45_4" function="internal">
        <lane id=":45_4_0" index="0" disallow="pedestrian tram rail_urban rail rail_electric rail_fast ship" speed="36.11" length="39.72" width="3.50" shape="231.63,-586.62 217.10,-573.09 202.56,-559.56"/>
    </edge>
    <edge id=":45_5" function="internal">
        <lane id=":45_5_0" index="0" disallow="pedestrian tram rail_urban rail rail_electric rail_fast ship" speed="12.00" length="35.03" width="3.50" shape="231.63,-586.62 229.60,-584.86 227.43,-583.26 225.12,-581.88 222.65,-580.80 221.37,-580.39 220.06,-580.08 218.73,-579.90 217.38,-579.83 216.04,-579.90 214.70,-580.09 213.39,-580.41 212.12,-580.84 210.88,-581.38 208.55,-582.72 206.39,-584.33 204.41,-586.16 201.70,-589.18"/>
    </edge>
    <edge id=":45_6" function="internal">
        <lane id=":45_6_0" index="0" disallow="pedestrian tram rail_urban rail rail_electric rail_fast ship" speed="10.99" length="29.18" width="3.50" shape="204.42,-591.39 206.79,-588.74 208.47,-587.19 210.29,-585.82 212.24,-584.70 213.22,-584.28 214.25,-583.92 215.29,-583.67 216.34,-583.51 217.40,-583.46 218.47,-583.51 219.54,-583.65 220.59,-583.90 221.61,-584.22 223.68,-585.13 225.63,-586.29 227.49,-587.66 229.25,-589.18"/>
    </edge>
    <edge id=":45_7" function="internal">
        <lane id=":45_7_0" index="0" disallow="pedestrian tram rail_urban rail rail_electric rail_fast ship" speed="36.11" length="39.63" width="3.50" shape="204.42,-591.39 214.38,-579.31 229.94,-561.07"/>
    </edge>
    <edge id=":45_8" function="internal">
        <lane id=":45_8_0" index="0" disallow="pedestrian tram rail_urban rail rail_electric rail_fast ship" speed="12.84" length="36.04" width="3.50" shape="204.42,-591.39 206.72,-588.26 208.06,-586.06 209.20,-583.75 210.09,-581.34 210.69,-578.84 210.94,-576.28 210.82,-573.72 210.31,-571.20 209.44,-568.77 208.28,-566.48 206.86,-564.33 205.25,-562.33 202.56,-559.56"/>
    </edge>
    <edge id=":45_9" function="internal">
        <lane id=":45_9_0" index="0" disallow="pedestrian tram rail_urban rail rail_electric rail_fast ship" speed="11.88" length="30.71" width="3.50" shape="200.18,-562.12 202.55,-564.56 203.94,-566.29 205.14,-568.12 206.13,-570.06 206.84,-572.08 207.26,-574.16 207.36,-576.27 207.15,-578.39 206.64,-580.49 205.88,-582.53 204.90,-584.52 203.74,-586.42 201.70,-589.18"/>
    </edge>
    <edge id=":45_10" function="internal">
        <lane id=":45_10_0" index="0" disallow="pedestrian tram rail_urban rail rail_electric rail_fast ship" speed="36.11" length="39.72" width="3.50" shape="200.18,-562.12 214.72,-575.66 229.25,-589.18"/>
    </edge>
    <edge id=":45_11" function="internal">
        <lane id=":45_11_0" index="0" disallow="pedestrian tram rail_urban rail rail_electric rail_fast ship" speed="12.02" length="34.34" width="3.50" shape="200.18,-562.12 202.10,-563.80 204.15,-565.34 206.35,-566.71 208.73,-567.86 211.23,-568.69 212.59,-568.97 213.95,-569.13 215.32,-569.17 216.69,-569.08 218.04,-568.87 219.37,-568.54 220.65,-568.10 221.92,-567.55 224.20,-566.24 226.30,-564.68 228.20,-562.93 229.94,-561.07"/>
    </edge>
    <edge id=":46_0" function="internal">
        <lane id=":46_0_0" index="0" disallow="pedestrian tram rail_urban rail rail_electric rail_fast ship" speed="36.11" length="40.14" width="3.50" shape="182.07,-616.96 168.96,-639.12 163.39,-648.96 161.96,-651.69"/>
    </edge>
    <edge id=":46_1" function="internal">
        <lane id=":46_1_0" index="0" disallow="pedestrian tram rail_urban rail rail_electric rail_fast ship" speed="13.61" length="36.37" width="3.50" shape="182.07,-616.96 181.44,-618.07 180.38,-620.23 179.53,-622.53 178.93,-624.91 178.61,-627.37 178.60,-629.85 178.90,-632.30 179.47,-634.70 180.30,-636.99 181.34,-639.18 182.56,-641.27 184.62,-644.16 186.93,-646.84 189.41,-649.34"/>
    </edge>
    <edge id=":46_2" function="internal">
        <lane id=":46_2_0" index="0" disallow="pedestrian tram rail_urban rail rail_electric rail_fast ship" speed="12.70" length="31.54" width="3.50" shape="191.81,-646.80 189.58,-644.56 187.52,-642.17 185.67,-639.61 184.60,-637.80 183.68,-635.91 182.95,-633.94 182.43,-631.90 182.15,-629.82 182.14,-627.72 182.39,-625.63 182.88,-623.59 183.61,-621.61 184.52,-619.72 185.04,-618.81"/>
    </edge>
    <edge id=":46_3" function="internal">
        <lane id=":46_3_0" index="0" disallow="pedestrian tram rail_urban rail rail_electric rail_fast ship" speed="11.61" length="37.77" width="3.50" shape="191.81,-646.80 188.50,-643.95 186.14,-642.26 183.61,-640.82 182.29,-640.23 180.92,-639.73 179.52,-639.37 178.08,-639.14 176.63,-639.09 175.18,-639.21 173.76,-639.52 172.40,-640.01 171.10,-640.65 169.87,-641.44 168.73,-642.33 167.67,-643.32 165.76,-645.51 164.09,-647.89 161.96,-651.69"/>
    </edge>
    <edge id=":46_4" function="internal">
        <lane id=":46_4_0" index="0" disallow="pedestrian tram rail_urban rail rail_electric rail_fast ship" speed="10.56" length="31.05" width="3.50" shape="165.07,-653.29 166.94,-649.96 168.35,-647.95 169.96,-646.10 170.81,-645.32 171.72,-644.60 172.68,-643.99 173.68,-643.49 174.72,-643.13 175.79,-642.89 176.88,-642.81 177.99,-642.85 179.10,-643.03 180.21,-643.32 181.32,-643.72 182.38,-644.20 184.52,-645.43 186.53,-646.86 189.41,-649.34"/>
    </edge>
    <edge id=":46_5" function="internal">
        <lane id=":46_5_0" index="0" disallow="pedestrian tram rail_urban rail rail_electric rail_fast ship" speed="36.11" length="39.85" width="3.50" shape="165.07,-653.29 166.49,-650.59 172.01,-640.82 185.04,-618.81"/>
    </edge>
    <edge id=":47_0" function="internal">
        <lane id=":47_0_0" index="0" disallow="pedestrian tram rail_urban rail rail_electric rail_fast ship" speed="11.23" length="28.68" width="3.50" shape="294.57,-621.08 292.93,-622.71 291.21,-624.18 289.38,-625.46 287.46,-626.51 285.41,-627.28 284.41,-627.53 283.36,-627.70 282.31,-627.79 281.26,-627.77 280.21,-627.67 279.16,-627.47 278.15,-627.21 276.09,-626.42 274.14,-625.37 272.29,-624.12 269.63,-621.89"/>
    </edge>
    <edge id=":47_1" function="internal">
        <lane id=":47_1_0" index="0" disallow="pedestrian tram rail_urban rail rail_electric rail_fast ship" speed="36.11" length="38.71" width="3.50" shape="298.01,-648.22 283.82,-635.06 269.63,-621.89"/>
    </edge>
    <edge id=":47_2" function="internal">
        <lane id=":47_2_0" index="0" disallow="pedestrian tram rail_urban rail rail_electric rail_fast ship" speed="36.11" length="38.69" width="3.50" shape="267.25,-624.45 281.44,-637.62 295.61,-650.77"/>
    </edge>
    <edge id=":47_3" function="internal">
        <lane id=":47_3_0" index="0" disallow="pedestrian tram rail_urban rail rail_electric rail_fast ship" speed="12.23" length="34.23" width="3.50" shape="267.25,-624.46 270.30,-627.00 272.48,-628.48 274.80,-629.72 277.25,-630.66 278.52,-631.00 279.81,-631.24 281.12,-631.37 282.43,-631.39 283.74,-631.29 285.04,-631.07 286.31,-630.75 288.77,-629.82 291.08,-628.56 293.23,-627.05 295.23,-625.35 297.12,-623.48"/>
    </edge>
    <edge id=":48_0" function="internal">
        <lane id=":48_0_0" index="0" disallow="pedestrian tram rail_urban rail rail_electric rail_fast ship" speed="10.68" length="30.33" width="3.50" shape="243.58,-668.09 241.54,-671.22 240.06,-673.13 238.42,-674.87 236.60,-676.38 235.67,-676.99 234.68,-677.52 233.66,-677.94 232.62,-678.25 231.55,-678.43 230.47,-678.48 229.38,-678.41 228.29,-678.22 227.21,-677.91 226.15,-677.51 225.12,-677.03 223.06,-675.80 221.13,-674.36 219.30,-672.75"/>
    </edge>
    <edge id=":48_1" function="internal">
        <lane id=":48_1_0" index="0" disallow="pedestrian tram rail_urban rail rail_electric rail_fast ship" speed="36.11" length="30.14" width="3.50" shape="243.57,-668.10 243.09,-668.87 242.49,-669.83 241.76,-670.95 240.93,-672.21 240.01,-673.58 239.02,-675.05 237.97,-676.60 236.88,-678.19 235.76,-679.81 234.63,-681.44 233.50,-683.06 232.39,-684.63 231.31,-686.15 230.27,-687.59 229.30,-688.93 228.41,-690.14 227.60,-691.20 226.91,-692.10 226.33,-692.81"/>
    </edge>
    <edge id=":48_2" function="internal">
        <lane id=":48_2_0" index="0" disallow="pedestrian tram rail_urban rail rail_electric rail_fast ship" speed="16.57" length="20.42" width="3.50" shape="243.57,-668.10 243.16,-668.82 242.74,-669.64 242.30,-670.53 241.87,-671.49 241.44,-672.51 241.02,-673.58 240.61,-674.69 240.21,-675.83 239.84,-676.99 239.49,-678.16 239.16,-679.33 238.88,-680.49 238.63,-681.64 238.42,-682.75 238.26,-683.82 238.15,-684.85 238.10,-685.82 238.11,-686.72 238.19,-687.55"/>
    </edge>
    <edge id=":48_3" function="internal">
        <lane id=":48_3_0" index="0" disallow="pedestrian tram rail_urban rail rail_electric rail_fast ship" speed="10.72" length="21.42" width="3.50" shape="242.26,-690.31 241.98,-689.19 241.70,-687.08 241.65,-684.94 241.81,-682.81 242.16,-680.71 242.99,-677.62 244.14,-674.63 245.54,-671.75 246.58,-669.89"/>
    </edge>
    <edge id=":48_4" function="internal">
        <lane id=":48_4_0" index="0" disallow="pedestrian tram rail_urban rail rail_electric rail_fast ship" speed="36.11" length="28.71" width="3.50" shape="240.01,-692.63 229.66,-682.59 219.30,-672.75"/>
    </edge>
    <edge id=":48_5" function="internal">
        <lane id=":48_5_0" index="0" disallow="pedestrian tram rail_urban rail rail_electric rail_fast ship" speed="36.11" length="30.73" width="3.50" shape="229.01,-695.06 231.21,-692.45 235.67,-686.60 240.46,-679.69 244.96,-672.59 246.58,-669.89"/>
    </edge>
    <edge id=":48_6" function="internal">
        <lane id=":48_6_0" index="0" disallow="pedestrian tram rail_urban rail rail_electric rail_fast ship" speed="10.23" length="24.07" width="3.50" shape="227.69,-693.94 227.75,-693.75 228.08,-692.41 228.28,-691.05 228.35,-689.67 228.30,-688.29 228.13,-686.92 227.84,-685.59 227.43,-684.27 226.41,-681.84 225.10,-679.55 223.60,-677.44 221.95,-675.46 219.30,-672.75"/>
    </edge>
    <edge id=":48_7" function="internal">
        <lane id=":48_7_0" index="0" disallow="pedestrian tram rail_urban rail rail_electric rail_fast ship" speed="9.90" length="20.99" width="3.50" shape="216.89,-675.29 218.23,-676.57 219.47,-677.82 220.61,-679.02 221.67,-680.18 222.62,-681.29 223.48,-682.37 224.25,-683.40 224.92,-684.40 225.49,-685.35 225.98,-686.26 226.36,-687.12 226.65,-687.95 226.85,-688.73 226.95,-689.47 226.96,-690.17 226.87,-690.83 226.69,-691.45 226.41,-692.02 226.04,-692.56"/>
    </edge>
    <edge id=":48_8" function="internal">
        <lane id=":48_8_0" index="0" disallow="pedestrian tram rail_urban rail rail_electric rail_fast ship" speed="36.11" length="28.67" width="3.50" shape="216.89,-675.29 237.57,-695.14"/>
    </edge>
    <edge id=":48_9" function="internal">
        <lane id=":48_9_0" index="0" disallow="pedestrian tram rail_urban rail rail_electric rail_fast ship" speed="11.72" length="36.79" width="3.50" shape="216.89,-675.29 219.02,-677.16 221.28,-678.86 223.71,-680.31 224.99,-680.91 226.31,-681.42 227.67,-681.81 229.06,-682.06 230.47,-682.17 231.89,-682.11 233.28,-681.88 234.65,-681.50 235.96,-680.97 237.21,-680.30 238.39,-679.53 240.57,-677.73 242.52,-675.68 244.27,-673.45 246.58,-669.89"/>
    </edge>

    <edge id="45982" from="45" to="10" priority="3" type="highway.residential" spreadType="center" length="70.00" shape="217.06,-573.46 149.80,-513.56">
        <lane id="45982_0" index="0" disallow="pedestrian tram rail_urban rail rail_electric rail_fast ship" speed="36.11" length="70.00" width="3.50" customShape="1" shape="202.56,-559.56 196.65,-554.13 149.80,-513.56"/>
    </edge>
    <edge id="45983" from="23" to="45" priority="3" type="highway.residential" spreadType="center" length="70.02" shape="147.41,-516.13 214.73,-576.07">
        <lane id="45983_0" index="0" disallow="pedestrian tram rail_urban rail rail_electric rail_fast ship" speed="36.11" length="70.02" width="3.50" customShape="1" shape="147.41,-516.13 194.30,-556.72 200.19,-562.14"/>
    </edge>
    <edge id="45985" from="47" to="45" priority="3" type="highway.residential" spreadType="center" length="51.85" shape="288.15,-630.31 216.96,-573.37">
        <lane id="45985_0" index="0" disallow="pedestrian tram rail_urban rail rail_electric rail_fast ship" speed="36.11" length="51.85" width="3.50" customShape="1" shape="269.63,-621.89 250.65,-604.27 231.63,-586.62"/>
    </edge>
    <edge id="45986" from="45" to="47" priority="3" type="highway.residential" spreadType="center" length="51.88" shape="214.78,-576.11 285.97,-633.04">
        <lane id="45986_0" index="0" disallow="pedestrian tram rail_urban rail rail_electric rail_fast ship" speed="36.11" length="51.88" width="3.50" customShape="1" shape="229.25,-589.18 248.27,-606.83 267.28,-624.47"/>
    </edge>
    <edge id="45988" from="38" to="47" priority="3" type="highway.residential" spreadType="center" length="6.00" shape="302.39,-652.29 288.44,-630.61">
        <lane id="45988_0" index="0" disallow="pedestrian tram rail_urban rail rail_electric rail_fast ship" speed="36.11" length="6.00" width="3.49" customShape="1" shape="302.39,-652.29 298.73,-648.89 298.36,-648.55 297.99,-648.21"/>
    </edge>
    <edge id="45989" from="47" to="28" priority="3" type="highway.residential" spreadType="center" length="5.99" shape="285.51,-632.51 300.00,-654.84">
        <lane id="45989_0" index="0" disallow="pedestrian tram rail_urban rail rail_electric rail_fast ship" speed="36.11" length="5.99" width="3.50" customShape="1" shape="295.61,-650.77 295.98,-651.11 296.34,-651.44 300.00,-654.84"/>
    </edge>
    <edge id="46196" from="46" to="19" priority="3" type="highway.residential" spreadType="center" length="47.85" shape="177.86,-638.39 136.80,-692.01">
        <lane id="46196_0" index="0" disallow="pedestrian tram rail_urban rail rail_electric rail_fast ship" speed="36.11" length="47.85" width="3.50" customShape="1" shape="161.96,-651.69 155.91,-663.71 150.13,-674.19 146.72,-680.27 144.28,-684.04 141.83,-687.19 139.44,-689.73 136.80,-692.01"/>
    </edge>
    <edge id="46197" from="27" to="46" priority="3" type="highway.residential" spreadType="center" length="49.36" shape="138.98,-694.75 180.64,-640.52">
        <lane id="46197_0" index="0" disallow="pedestrian tram rail_urban rail rail_electric rail_fast ship" speed="36.11" length="49.36" width="3.50" customShape="1" shape="138.98,-694.75 141.77,-692.34 144.33,-689.65 146.94,-686.34 149.51,-682.42 153.03,-676.18 158.92,-665.51 165.09,-653.27"/>
    </edge>
    <edge id="46199" from="45" to="46" priority="3" type="highway.residential" spreadType="center" length="34.11" shape="214.35,-573.88 177.68,-638.67">
        <lane id="46199_0" index="0" disallow="pedestrian tram rail_urban rail rail_electric rail_fast ship" speed="36.11" length="34.11" width="3.50" customShape="1" shape="201.70,-589.18 197.59,-594.34 191.77,-602.07 187.16,-608.79 182.04,-617.02"/>
    </edge>
    <edge id="46200" from="46" to="45" priority="3" type="highway.residential" spreadType="center" length="33.64" shape="180.72,-640.39 217.39,-575.60">
        <lane id="46200_0" index="0" disallow="pedestrian tram rail_urban rail rail_electric rail_fast ship" speed="36.11" length="33.64" width="3.50" customShape="1" shape="185.04,-618.81 190.09,-610.71 194.62,-604.10 200.36,-596.48 204.44,-591.37"/>
    </edge>
    <edge id="46202" from="26" to="45" priority="3" type="highway.residential" spreadType="center" length="70.03" shape="275.91,-509.64 214.59,-573.55">
        <lane id="46202_0" index="0" disallow="pedestrian tram rail_urban rail rail_electric rail_fast ship" speed="36.11" length="70.03" width="3.50" customShape="1" shape="275.91,-509.64 270.11,-512.53 266.17,-514.78 262.86,-517.07 259.73,-519.62 256.44,-522.74 252.33,-527.18 248.16,-532.23 240.62,-542.32 235.10,-549.52 227.27,-558.81"/>
    </edge>
    <edge id="46203" from="45" to="13" priority="3" type="highway.residential" spreadType="center" length="70.01" shape="217.11,-575.98 278.72,-512.14">
        <lane id="46203_0" index="0" disallow="pedestrian tram rail_urban rail rail_electric rail_fast ship" speed="36.11" length="70.01" width="3.50" customShape="1" shape="229.94,-561.07 237.78,-551.77 243.34,-544.53 250.86,-534.46 254.97,-529.48 259.01,-525.13 262.21,-522.10 265.24,-519.66 268.46,-517.48 272.33,-515.33 278.72,-512.14"/>
    </edge>
    <edge id="46279" from="39" to="48" priority="3" type="highway.residential" spreadType="center" length="19.13">
        <lane id="46279_0" index="0" disallow="pedestrian tram rail_urban rail rail_electric rail_fast ship" speed="36.11" length="19.13" width="3.50" customShape="1" shape="253.70,-705.99 250.14,-702.48 249.43,-701.78 240.07,-692.57"/>
    </edge>
    <edge id="46281" from="46" to="48" priority="3" type="highway.residential" spreadType="center" length="37.80" shape="178.14,-640.87 231.82,-683.03">
        <lane id="46281_0" index="0" disallow="pedestrian tram rail_urban rail rail_electric rail_fast ship" speed="36.11" length="37.80" width="3.50" customShape="1" shape="189.41,-649.34 203.15,-662.31 216.89,-675.29"/>
    </edge>
    <edge id="46282" from="48" to="46" priority="3" type="highway.residential" spreadType="center" length="37.82" shape="233.98,-680.28 180.30,-638.12">
        <lane id="46282_0" index="0" disallow="pedestrian tram rail_urban rail rail_electric rail_fast ship" speed="36.11" length="37.82" width="3.50" customShape="1" shape="219.30,-672.75 205.55,-659.77 191.80,-646.79"/>
    </edge>
    <edge id="46475" from="37" to="47" priority="3" type="highway.residential" spreadType="center" length="70.00" shape="342.58,-570.14 285.74,-630.48">
        <lane id="46475_0" index="0" disallow="pedestrian tram rail_urban rail rail_electric rail_fast ship" speed="36.11" length="70.00" width="3.50" customShape="1" shape="342.58,-570.14 319.69,-594.43 294.57,-621.08"/>
    </edge>
    <edge id="46476" from="47" to="29" priority="3" type="highway.residential" spreadType="center" length="70.01" shape="288.28,-632.88 345.13,-572.53">
        <lane id="46476_0" index="0" disallow="pedestrian tram rail_urban rail rail_electric rail_fast ship" speed="36.11" length="70.01" width="3.50" customShape="1" shape="297.12,-623.48 322.24,-596.83 345.13,-572.53"/>
    </edge>
    <edge id="46648" from="48" to="35" priority="3" type="highway.residential" spreadType="center" length="37.45" shape="233.31,-683.32 275.11,-670.48">
        <lane id="46648_0" index="0" disallow="pedestrian tram rail_urban rail rail_electric rail_fast ship" speed="36.11" length="37.45" width="3.50" customShape="1" shape="246.58,-669.89 247.07,-669.06 248.93,-666.26 250.43,-664.38 252.12,-662.68 253.64,-661.51 255.31,-660.56 257.11,-659.90 259.00,-659.55 260.92,-659.49 262.82,-659.71 264.67,-660.23 266.42,-661.04 268.03,-662.08 269.50,-663.32 271.17,-665.04 272.96,-667.30 275.11,-670.48"/>
    </edge>
    <edge id="46649" from="36" to="48" priority="3" type="highway.residential" spreadType="center" length="44.55" shape="278.06,-668.59 232.38,-679.95">
        <lane id="46649_0" index="0" disallow="pedestrian tram rail_urban rail rail_electric rail_fast ship" speed="36.11" length="44.55" width="3.50" customShape="1" shape="278.06,-668.59 275.63,-665.02 273.53,-662.44 271.54,-660.45 269.74,-659.02 267.75,-657.79 265.59,-656.85 263.30,-656.25 260.96,-656.00 258.60,-656.08 256.27,-656.51 254.03,-657.30 251.95,-658.43 250.07,-659.84 248.03,-661.82 246.25,-664.00 244.13,-667.16 243.57,-668.10"/>
    </edge>
    <edge id="46651" from="40" to="48" priority="3" type="highway.residential" spreadType="center" length="15.51">
        <lane id="46651_0" index="0" disallow="pedestrian tram rail_urban rail rail_electric rail_fast ship" speed="36.11" length="15.51" width="3.50" customShape="1" shape="218.45,-706.38 221.99,-702.85 222.07,-702.76 229.34,-695.34"/>
    </edge>
    <edge id="47192" from="48" to="49" priority="3" type="highway.residential" spreadType="center" length="10.61">
        <lane id="47192_0" index="0" disallow="pedestrian tram rail_urban rail rail_electric rail_fast ship" speed="36.11" length="10.61" width="3.50" customShape="1" shape="237.57,-695.14 245.19,-702.53"/>
    </edge>
    <edge id="47193" from="48" to="49" priority="3" type="highway.residential" spreadType="center" length="8.47">
        <lane id="47193_0" index="0" disallow="pedestrian tram rail_urban rail rail_electric rail_fast ship" speed="36.11" length="8.47" width="3.50" customShape="1" shape="226.04,-692.56 220.67,-699.11"/>
    </edge>
    <edge id="47787" from="48" to="49" priority="3" type="highway.residential" spreadType="center" length="8.47">
        <lane id="47787_0" index="0" disallow="pedestrian tram rail_urban rail rail_electric rail_fast ship" speed="36.11" length="8.47" width="3.50" customShape="1" shape="226.33,-692.81 223.87,-695.73 220.69,-699.13"/>
    </edge>
    <edge id="47789" from="48" to="49" priority="3" type="highway.residential" spreadType="center" length="16.82">
        <lane id="47789_0" index="0" disallow="pedestrian tram rail_urban rail rail_electric rail_fast ship" speed="36.11" length="16.82" width="3.50" customShape="1" shape="238.19,-687.55 238.53,-689.98 239.13,-692.37 239.99,-694.68 241.08,-696.88 242.37,-698.96 243.83,-700.91 245.25,-702.46"/>
    </edge>

    <junction id="10" type="dead_end" x="149.80" y="-513.56" incLanes="45982_0" intLanes="" shape="150.94,-512.24 148.65,-514.89" rightOfWay="edgePriority"/>
    <junction id="13" type="dead_end" x="278.72" y="-512.14" incLanes="46203_0" intLanes="" shape="279.50,-513.71 277.94,-510.58" rightOfWay="edgePriority"/>
    <junction id="19" type="dead_end" x="136.80" y="-692.01" incLanes="46196_0" intLanes="" shape="135.66,-690.69 137.95,-693.33" rightOfWay="edgePriority"/>
    <junction id="23" type="dead_end" x="147.41" y="-516.13" incLanes="" intLanes="" shape="148.56,-514.80 146.27,-517.45" rightOfWay="edgePriority"/>
    <junction id="26" type="dead_end" x="275.91" y="-509.64" incLanes="" intLanes="" shape="276.69,-511.20 275.13,-508.07" rightOfWay="edgePriority"/>
    <junction id="27" type="dead_end" x="138.98" y="-694.75" incLanes="" intLanes="" shape="137.84,-693.42 140.12,-696.07" rightOfWay="edgePriority"/>
    <junction id="28" type="dead_end" x="300.00" y="-654.84" incLanes="45989_0" intLanes="" shape="298.81,-656.13 301.19,-653.56" rightOfWay="edgePriority"/>
    <junction id="29" type="dead_end" x="345.13" y="-572.53" incLanes="46476_0" intLanes="" shape="346.40,-573.73 343.86,-571.33" rightOfWay="edgePriority"/>