<routes>
	<vehicle depart="0.1" departLane="0" departPos="10.942698085487448" departSpeed="1.2807217" id="31" type="passenger">
		<route edges="46200 45986"/>
	</vehicle>
	<vehicle depart="0.1" departLane="0" departPos="20.434375176672408" departSpeed="0.29389155" id="310" type="passenger">
		<route edges=":46_3 46196"/>
	</vehicle>
	<vehicle depart="0.1" departLane="0" departPos="2.5" departSpeed="0.23902987" id="346" type="passenger">
		<route edges="46200 45986"/>
	</vehicle>
	<vehicle depart="0.1" departLane="0" departPos="32.63336989655887" departSpeed="1.1443408" id="352" type="passenger">
		<route edges=":46_5 46200"/>
	</vehicle>
	<vehicle depart="0.1" departLane="0" departPos="5.509510806982288" departSpeed="1.010038" id="353" type="passenger">
		<route edges=":46_5 46200 45986"/>
	</vehicle>
	<vehicle depart="0.1" departLane="0" departPos="37.48626949219919" departSpeed="0.85541765" id="359" type="passenger">
		<route edges="46197 46200"/>
	</vehicle>
	<vehicle depart="0.1" departLane="0" departPos="27.93473635842482" departSpeed="0.75623714" id="363" type="passenger">
		<route edges="46197 46200"/>
	</vehicle>
	<vehicle depart="0.1" departLane="0" departPos="20.709288685739875" departSpeed="1.0430529" id="369" type="passenger">
		<route edges="46197 46200"/>
	</vehicle>
	<vehicle depart="0.1" departLane="0" departPos="12.009580399591783" departSpeed="1.6902632" id="374" type="truck">
		<route edges="46197 46200"/>
	</vehicle>
</routes>
