<!-- generated on 2020-12-18 15:54:15.443603 by ipykernel_launcher.py v1_2_0+5214-53edc58fcd
-->
<edges>
	<edge from="1" function="normal" id="20" length="29.47991707134211" numLanes="5" priority="1" speed="36.11111111111111" spreadType="center" to="2">
		<lane allow="moped bicycle pedestrian custom1 trailer evehicle rail_urban ship private vip custom2 authority delivery rail_electric taxi tram army hov coach motorcycle passenger rail emergency" index="0" length="29.47991707134211" shape="-31.60615,32.02105 -31.4698,31.8976 -30.6704,31.1652 -27.7512,28.44895 -24.68895,25.6997 -19.87555,21.5305 -16.92805,18.885599999999997 -15.379650000000002,17.546149999999997 -9.4415,12.38215 -9.43205,12.373899999999999" speed="36.11111111111111" width="3.643499496363352"/>
		<lane allow="moped bicycle pedestrian custom1 trailer evehicle rail_urban ship private truck vip custom2 authority delivery rail_electric taxi tram army hov coach motorcycle passenger rail emergency" index="1" length="29.47991707134211" shape="-29.2453,34.66645 -28.238500000000002,33.741749999999996 -27.4162,32.97495 -25.37775,31.1179 -19.5538,25.998800000000003 -17.51765,24.16565 -16.6673,23.372700000000002 -14.667850000000001,21.56585 -8.5549,16.2381 -7.156700000000001,14.9809" speed="36.11111111111111" width="3.250550685653126"/>
		<lane allow="moped bicycle pedestrian custom1 trailer evehicle rail_urban ship private truck vip custom2 authority delivery rail_electric taxi tram army hov coach motorcycle passenger bus rail emergency" index="2" length="29.47991707134211" shape="-27.024050000000003,37.1554 -25.17855,35.46795 -22.6147,33.1764 -19.68615,30.508499999999998 -17.422649999999997,28.54195 -14.49485,25.94025 -11.732,23.55525 -8.7933,20.8995 -6.3538,18.75665 -4.9623,17.495150000000002" speed="36.11111111111111" width="3.1897109727998862"/>
		<lane allow="moped bicycle pedestrian custom1 trailer evehicle rail_urban ship private truck vip custom2 authority delivery rail_electric taxi tram army hov coach motorcycle passenger rail emergency" index="3" length="29.47991707134211" shape="-24.82775,39.61635 -20.55525,35.7932 -20.37815,35.630849999999995 -17.67975,33.11455 -17.558149999999998,33.0047 -9.52095,26.08295 -9.43665,26.0068 -6.58265,23.34765 -6.464449999999999,23.2414 -2.7451999999999996,20.035400000000003" speed="36.11111111111111" width="3.2118758662189935"/>
		<lane allow="moped bicycle pedestrian custom1 trailer evehicle rail_urban ship private truck vip custom2 authority delivery rail_electric taxi tram army hov coach motorcycle passenger bus rail emergency" index="4" length="29.47991707134211" shape="-22.54955,42.16915 -18.2688,38.34885 -17.97645,38.08215 -15.3394,35.62425 -15.00305,35.32185 -7.1526,28.46265 -6.8589,28.19755 -4.2078,25.72775 -3.8450499999999996,25.409 -0.5097,22.59675" speed="36.11111111111111" width="3.47939655831295"/>
	</edge>
	<edge from="2" function="normal" id="16" length="154.56650609874893" numLanes="6" priority="1" speed="36.11111111111111" spreadType="center" to="3">
		<lane allow="moped bicycle pedestrian custom1 trailer evehicle rail_urban ship private vip custom2 authority delivery rail_electric taxi tram army hov coach motorcycle passenger rail emergency" index="0" length="154.56650609874893" shape="-11.898299999999999,9.548200000000001 -9.73405,7.6932 -9.01065,7.04735 -6.3408,4.73335 -5.61745,4.0875 -2.91535,1.7092 -2.192,1.0633000000000001 0.5254000000000001,-1.3253 1.24875,-1.97115 3.9186,-4.2852 4.642,-4.93105 5.36895,-5.562250000000001 7.372450000000001,-7.3046500000000005 8.09535,-7.9511 10.7788,-10.31185 11.5017,-10.958300000000001 14.25385,-13.3567 14.97675,-14.00315 17.54845,-16.229100000000003 18.2713,-16.87555 20.98815,-19.2071 21.71105,-19.8535 24.554949999999998,-22.3645 25.27785,-23.01095 27.9369,-25.363950000000003 28.659799999999997,-26.010399999999997 31.47285,-28.4321 32.195750000000004,-29.0785 34.82605,-31.380499999999998 35.5489,-32.02695 38.2568,-34.3955 38.901349999999994,-34.9724 38.9832,-35.04475 41.808350000000004,-37.42635 42.531949999999995,-38.0719 45.15275,-40.4287 45.876400000000004,-41.074200000000005 48.5473,-43.38725 49.2709,-44.032799999999995 52.06375,-46.4807 52.78735,-47.12625 55.2976,-49.289249999999996 56.02125,-49.934799999999996 58.79625,-52.360150000000004 59.51985,-53.0057 62.216449999999995,-55.26725 62.9401,-55.91285 65.6817,-58.36735 66.40535,-59.0129 67.06354999999999,-59.58395 69.13945,-61.385850000000005 69.86295,-62.031549999999996 72.51474999999999,-64.3169 73.23825,-64.96265 75.93305,-67.28399999999999 76.6565,-67.9297 81.16065,-71.8358 81.88415,-72.48155 84.75625,-74.9384 85.47975,-75.5841 88.35955,-78.06325 89.08305,-78.70894999999999 91.9075,-81.18535 92.631,-81.83105 95.30135,-84.1447 96.02484999999999,-84.7904 98.60714999999999,-87.01365 98.8293,-87.20945 99.5364,-87.87295 100.03245000000001,-88.33205000000001 102.3425,-90.3754 103.06235000000001,-91.02539999999999 104.41704999999999,-92.23395" speed="36.11111111111111" width="3.6814288122955703"/>
		<lane allow="moped bicycle pedestrian custom1 trailer evehicle rail_urban ship private vip custom2 authority delivery rail_electric taxi tram army hov coach motorcycle passenger rail emergency" index="1" length="154.56650609874893" shape="-9.43205,12.373899999999999 -8.8262,11.857050000000001 -7.2456499999999995,10.45405 -6.53275,9.7965 -5.893599999999999,9.22605 -4.04885,7.699949999999999 -3.3942499999999995,7.145199999999999 -3.2813,7.0541 -2.689,6.55525 -2.50755,6.3902 -0.41425,4.4965 -0.39275,4.47675 0.30554999999999993,3.8325 0.39849999999999997,3.7489 2.9619,1.49495 3.6428000000000003,0.8870499999999999 3.7123,0.8268 6.37055,-1.4794 7.0357,-2.0734 7.09915,-2.1287000000000003 7.570250000000001,-2.5391 9.83755,-4.5749 10.4771,-5.16475 10.50135,-5.18615 16.6363,-10.4642 17.31095,-11.054400000000001 17.409100000000002,-11.13785 18.3171,-11.91085 18.3818,-11.9708 20.0501,-13.46035 20.76295,-14.11795 21.27945,-14.571950000000001 23.429000000000002,-16.4059 24.084049999999998,-16.988149999999997 24.135849999999998,-17.0335 26.96815,-19.520249999999997 27.658549999999998,-20.1335 27.708199999999998,-20.176900000000003 29.3199,-21.5953 30.4281,-22.6074 31.14105,-23.265 32.29445,-24.2865 33.89005,-25.645850000000003 34.53425,-26.21585 34.6038,-26.276049999999998 37.2326,-28.5544 37.9011,-29.14545 37.9725,-29.2072 40.293800000000005,-31.218 40.31485,-31.236400000000003 40.706,-31.576999999999998 41.43645,-32.2274 43.374700000000004,-33.8574 44.2668,-34.61215 44.9341,-35.20845 47.5298,-37.546099999999996 47.579499999999996,-37.59005 48.27425,-38.2119 48.34415,-38.2725 51.00095,-40.5787 51.14765,-40.70925 51.653800000000004,-41.1609 51.71085,-41.21085 54.2063,-43.39545 54.5324,-43.6848 55.2522,-44.3348 57.7489,-46.5126 58.4406,-47.137249999999995 58.48265,-47.1743 61.228899999999996,-49.60465000000001 61.9487,-50.25465 62.89874999999999,-51.0582 64.6231,-52.50355 65.28389999999999,-53.09205 65.74340000000001,-53.50175 67.9884,-55.4928 68.7235,-56.14215 68.80675,-56.2136 71.54585,-58.567449999999994 72.19655,-59.141549999999995 72.2894,-59.22085 73.7151,-60.43875 74.96025,-61.5097 75.61725,-62.094800000000006 75.69815,-62.1644 76.7091,-63.03530000000001 78.3894,-64.49775 79.1098,-65.1471 83.59435,-69.0749 84.31475,-69.72425000000001 84.3957,-69.7931 87.1731,-72.1643 87.28595,-72.264 87.7348,-72.65715 87.84620000000001,-72.7506 90.7381,-75.173 91.06725,-75.45465 91.15635,-75.53405000000001 91.47045,-75.81155 91.53909999999999,-75.87084999999999 94.20505,-78.20425 94.39314999999999,-78.37125 95.1129,-79.0213 97.7693,-81.35034999999999 98.48904999999999,-82.0004 99.6191,-82.98410000000001 101.34585000000001,-84.46754999999999 102.00534999999999,-85.05494999999999 102.0624,-85.1048 102.58565,-85.56245 104.85135,-87.564 105.54034999999999,-88.18525 105.572,-88.21340000000001 106.90165,-89.3982" speed="36.11111111111111" width="3.5043532142179963"/>
		<lane allow="moped bicycle pedestrian custom1 trailer evehicle rail_urban ship private vip custom2 authority delivery rail_electric taxi tram army hov coach motorcycle passenger rail emergency" index="2" length="154.56650609874893" shape="-7.156700000000001,14.9809 -6.55075,14.4348 -5.66845,13.612 -3.79235,11.94405 -3.6295,11.8111 -0.25785,9.0408 2.2664,6.8027 2.3733,6.7040500000000005 2.743,6.3635 2.79935,6.313750000000001 5.36625,3.99605 9.82555,0.14749999999999996 12.695250000000001,-2.40975 12.8132,-2.51045 13.451,-3.0547999999999997 13.52735,-3.1252 16.42455,-5.689 20.609450000000002,-9.243500000000001 23.454250000000002,-11.7874 23.55165,-11.87155 24.5571,-12.7411 27.50745,-15.3924 31.6155,-18.91555 34.47495,-21.4598 34.5869,-21.55565 35.70055,-22.5105 35.75965,-22.565199999999997 38.6573,-25.155700000000003 42.623,-28.6254 45.59685,-31.243699999999997 46.71985,-32.2356 49.69795,-34.83305 53.512699999999995,-38.162850000000006 56.508449999999996,-40.769 57.61595,-41.74575 60.58585,-44.363550000000004 65.11175,-48.36685 65.14224999999999,-48.3934 68.12375,-50.994600000000005 68.71635,-51.50685 71.71799999999999,-54.09325 76.0025,-57.7789 78.99095,-60.372299999999996 86.6379,-67.08885000000001 86.67075,-67.11735 89.66555,-69.7167 91.20515,-71.01650000000001 93.51775,-72.9743 94.1877,-73.55664999999999 96.51135,-75.60839999999999 101.8672,-80.40365 101.90835,-80.43975 104.8387,-82.98705000000001 104.8536,-83.00030000000001 109.1512,-86.83064999999999" speed="36.11111111111111" width="3.2168796822386705"/>
		<lane allow="moped bicycle pedestrian custom1 trailer evehicle rail_urban ship private truck vip custom2 authority delivery rail_electric taxi tram army hov coach motorcycle passenger rail emergency" index="3" length="154.56650609874893" shape="-4.9623,17.495150000000002 -3.4916,16.162100000000002 -3.39135,16.07585 -0.51505,13.5912 2.4471,10.9617 4.58245,9.1571 7.4191,6.6379 7.53765,6.537100000000001 10.550450000000001,3.97545 13.50835,1.33875 15.650300000000001,-0.5108999999999999 18.511499999999998,-3.0957 18.6023,-3.17435 21.665799999999997,-5.83065 24.618850000000002,-8.4713 26.66075,-10.19405 29.52355,-12.71205 29.65565,-12.82295 32.79135,-15.461400000000001 35.751549999999995,-18.096049999999998 37.91615,-19.95645 40.7727,-22.529000000000003 40.8437,-22.5914 44.02355,-25.3933 46.9516,-28.06335 48.83485,-29.715 48.87185,-29.74705 51.862049999999996,-32.33635 55.0828,-35.1268 55.093999999999994,-35.1366 58.084500000000006,-37.7381 59.85675,-39.3006 62.82995,-41.9195 66.0253,-44.74395 69.01124999999999,-47.3487 70.8939,-49.0145 73.86585,-51.63475 77.26505,-54.626400000000004 80.2577,-57.22345 88.32575,-64.18245 88.3382,-64.1933 91.32885,-66.78855 93.29995,-68.48465 96.2971,-71.06775 99.59655000000001,-73.95519999999999 99.63640000000001,-73.9906 102.58715000000001,-76.5951 102.6181,-76.6227 104.0995,-77.9426 107.0781,-80.55615 110.59764999999999,-83.68385 111.3374,-84.33529999999999" speed="36.11111111111111" width="3.117529318226216"/>
		<lane allow="moped bicycle pedestrian custom1 trailer evehicle rail_urban ship private vip custom2 authority delivery rail_electric taxi tram army hov coach motorcycle passenger rail emergency" index="4" length="154.56650609874893" shape="-2.7451999999999996,20.035400000000003 1.5635500000000002,16.32135 1.75605,16.14595 4.42805,13.6543 4.4892,13.597249999999999 4.6158,13.48935 12.756,6.5497 12.924900000000001,6.396850000000001 15.70685,3.8064 15.86825,3.66165 23.877299999999998,-3.2154 23.95045,-3.2827 26.734450000000002,-5.8788 34.98375,-12.9274 35.104600000000005,-13.037700000000001 37.918549999999996,-15.6598 38.048500000000004,-15.775549999999999 46.19915,-22.773899999999998 46.31615,-22.88065 49.05505,-25.4347 57.025,-32.3515 57.30655,-32.59525 60.011849999999995,-34.9469 60.29975,-35.1978 68.08070000000001,-42.068200000000004 68.20474999999999,-42.17765 68.2381,-42.206649999999996 71.1149,-44.70785 71.2439,-44.82155 79.34935,-52.05745 79.3812,-52.0859 79.4315,-52.1297 82.36165,-54.67725 82.423,-54.730599999999995 90.4929,-61.7085 90.6305,-61.828199999999995 93.48230000000001,-64.30725 93.63235,-64.4365 101.7527,-71.42945 101.8546,-71.51735 104.7329,-74.01939999999999 104.858,-74.12950000000001 112.8254,-81.1978 113.5412,-81.82005000000001" speed="36.11111111111111" width="3.2654832184532823"/>
		<lane allow="moped bicycle pedestrian custom1 trailer evehicle rail_urban ship private vip custom2 authority delivery rail_electric taxi tram army hov coach motorcycle passenger rail emergency" index="5" length="154.56650609874893" shape="-0.5097,22.59675 3.82335,18.943199999999997 4.05525,18.74045 4.18025,18.624200000000002 6.7915,16.1948 7.1439,15.88135 15.2142,8.95325 15.4564,8.7385 15.5596,8.6424 18.16995,6.21205 18.53535,5.89105 26.17235,-0.54325 26.40385,-0.7455 26.52975,-0.8626 29.14105,-3.29195 29.47675,-3.5947 37.37355,-10.530000000000001 37.628699999999995,-10.75985 37.704049999999995,-10.83005 40.313500000000005,-13.26135 40.6733,-13.57875 48.44035,-20.1633 48.67535,-20.36965 48.79375,-20.4799 51.4048,-22.909550000000003 51.7452,-23.21535 59.2636,-29.77235 59.652,-30.11055 62.25165,-32.37035 62.6326,-32.7023 70.40504999999999,-39.491550000000004 70.79230000000001,-39.828950000000006 73.39195000000001,-42.088849999999994 73.7321,-42.3881 73.76429999999999,-42.41675 81.6721,-49.46405 82.0447,-49.79185 84.64439999999999,-52.05175 85.032,-52.3889 92.89025,-59.2307 93.2799,-59.569649999999996 95.87955,-61.82955 96.2716,-62.17005 103.97210000000001,-68.85275 104.36195000000001,-69.19135 106.96379999999999,-71.45304999999999 107.30995,-71.75720000000001 107.33834999999999,-71.78245000000001 115.0822,-78.6631 115.457,-78.99235 115.77574999999999,-79.2695" speed="36.11111111111111" width="3.479158429850528"/>
	</edge>
	<edge from="4" function="normal" id="17" length="29.677234937130148" numLanes="1" priority="1" speed="36.11111111111111" spreadType="center" to="2">
		<lane allow="moped bicycle pedestrian custom1 trailer evehicle rail_urban ship private truck vip custom2 authority delivery rail_electric taxi tram army hov coach motorcycle passenger bus rail emergency" index="0" length="29.677234937130148" shape="-34.49445,28.78465 -27.4696,22.98075 -27.148400000000002,22.7153 -21.29155,17.73355 -17.8316,14.72865 -11.898299999999999,9.548200000000001" speed="36.11111111111111" width="3.7997022014889548"/>
	</edge>
</edges>
