<?xml version="1.0" encoding="UTF-8"?>

<!-- generated on Fri Dec 18 15:54:15 2020 by Eclipse SUMO netconvert Version 1.8.0
<configuration xmlns:xsi="http://www.w3.org/2001/XMLSchema-instance" xsi:noNamespaceSchemaLocation="http://sumo.dlr.de/xsd/netconvertConfiguration.xsd">

    <input>
        <node-files value="./converted_scenarios/NGSIM/US101/USA_US101-27_3_I-1-1/nodes.net.xml"/>
        <edge-files value="./converted_scenarios/NGSIM/US101/USA_US101-27_3_I-1-1/edges.net.xml"/>
        <connection-files value="./converted_scenarios/NGSIM/US101/USA_US101-27_3_I-1-1/_connections.net.xml"/>
        <tllogic-files value="./converted_scenarios/NGSIM/US101/USA_US101-27_3_I-1-1/_tll.net.xml"/>
    </input>

    <output>
        <output-file value="./converted_scenarios/NGSIM/US101/USA_US101-27_3_I-1-1/USA_US101-27_3_I-1-1.net.xml"/>
    </output>

    <processing>
        <plain.extend-edge-shape value="true"/>
        <geometry.remove.keep-edges.explicit value="true"/>
        <geometry.avoid-overlap value="true"/>
        <offset.disable-normalization value="true"/>
    </processing>

    <junctions>
        <no-turnarounds value="true"/>
        <junctions.internal-link-detail value="20"/>
    </junctions>

    <report>
        <aggregate-warnings value="5"/>
    </report>

    <random_number>
        <seed value="1234"/>
    </random_number>

</configuration>
-->

<net version="1.6" junctionCornerDetail="5" junctionLinkDetail="20" limitTurnSpeed="5.50" xmlns:xsi="http://www.w3.org/2001/XMLSchema-instance" xsi:noNamespaceSchemaLocation="http://sumo.dlr.de/xsd/net_file.xsd">

    <location netOffset="0.00,0.00" convBoundary="-34.49,-85.65,110.19,37.13" origBoundary="-34.49,-92.23,115.78,42.17" projParameter="!"/>

    <edge id=":2_0" function="internal">
        <lane id=":2_0_0" index="0" disallow="bus truck rail_fast" speed="36.11" length="3.12" width="3.68" shape="-13.00,10.51 -10.64,8.47"/>
    </edge>
    <edge id=":2_1" function="internal">
        <lane id=":2_1_0" index="0" disallow="bus truck rail_fast" speed="36.11" length="3.28" width="3.50" shape="-10.58,13.38 -8.19,11.29"/>
        <lane id=":2_1_1" index="1" disallow="bus truck rail_fast" speed="36.11" length="3.28" width="3.22" shape="-8.34,16.04 -5.94,13.87"/>
        <lane id=":2_1_2" index="2" disallow="bus rail_fast" speed="36.11" length="3.28" width="3.12" shape="-6.18,18.60 -3.75,16.40"/>
        <lane id=":2_1_3" index="3" disallow="bus truck rail_fast" speed="36.11" length="3.28" width="3.27" shape="-4.03,21.15 -1.51,18.97"/>
        <lane id=":2_1_4" index="4" disallow="bus truck rail_fast" speed="36.11" length="3.28" width="3.48" shape="-1.85,23.73 0.73,21.55"/>
    </edge>

    <edge id="16" from="2" to="3" priority="1" spreadType="center" length="154.57">
        <lane id="16_0" index="0" disallow="bus truck rail_fast" speed="36.11" length="154.57" width="3.68" acceleration="1" customShape="1" shape="-10.64,8.47 -9.73,7.69 -9.01,7.05 -6.34,4.73 -5.62,4.09 -2.92,1.71 -2.19,1.06 0.53,-1.33 1.25,-1.97 3.92,-4.29 4.64,-4.93 5.37,-5.56 7.37,-7.30 8.10,-7.95 10.78,-10.31 11.50,-10.96 14.25,-13.36 14.98,-14.00 17.55,-16.23 18.27,-16.88 20.99,-19.21 21.71,-19.85 24.55,-22.36 25.28,-23.01 27.94,-25.36 28.66,-26.01 31.47,-28.43 32.20,-29.08 34.83,-31.38 35.55,-32.03 38.26,-34.40 38.90,-34.97 38.98,-35.04 41.81,-37.43 42.53,-38.07 45.15,-40.43 45.88,-41.07 48.55,-43.39 49.27,-44.03 52.06,-46.48 52.79,-47.13 55.30,-49.29 56.02,-49.93 58.80,-52.36 59.52,-53.01 62.22,-55.27 62.94,-55.91 65.68,-58.37 66.41,-59.01 67.06,-59.58 69.14,-61.39 69.86,-62.03 72.51,-64.32 73.24,-64.96 75.93,-67.28 76.66,-67.93 81.16,-71.84 81.88,-72.48 84.76,-74.94 85.48,-75.58 88.36,-78.06 89.08,-78.71 91.91,-81.19 92.63,-81.83 95.30,-84.14 96.02,-84.79 98.61,-87.01 98.83,-87.21 99.54,-87.87 100.03,-88.33 102.34,-90.38 103.06,-91.03 104.42,-92.23"/>
        <lane id="16_1" index="1" disallow="bus truck rail_fast" speed="36.11" length="154.57" width="3.50" customShape="1" shape="-8.19,11.29 -7.25,10.45 -6.53,9.80 -5.89,9.23 -4.05,7.70 -3.39,7.15 -3.28,7.05 -2.69,6.56 -2.51,6.39 -0.41,4.50 0.31,3.83 0.40,3.75 2.96,1.49 3.64,0.89 6.37,-1.48 7.04,-2.07 7.57,-2.54 9.84,-4.57 10.48,-5.16 16.64,-10.46 17.31,-11.05 17.41,-11.14 18.32,-11.91 20.05,-13.46 20.76,-14.12 21.28,-14.57 23.43,-16.41 24.08,-16.99 26.97,-19.52 27.66,-20.13 29.32,-21.60 30.43,-22.61 31.14,-23.27 32.29,-24.29 33.89,-25.65 34.53,-26.22 37.23,-28.55 37.90,-29.15 40.29,-31.22 40.71,-31.58 41.44,-32.23 43.37,-33.86 44.27,-34.61 44.93,-35.21 47.53,-37.55 48.27,-38.21 51.00,-40.58 51.15,-40.71 51.65,-41.16 54.21,-43.40 54.53,-43.68 55.25,-44.33 57.75,-46.51 58.44,-47.14 61.23,-49.60 61.95,-50.25 62.90,-51.06 64.62,-52.50 65.28,-53.09 65.74,-53.50 67.99,-55.49 68.72,-56.14 68.81,-56.21 71.55,-58.57 72.20,-59.14 72.29,-59.22 73.72,-60.44 74.96,-61.51 75.62,-62.09 75.70,-62.16 76.71,-63.04 78.39,-64.50 79.11,-65.15 83.59,-69.07 84.31,-69.72 84.40,-69.79 87.17,-72.16 87.29,-72.26 87.73,-72.66 87.85,-72.75 90.74,-75.17 91.07,-75.45 91.16,-75.53 91.47,-75.81 94.21,-78.20 94.39,-78.37 95.11,-79.02 97.77,-81.35 98.49,-82.00 99.62,-82.98 101.35,-84.47 102.01,-85.05 102.59,-85.56 104.85,-87.56 105.54,-88.19 106.90,-89.40"/>
        <lane id="16_2" index="2" disallow="bus truck rail_fast" speed="36.11" length="154.57" width="3.22" customShape="1" shape="-5.94,13.87 -5.67,13.61 -3.79,11.94 -3.63,11.81 -0.26,9.04 2.27,6.80 2.37,6.70 2.74,6.36 5.37,4.00 9.83,0.15 12.70,-2.41 12.81,-2.51 13.45,-3.05 13.53,-3.13 16.42,-5.69 20.61,-9.24 23.45,-11.79 23.55,-11.87 24.56,-12.74 27.51,-15.39 31.62,-18.92 34.47,-21.46 34.59,-21.56 35.70,-22.51 38.66,-25.16 42.62,-28.63 45.60,-31.24 46.72,-32.24 49.70,-34.83 53.51,-38.16 56.51,-40.77 57.62,-41.75 60.59,-44.36 65.11,-48.37 68.12,-50.99 68.72,-51.51 71.72,-54.09 76.00,-57.78 78.99,-60.37 86.64,-67.09 89.67,-69.72 91.21,-71.02 93.52,-72.97 94.19,-73.56 96.51,-75.61 101.87,-80.40 104.84,-82.99 109.15,-86.83"/>
        <lane id="16_3" index="3" disallow="bus rail_fast" speed="36.11" length="154.57" width="3.12" customShape="1" shape="-3.75,16.40 -3.49,16.16 -3.39,16.08 -0.52,13.59 2.45,10.96 4.58,9.16 7.42,6.64 7.54,6.54 10.55,3.98 13.51,1.34 15.65,-0.51 18.51,-3.10 18.60,-3.17 21.67,-5.83 24.62,-8.47 26.66,-10.19 29.52,-12.71 29.66,-12.82 32.79,-15.46 35.75,-18.10 37.92,-19.96 40.77,-22.53 44.02,-25.39 46.95,-28.06 48.83,-29.71 51.86,-32.34 55.08,-35.13 58.08,-37.74 59.86,-39.30 62.83,-41.92 66.03,-44.74 69.01,-47.35 70.89,-49.01 73.87,-51.63 77.27,-54.63 80.26,-57.22 88.33,-64.18 91.33,-66.79 93.30,-68.48 96.30,-71.07 99.60,-73.96 102.59,-76.60 104.10,-77.94 107.08,-80.56 110.60,-83.68 111.35,-84.35"/>
        <lane id="16_4" index="4" disallow="bus truck rail_fast" speed="36.11" length="154.57" width="3.27" customShape="1" shape="-1.51,18.97 1.56,16.32 1.76,16.15 4.43,13.65 4.62,13.49 12.76,6.55 12.92,6.40 15.71,3.81 15.87,3.66 23.88,-3.22 26.73,-5.88 34.98,-12.93 35.10,-13.04 37.92,-15.66 38.05,-15.78 46.20,-22.77 46.32,-22.88 49.06,-25.43 57.02,-32.35 57.31,-32.60 60.01,-34.95 60.30,-35.20 68.08,-42.07 68.20,-42.18 71.11,-44.71 71.24,-44.82 79.35,-52.06 79.43,-52.13 82.36,-54.68 90.49,-61.71 90.63,-61.83 93.48,-64.31 93.63,-64.44 101.75,-71.43 101.85,-71.52 104.73,-74.02 104.86,-74.13 112.83,-81.20 113.58,-81.85"/>
        <lane id="16_5" index="5" disallow="bus truck rail_fast" speed="36.11" length="154.57" width="3.48" customShape="1" shape="0.73,21.55 3.82,18.94 4.06,18.74 4.18,18.62 6.79,16.19 7.14,15.88 15.21,8.95 15.46,8.74 15.56,8.64 18.17,6.21 18.54,5.89 26.17,-0.54 26.40,-0.75 26.53,-0.86 29.14,-3.29 29.48,-3.59 37.37,-10.53 37.63,-10.76 37.70,-10.83 40.31,-13.26 40.67,-13.58 48.44,-20.16 48.68,-20.37 48.79,-20.48 51.40,-22.91 51.75,-23.22 59.26,-29.77 59.65,-30.11 62.25,-32.37 62.63,-32.70 70.41,-39.49 70.79,-39.83 73.39,-42.09 73.73,-42.39 81.67,-49.46 82.04,-49.79 84.64,-52.05 85.03,-52.39 92.89,-59.23 93.28,-59.57 95.88,-61.83 96.27,-62.17 103.97,-68.85 104.36,-69.19 106.96,-71.45 107.31,-71.76 115.08,-78.66 115.46,-78.99 115.83,-79.32"/>
    </edge>
    <edge id="17" from="4" to="2" priority="1" spreadType="center" length="29.68">
        <lane id="17_0" index="0" disallow="rail_fast" speed="36.11" length="29.68" width="3.80" customShape="1" shape="-34.49,28.78 -27.47,22.98 -27.15,22.72 -21.29,17.73 -17.83,14.73 -13.00,10.51"/>
    </edge>
    <edge id="20" from="1" to="2" priority="1" spreadType="center" length="29.48">
        <lane id="20_0" index="0" disallow="bus truck rail_fast" speed="36.11" length="29.48" width="3.64" customShape="1" shape="-31.61,32.02 -31.47,31.90 -30.67,31.17 -27.75,28.45 -24.69,25.70 -19.88,21.53 -16.93,18.89 -15.38,17.55 -10.58,13.38"/>
        <lane id="20_1" index="1" disallow="bus rail_fast" speed="36.11" length="29.48" width="3.25" customShape="1" shape="-29.25,34.67 -28.24,33.74 -27.42,32.97 -25.38,31.12 -19.55,26.00 -17.52,24.17 -16.67,23.37 -14.67,21.57 -8.55,16.24 -8.34,16.04"/>
        <lane id="20_2" index="2" disallow="rail_fast" speed="36.11" length="29.48" width="3.19" customShape="1" shape="-27.02,37.16 -25.18,35.47 -22.61,33.18 -19.69,30.51 -17.42,28.54 -14.49,25.94 -11.73,23.56 -8.79,20.90 -6.35,18.76 -6.18,18.60"/>
        <lane id="20_3" index="3" disallow="bus rail_fast" speed="36.11" length="29.48" width="3.21" customShape="1" shape="-24.83,39.62 -20.56,35.79 -20.38,35.63 -17.68,33.11 -17.56,33.00 -9.52,26.08 -9.44,26.01 -6.58,23.35 -6.46,23.24 -4.03,21.15"/>
        <lane id="20_4" index="4" disallow="rail_fast" speed="36.11" length="29.48" width="3.48" customShape="1" shape="-22.55,42.17 -18.27,38.35 -17.98,38.08 -15.34,35.62 -15.00,35.32 -7.15,28.46 -6.86,28.20 -4.21,25.73 -3.85,25.41 -1.85,23.73"/>
    </edge>

    <junction id="1" type="dead_end" x="-27.05" y="37.13" incLanes="" intLanes="" shape="-21.39,43.47 -32.82,30.66"/>
    <junction id="2" type="priority" x="-4.96" y="17.50" incLanes="17_0 20_0 20_1 20_2 20_3 20_4" intLanes=":2_0_0 :2_1_0 :2_1_1 :2_1_2 :2_1_3 :2_1_4" shape="1.87,22.86 -11.85,7.08 -14.22,9.06 -0.73,25.06">
        <request index="0" response="000000" foes="000000" cont="0"/>
        <request index="1" response="000000" foes="000000" cont="0"/>
        <request index="2" response="000000" foes="000000" cont="0"/>
        <request index="3" response="000000" foes="000000" cont="0"/>
        <request index="4" response="000000" foes="000000" cont="0"/>
        <request index="5" response="000000" foes="000000" cont="0"/>
    </junction>
    <junction id="3" type="dead_end" x="110.19" y="-85.65" incLanes="16_0 16_1 16_2 16_3 16_4 16_5" intLanes="" shape="103.13,-93.56 116.99,-78.02"/>
    <junction id="4" type="dead_end" x="-34.49" y="28.78" incLanes="" intLanes="" shape="-33.28,30.25 -35.70,27.32"/>

    <connection from="17" to="16" fromLane="0" toLane="0" contPos="-4.00" via=":2_0_0" dir="s" state="M"/>
    <connection from="20" to="16" fromLane="0" toLane="1" contPos="-4.00" via=":2_1_0" dir="s" state="M"/>
    <connection from="20" to="16" fromLane="1" toLane="2" contPos="-4.00" via=":2_1_1" dir="s" state="M"/>
    <connection from="20" to="16" fromLane="2" toLane="3" contPos="-4.00" via=":2_1_2" dir="s" state="M"/>
    <connection from="20" to="16" fromLane="3" toLane="4" contPos="-4.00" via=":2_1_3" dir="s" state="M"/>
    <connection from="20" to="16" fromLane="4" toLane="5" contPos="-4.00" via=":2_1_4" dir="s" state="M"/>

    <connection from=":2_0" to="16" fromLane="0" toLane="0" dir="s" state="M"/>
    <connection from=":2_1" to="16" fromLane="0" toLane="1" dir="s" state="M"/>
    <connection from=":2_1" to="16" fromLane="1" toLane="2" dir="s" state="M"/>
    <connection from=":2_1" to="16" fromLane="2" toLane="3" dir="s" state="M"/>
    <connection from=":2_1" to="16" fromLane="3" toLane="4" dir="s" state="M"/>
    <connection from=":2_1" to="16" fromLane="4" toLane="5" dir="s" state="M"/>

</net>
