<routes>
	<vehicle depart="0.1" departLane="0" departPos="40.73560441883568" departSpeed="0.14332872" id="38" type="passenger">
		<route edges="21530 21563"/>
	</vehicle>
	<vehicle depart="0.1" departLane="0" departPos="7.277975657313551" departSpeed="4.58736" id="316" type="passenger">
		<route edges="21533 21634"/>
	</vehicle>
	<vehicle depart="0.1" departLane="0" departPos="9.38595110407734" departSpeed="0.097942761" id="329" type="passenger">
		<route edges=":41_3 21563"/>
	</vehicle>
	<vehicle depart="0.1" departLane="0" departPos="6.622647659118495" departSpeed="10.446671" id="332" type="passenger">
		<route edges=":41_0 21533"/>
	</vehicle>
	<vehicle depart="0.1" departLane="0" departPos="30.012850254753968" departSpeed="0.74111946" id="334" type="passenger">
		<route edges="21530 21559"/>
	</vehicle>
	<vehicle depart="0.1" departLane="0" departPos="19.067906521500547" departSpeed="0.18311091" id="338" type="passenger">
		<route edges="21530 21559"/>
	</vehicle>
	<vehicle depart="0.1" departLane="0" departPos="2.5" departSpeed="0.98271536" id="340" type="passenger">
		<route edges="21530 21559"/>
	</vehicle>
</routes>
