<routes>
	<vehicle depart="0.1" departLane="0" departPos="255.9755" departSpeed="18.9013" id="42" type="passenger">
		<route edges="2"/>
	</vehicle>
</routes>
