<routes>
	<vehicle depart="0.1" departLane="0" departPos="6.3713639109233275" departSpeed="5.8842654" id="39" type="bicycle">
		<route edges=":29_3 39334"/>
	</vehicle>
	<vehicle depart="0.1" departLane="0" departPos="2.5" departSpeed="1.4203494" id="31" type="passenger">
		<route edges=":29_7 39334 39441"/>
	</vehicle>
	<vehicle depart="0.1" departLane="0" departPos="63.89460288365879" departSpeed="0.02201158" id="32" type="passenger">
		<route edges="39182 39334"/>
	</vehicle>
	<vehicle depart="0.1" departLane="0" departPos="18.72929376786282" departSpeed="0.080569832" id="35" type="passenger">
		<route edges=":29_0 39381"/>
	</vehicle>
	<vehicle depart="0.1" departLane="0" departPos="31.866216679966303" departSpeed="3.3173228" id="313" type="passenger">
		<route edges=":29_9 39181"/>
	</vehicle>
	<vehicle depart="0.1" departLane="0" departPos="10.083932605023275" departSpeed="0.027531357" id="314" type="passenger">
		<route edges="39382 39107"/>
	</vehicle>
	<vehicle depart="0.1" departLane="0" departPos="6.169263193951174" departSpeed="5.005967" id="325" type="passenger">
		<route edges=":29_3 39334"/>
	</vehicle>
	<vehicle depart="0.1" departLane="0" departPos="11.78207772867059" departSpeed="15.126376" id="329" type="passenger">
		<route edges=":31_0 39105 39381"/>
	</vehicle>
</routes>
