<!-- generated on Tue Feb  9 22:16:30 2021 by Eclipse SUMO netconvert Version 1.8.0
<configuration xmlns:xsi="http://www.w3.org/2001/XMLSchema-instance" xsi:noNamespaceSchemaLocation="http://sumo.dlr.de/xsd/netconvertConfiguration.xsd">

    <input>
        <node-files value="./converted_scenarios/scenario-factory/DEU_Ibbenbueren-16_1_I-1-1/DEU_Ibbenbueren-16_1_I-1-1.nod.xml"/>
        <edge-files value="./converted_scenarios/scenario-factory/DEU_Ibbenbueren-16_1_I-1-1/DEU_Ibbenbueren-16_1_I-1-1.edg.xml"/>
        <connection-files value="./converted_scenarios/scenario-factory/DEU_Ibbenbueren-16_1_I-1-1/DEU_Ibbenbueren-16_1_I-1-1.con.xml"/>
        <tllogic-files value="./converted_scenarios/scenario-factory/DEU_Ibbenbueren-16_1_I-1-1/DEU_Ibbenbueren-16_1_I-1-1.tll.xml"/>
        <type-files value="/home/zen/commonroad-interactive-benchmarks/install/commonroad-map-tool/crmapconverter/sumo_map/templates/DEU.typ.xml"/>
    </input>

    <output>
        <output-file value="./converted_scenarios/scenario-factory/DEU_Ibbenbueren-16_1_I-1-1/DEU_Ibbenbueren-16_1_I-1-1.net.xml"/>
    </output>

    <processing>
        <geometry.remove.keep-edges.explicit value="true"/>
        <geometry.avoid-overlap value="true"/>
        <offset.disable-normalization value="true"/>
    </processing>

    <junctions>
        <no-turnarounds value="true"/>
        <junctions.internal-link-detail value="20"/>
    </junctions>

    <report>
        <aggregate-warnings value="5"/>
    </report>

    <random_number>
        <seed value="1234"/>
    </random_number>

</configuration>
--><net xmlns:xsi="http://www.w3.org/2001/XMLSchema-instance" version="1.6" junctionCornerDetail="5" junctionLinkDetail="20" limitTurnSpeed="5.50" xsi:noNamespaceSchemaLocation="http://sumo.dlr.de/xsd/net_file.xsd">

    <location netOffset="0.00,0.00" convBoundary="581.90,-1016.30,757.58,-869.37" origBoundary="581.90,-1016.30,757.58,-869.37" projParameter="!"/>

    <type id="highway.bridleway" priority="1" speed="2.78" allow="pedestrian" oneway="1" width="2.00"/>
    <type id="highway.bus_guideway" priority="1" speed="27.78" allow="bus" oneway="1"/>
    <type id="highway.cycleway" priority="1" speed="8.33" allow="bicycle" oneway="0" width="1.00"/>
    <type id="highway.footway" priority="1" speed="2.78" allow="pedestrian" oneway="1" width="2.00"/>
    <type id="highway.ford" priority="1" speed="2.78" allow="army" oneway="0"/>
    <type id="highway.living_street" priority="2" speed="2.78" disallow="tram rail_urban rail rail_electric rail_fast ship" oneway="0"/>
    <type id="highway.motorway" priority="14" speed="39.44" allow="private emergency authority army vip passenger hov taxi bus coach delivery truck trailer motorcycle evehicle custom1 custom2" oneway="1"/>
    <type id="highway.motorway_link" priority="9" speed="22.22" allow="private emergency authority army vip passenger hov taxi bus coach delivery truck trailer motorcycle evehicle custom1 custom2" oneway="1"/>
    <type id="highway.path" priority="1" speed="2.78" allow="pedestrian bicycle" oneway="0" width="2.00"/>
    <type id="highway.pedestrian" priority="1" speed="2.78" allow="pedestrian" oneway="1" width="2.00"/>
    <type id="highway.primary" priority="12" speed="27.78" disallow="pedestrian tram rail_urban rail rail_electric rail_fast ship" oneway="0"/>
    <type id="highway.primary_link" priority="7" speed="22.22" disallow="pedestrian tram rail_urban rail rail_electric rail_fast ship" oneway="0"/>
    <type id="highway.raceway" priority="15" speed="83.33" allow="vip" oneway="0"/>
    <type id="highway.residential" priority="3" speed="13.89" disallow="pedestrian tram rail_urban rail rail_electric rail_fast ship" oneway="0"/>
    <type id="highway.secondary" priority="11" speed="27.78" disallow="pedestrian tram rail_urban rail rail_electric rail_fast ship" oneway="0"/>
    <type id="highway.secondary_link" priority="6" speed="22.22" disallow="pedestrian tram rail_urban rail rail_electric rail_fast ship" oneway="0"/>
    <type id="highway.service" priority="1" speed="5.56" allow="pedestrian delivery bicycle" oneway="0"/>
    <type id="highway.stairs" priority="1" speed="1.39" allow="pedestrian" oneway="1" width="2.00"/>
    <type id="highway.step" priority="1" speed="1.39" allow="pedestrian" oneway="1" width="2.00"/>
    <type id="highway.steps" priority="1" speed="1.39" allow="pedestrian" oneway="1" width="2.00"/>
    <type id="highway.tertiary" priority="10" speed="22.22" disallow="pedestrian tram rail_urban rail rail_electric rail_fast ship" oneway="0"/>
    <type id="highway.tertiary_link" priority="5" speed="22.22" disallow="pedestrian tram rail_urban rail rail_electric rail_fast ship" oneway="0"/>
    <type id="highway.track" priority="1" speed="5.56" allow="pedestrian motorcycle moped bicycle" oneway="0"/>
    <type id="highway.trunk" priority="13" speed="27.78" disallow="pedestrian bicycle tram rail_urban rail rail_electric rail_fast ship" oneway="0"/>
    <type id="highway.trunk_link" priority="8" speed="22.22" disallow="pedestrian bicycle tram rail_urban rail rail_electric rail_fast ship" oneway="0"/>
    <type id="highway.unclassified" priority="4" speed="13.89" disallow="pedestrian tram rail_urban rail rail_electric rail_fast ship" oneway="0"/>
    <type id="highway.unsurfaced" priority="1" speed="8.33" disallow="tram rail_urban rail rail_electric rail_fast ship" oneway="0"/>
    <type id="railway.highspeed" priority="21" speed="69.44" allow="rail_fast" oneway="1"/>
    <type id="railway.light_rail" priority="19" speed="27.78" allow="rail_urban" oneway="1"/>
    <type id="railway.preserved" priority="16" speed="27.78" allow="rail" oneway="1"/>
    <type id="railway.rail" priority="20" speed="44.44" allow="rail" oneway="1"/>
    <type id="railway.subway" priority="18" speed="27.78" allow="rail_urban" oneway="1"/>
    <type id="railway.tram" priority="17" speed="13.89" allow="tram" oneway="1"/>

    <edge id=":29_0" function="internal">
        <lane id=":29_0_0" index="0" disallow="pedestrian tram rail_urban rail rail_electric rail_fast ship" speed="11.02" length="29.12" width="3.50" shape="628.55,-913.90 627.30,-917.19 626.28,-919.23 625.08,-921.14 623.64,-922.86 622.87,-923.59 622.03,-924.26 621.14,-924.85 620.21,-925.36 619.23,-925.77 618.21,-926.09 617.15,-926.31 616.11,-926.45 613.86,-926.48 611.63,-926.22 609.40,-925.72 606.07,-924.60"/>
    </edge>
    <edge id=":29_1" function="internal">
        <lane id=":29_1_0" index="0" disallow="pedestrian tram rail_urban rail rail_electric rail_fast ship" speed="36.11" length="41.93" width="3.50" shape="628.55,-913.90 627.32,-917.87 623.47,-931.73 620.64,-941.55 618.37,-948.27 616.11,-953.91"/>
    </edge>
    <edge id=":29_2" function="internal">
        <lane id=":29_2_0" index="0" disallow="pedestrian tram rail_urban rail rail_electric rail_fast ship" speed="13.28" length="38.30" width="3.50" shape="628.55,-913.90 627.49,-917.77 626.92,-921.15 626.73,-924.00 626.85,-926.85 627.35,-929.66 628.03,-931.84 628.98,-933.92 630.18,-935.87 631.98,-938.08 634.07,-940.03 636.37,-941.73 639.33,-943.45 642.46,-944.89"/>
    </edge>
    <edge id=":29_3" function="internal">
        <lane id=":29_3_0" index="0" disallow="pedestrian tram rail_urban rail rail_electric rail_fast ship" speed="11.85" length="30.30" width="3.50" shape="645.12,-938.42 641.48,-936.72 638.55,-934.95 636.29,-933.20 634.66,-931.59 633.26,-929.79 632.13,-927.81 631.33,-925.67 630.88,-923.43 630.77,-921.15 630.96,-918.87 631.55,-916.07 631.88,-914.97"/>
    </edge>
    <edge id=":29_4" function="internal">
        <lane id=":29_4_0" index="0" disallow="pedestrian tram rail_urban rail rail_electric rail_fast ship" speed="36.11" length="41.43" width="3.50" shape="645.12,-938.42 637.09,-935.33 625.62,-931.42 612.23,-926.90 606.07,-924.60"/>
    </edge>
    <edge id=":29_5" function="internal">
        <lane id=":29_5_0" index="0" disallow="pedestrian tram rail_urban rail rail_electric rail_fast ship" speed="12.40" length="34.59" width="3.50" shape="643.79,-941.66 641.28,-940.73 638.72,-940.02 636.10,-939.58 633.44,-939.47 632.12,-939.55 630.80,-939.74 629.51,-940.04 628.24,-940.45 627.01,-940.96 625.84,-941.58 624.72,-942.30 622.66,-943.97 620.84,-945.91 619.25,-948.05 617.87,-950.32 616.11,-953.91"/>
    </edge>
    <edge id=":29_6" function="internal">
        <lane id=":29_6_0" index="0" disallow="pedestrian tram rail_urban rail rail_electric rail_fast ship" speed="11.41" length="29.11" width="3.50" shape="619.30,-955.34 620.87,-952.14 622.05,-950.19 623.40,-948.37 624.92,-946.73 626.64,-945.33 627.52,-944.76 628.47,-944.26 629.45,-943.84 630.47,-943.50 631.51,-943.26 632.58,-943.10 633.64,-943.03 635.87,-943.11 638.08,-943.49 640.28,-944.09 642.46,-944.89"/>
    </edge>
    <edge id=":29_7" function="internal">
        <lane id=":29_7_0" index="0" disallow="pedestrian tram rail_urban rail rail_electric rail_fast ship" speed="36.11" length="42.31" width="3.50" shape="619.31,-955.34 621.62,-949.54 623.94,-942.71 626.79,-932.81 630.66,-918.92 631.88,-914.97"/>
    </edge>
    <edge id=":29_8" function="internal">
        <lane id=":29_8_0" index="0" disallow="pedestrian tram rail_urban rail rail_electric rail_fast ship" speed="12.70" length="38.60" width="3.50" shape="619.31,-955.34 620.25,-952.95 621.33,-949.37 621.80,-946.84 622.01,-944.27 621.89,-941.66 621.41,-939.10 621.01,-937.79 620.52,-936.56 619.93,-935.37 619.23,-934.21 617.66,-932.14 615.83,-930.30 613.82,-928.70 611.70,-927.31 609.48,-926.11 606.07,-924.60"/>
    </edge>
    <edge id=":29_9" function="internal">
        <lane id=":29_9_0" index="0" disallow="pedestrian tram rail_urban rail rail_electric rail_fast ship" speed="11.74" length="32.85" width="3.50" shape="604.79,-927.86 607.80,-929.19 609.73,-930.23 611.56,-931.42 613.27,-932.79 614.82,-934.33 616.15,-936.07 616.71,-937.01 617.20,-937.99 617.61,-939.01 617.93,-940.05 618.34,-942.20 618.44,-944.38 618.27,-946.57 617.87,-948.72 616.92,-951.86 616.11,-953.91"/>
    </edge>
    <edge id=":29_10" function="internal">
        <lane id=":29_10_0" index="0" disallow="pedestrian tram rail_urban rail rail_electric rail_fast ship" speed="36.11" length="41.35" width="3.50" shape="604.79,-927.86 612.70,-931.17 623.66,-936.29 636.42,-942.30 642.46,-944.89"/>
    </edge>
    <edge id=":29_11" function="internal">
        <lane id=":29_11_0" index="0" disallow="pedestrian tram rail_urban rail rail_electric rail_fast ship" speed="12.04" length="34.95" width="3.50" shape="604.79,-927.86 608.62,-929.14 611.24,-929.73 613.91,-930.04 616.60,-930.00 617.93,-929.83 619.24,-929.55 620.52,-929.15 621.76,-928.63 622.95,-927.99 624.07,-927.25 625.11,-926.41 626.08,-925.48 627.81,-923.42 629.25,-921.15 630.45,-918.75 631.88,-914.97"/>
    </edge>
    <edge id=":30_0" function="internal">
        <lane id=":30_0_0" index="0" disallow="pedestrian tram rail_urban rail rail_electric rail_fast ship" speed="36.11" length="32.53" width="3.50" shape="640.67,-877.35 637.58,-886.30 630.37,-908.21"/>
    </edge>
    <edge id=":30_1" function="internal">
        <lane id=":30_1_0" index="0" disallow="pedestrian tram rail_urban rail rail_electric rail_fast ship" speed="36.11" length="32.41" width="3.48" shape="633.70,-909.28 640.89,-887.43 643.96,-878.54"/>
    </edge>
    <edge id=":30_2" function="internal">
        <lane id=":30_2_0" index="0" disallow="pedestrian tram rail_urban rail rail_electric rail_fast ship" speed="12.61" length="34.51" width="3.50" shape="633.70,-909.28 634.68,-905.54 635.06,-903.02 635.17,-900.47 634.97,-897.93 634.42,-895.44 633.50,-893.06 632.22,-890.85 630.64,-888.85 628.81,-887.07 626.79,-885.51 624.64,-884.14 621.22,-882.42 620.02,-881.91"/>
    </edge>
    <edge id=":30_3" function="internal">
        <lane id=":30_3_0" index="0" disallow="pedestrian tram rail_urban rail rail_electric rail_fast ship" speed="11.63" length="29.21" width="3.50" shape="618.70,-885.15 619.73,-885.58 622.76,-887.11 624.61,-888.28 626.33,-889.60 627.87,-891.09 629.19,-892.74 630.24,-894.55 631.00,-896.49 631.46,-898.54 631.64,-900.65 631.54,-902.80 631.22,-904.95 630.37,-908.21"/>
    </edge>
    <edge id=":31_0" function="internal">
        <lane id=":31_0_0" index="0" disallow="pedestrian tram rail_urban rail rail_electric rail_fast ship" speed="36.11" length="8.04" width="3.50" shape="683.43,-955.52 676.27,-951.86"/>
        <lane id=":31_0_1" index="1" disallow="pedestrian tram rail_urban rail rail_electric rail_fast ship" speed="36.11" length="8.04" width="3.50" shape="683.00,-956.54 675.35,-954.07"/>
    </edge>
    <edge id=":5_0" function="internal">
        <lane id=":5_0_0" index="0" disallow="pedestrian tram rail_urban rail rail_electric rail_fast ship" speed="36.11" length="2.95" width="3.50" shape="690.33,-962.84 693.07,-963.94"/>
    </edge>
    <edge id=":7_0" function="internal">
        <lane id=":7_0_0" index="0" disallow="pedestrian tram rail_urban rail rail_electric rail_fast ship" speed="36.11" length="0.25" width="3.50" shape="663.88,-953.71 664.11,-953.80"/>
    </edge>

    <edge id="39105" from="31" to="29" priority="3" type="highway.residential" spreadType="center" length="33.92" shape="679.85,-953.71 625.35,-931.13">
        <lane id="39105_0" index="0" disallow="pedestrian tram rail_urban rail rail_electric rail_fast ship" speed="36.11" length="33.94" width="3.50" customShape="1" shape="676.49,-951.33 655.88,-942.85 645.10,-938.41"/>
        <lane id="39105_1" index="1" disallow="pedestrian tram rail_urban rail rail_electric rail_fast ship" speed="36.11" length="33.92" width="3.50" customShape="1" shape="675.15,-954.56 654.55,-946.09 643.78,-941.66"/>
    </edge>
    <edge id="39107" from="29" to="7" priority="3" type="highway.residential" spreadType="center" length="23.16" shape="623.44,-936.01 663.99,-953.76">
        <lane id="39107_0" index="0" disallow="pedestrian tram rail_urban rail rail_electric rail_fast ship" speed="36.11" length="23.16" width="3.50" customShape="1" shape="642.46,-944.89 653.22,-949.32 663.88,-953.71"/>
    </edge>
    <edge id="39181" from="29" to="12" priority="3" type="highway.residential" spreadType="center" length="70.00" shape="622.66,-933.62 581.90,-1014.90">
        <lane id="39181_0" index="0" disallow="pedestrian tram rail_urban rail rail_electric rail_fast ship" speed="36.11" length="70.00" width="3.50" customShape="1" shape="616.11,-953.91 613.25,-960.29 608.83,-969.28 603.61,-978.98 597.06,-990.24 581.90,-1014.90"/>
    </edge>
    <edge id="39182" from="18" to="29" priority="3" type="highway.residential" spreadType="center" length="70.00" shape="585.14,-1016.30 625.78,-935.19">
        <lane id="39182_0" index="0" disallow="pedestrian tram rail_urban rail rail_electric rail_fast ship" speed="36.11" length="70.00" width="3.50" customShape="1" shape="585.14,-1016.30 600.11,-991.96 606.70,-980.62 611.97,-970.83 616.43,-961.75 619.33,-955.30"/>
    </edge>
    <edge id="39331" from="30" to="22" priority="3" type="highway.residential" spreadType="center" length="5.21" shape="632.55,-891.21 645.59,-873.60">
        <lane id="39331_0" index="0" disallow="pedestrian tram rail_urban rail rail_electric rail_fast ship" speed="36.11" length="5.21" width="3.48" customShape="1" shape="643.95,-878.55 644.00,-878.43 645.59,-873.60"/>
    </edge>
    <edge id="39332" from="27" to="30" priority="3" type="highway.residential" spreadType="center" length="5.26" shape="642.37,-872.43 629.81,-889.17">
        <lane id="39332_0" index="0" disallow="pedestrian tram rail_urban rail rail_electric rail_fast ship" speed="36.11" length="5.26" width="3.38" customShape="1" shape="642.37,-872.43 640.73,-877.15 640.65,-877.40"/>
    </edge>
    <edge id="39334" from="29" to="30" priority="3" type="highway.residential" spreadType="center" length="6.01" shape="625.93,-934.71 632.98,-890.27">
        <lane id="39334_0" index="0" disallow="pedestrian tram rail_urban rail rail_electric rail_fast ship" speed="36.11" length="6.01" width="3.50" customShape="1" shape="631.88,-914.97 632.79,-912.11 633.71,-909.25"/>
    </edge>
    <edge id="39335" from="30" to="29" priority="3" type="highway.residential" spreadType="center" length="5.98" shape="629.52,-889.73 622.48,-934.16">
        <lane id="39335_0" index="0" disallow="pedestrian tram rail_urban rail rail_electric rail_fast ship" speed="36.11" length="5.98" width="3.50" customShape="1" shape="630.37,-908.21 629.46,-911.04 628.54,-913.90"/>
    </edge>
    <edge id="39381" from="29" to="13" priority="3" type="highway.residential" spreadType="center" length="15.01" shape="624.96,-932.85 592.10,-919.12">
        <lane id="39381_0" index="0" disallow="pedestrian tram rail_urban rail rail_electric rail_fast ship" speed="36.11" length="15.01" width="3.50" customShape="1" shape="606.07,-924.60 599.09,-921.86 592.10,-919.12"/>
    </edge>
    <edge id="39382" from="26" to="29" priority="3" type="highway.residential" spreadType="center" length="15.02" shape="590.82,-922.37 623.61,-936.08">
        <lane id="39382_0" index="0" disallow="pedestrian tram rail_urban rail rail_electric rail_fast ship" speed="36.11" length="15.02" width="3.50" customShape="1" shape="590.82,-922.37 597.81,-925.12 604.80,-927.86"/>
    </edge>
    <edge id="39441" from="30" to="23" priority="3" type="highway.residential" spreadType="center" length="33.08" shape="632.02,-888.50 589.41,-869.37">
        <lane id="39441_0" index="0" disallow="pedestrian tram rail_urban rail rail_electric rail_fast ship" speed="36.11" length="33.08" width="3.50" customShape="1" shape="620.02,-881.91 604.73,-875.64 589.41,-869.37"/>
    </edge>
    <edge id="39442" from="28" to="30" priority="3" type="highway.residential" spreadType="center" length="33.10" shape="588.08,-872.61 630.58,-891.69">
        <lane id="39442_0" index="0" disallow="pedestrian tram rail_urban rail rail_electric rail_fast ship" speed="36.11" length="33.10" width="3.50" customShape="1" shape="588.08,-872.61 603.40,-878.88 618.71,-885.15"/>
    </edge>
    <edge id="39471" from="4" to="31" priority="3" type="highway.residential" spreadType="center" length="80.66">
        <lane id="39471_0" index="0" disallow="pedestrian tram rail_urban rail rail_electric rail_fast ship" speed="36.11" length="80.66" width="3.50" customShape="1" shape="757.58,-987.26 683.22,-956.00"/>
    </edge>
    <edge id="39472" from="5" to="6" priority="3" type="highway.residential" spreadType="center" length="68.52">
        <lane id="39472_0" index="0" disallow="pedestrian tram rail_urban rail rail_electric rail_fast ship" speed="36.11" length="68.52" width="3.50" customShape="1" shape="693.07,-963.94 756.24,-990.49"/>
    </edge>
    <edge id="39886" from="7" to="5" priority="3" type="highway.residential" spreadType="center" length="27.74">
        <lane id="39886_0" index="0" disallow="pedestrian tram rail_urban rail rail_electric rail_fast ship" speed="36.11" length="27.74" width="3.50" customShape="1" shape="664.11,-953.80 669.88,-955.97 685.84,-961.13 690.33,-962.84"/>
    </edge>

    <junction id="12" type="dead_end" x="581.90" y="-1014.90" incLanes="39181_0" intLanes="" shape="580.41,-1013.98 583.39,-1015.81" rightOfWay="edgePriority"/>
    <junction id="13" type="dead_end" x="592.10" y="-919.12" incLanes="39381_0" intLanes="" shape="592.74,-917.49 591.46,-920.75" rightOfWay="edgePriority"/>
    <junction id="18" type="dead_end" x="585.14" y="-1016.30" incLanes="" intLanes="" shape="583.65,-1015.39 586.63,-1017.22" rightOfWay="edgePriority"/>
    <junction id="22" type="dead_end" x="645.59" y="-873.60" incLanes="39331_0" intLanes="" shape="647.24,-874.14 643.94,-873.05" rightOfWay="edgePriority"/>
    <junction id="23" type="dead_end" x="589.41" y="-869.37" incLanes="39441_0" intLanes="" shape="590.07,-867.75 588.74,-870.99" rightOfWay="edgePriority"/>
    <junction id="26" type="dead_end" x="590.82" y="-922.37" incLanes="" intLanes="" shape="591.46,-920.75 590.18,-924.00" rightOfWay="edgePriority"/>
    <junction id="27" type="dead_end" x="642.37" y="-872.43" incLanes="" intLanes="" shape="643.96,-872.98 640.77,-871.87" rightOfWay="edgePriority"/>
    <junction id="28" type="dead_end" x="588.08" y="-872.61" incLanes="" intLanes="" shape="588.74,-870.99 587.42,-874.22" rightOfWay="edgePriority"/>
    <junction id="29" type="priority" x="624.20" y="-934.43" incLanes="39335_0 39105_0 39105_1 39182_0 39382_0" intLanes=":29_0_0 :29_1_0 :29_2_0 :29_3_0 :29_4_0 :29_5_0 :29_6_0 :29_7_0 :29_8_0 :29_9_0 :29_10_0 :29_11_0" shape="626.88,-913.37 633.54,-915.51 632.60,-920.09 632.85,-924.25 634.30,-928.01 636.94,-931.35 640.77,-934.29 645.79,-936.80 641.79,-946.51 637.32,-945.17 633.24,-945.01 629.56,-946.01 626.28,-948.19 623.39,-951.54 620.90,-956.06 614.52,-953.19 616.31,-947.90 616.70,-943.14 615.68,-938.92 613.24,-935.23 609.40,-932.09 604.16,-929.49 606.71,-922.97 611.49,-924.36 615.70,-924.55 619.34,-923.55 622.42,-921.35 624.93,-917.96">
        <request index="0" response="000000010000" foes="000100010000" cont="0"/>
        <request index="1" response="111000110000" foes="111100110000" cont="0"/>
        <request index="2" response="110011110000" foes="110011110000" cont="0"/>
        <request index="3" response="000000000000" foes="100010000000" cont="0"/>
        <request index="4" response="000000000000" foes="100110000111" cont="0"/>
        <request index="5" response="011000000000" foes="011110000110" cont="0"/>
        <request index="6" response="010000000000" foes="010000000100" cont="0"/>
        <request index="7" response="110000111000" foes="110000111100" cont="0"/>
        <request index="8" response="110000110011" foes="110000110011" cont="0"/>
        <request index="9" response="000000000000" foes="000000100010" cont="0"/>
        <request index="10" response="000000000000" foes="000111100110" cont="0"/>
        <request index="11" response="000000011000" foes="000110011110" cont="0"/>
    </junction>
    <junction id="30" type="priority" x="631.24" y="-890.07" incLanes="39332_0 39334_0 39442_0" intLanes=":30_0_0 :30_1_0 :30_2_0 :30_3_0" shape="639.06,-876.84 645.60,-879.12 635.37,-909.81 628.71,-907.67 629.71,-903.03 629.61,-898.85 628.39,-895.14 626.05,-891.89 622.60,-889.09 618.03,-886.76 620.69,-880.29 625.39,-881.91 629.43,-882.65 632.82,-882.51 635.55,-881.50 637.63,-879.61">
        <request index="0" response="0000" foes="1100" cont="0"/>
        <request index="1" response="0000" foes="0000" cont="0"/>
        <request index="2" response="0001" foes="0001" cont="0"/>
        <request index="3" response="0001" foes="0001" cont="0"/>
    </junction>
    <junction id="31" type="priority" x="679.85" y="-953.71" incLanes="39471_0" intLanes=":31_0_0 :31_0_1" shape="683.90,-954.39 682.55,-957.62 679.62,-956.88 678.51,-956.89 677.41,-956.89 676.12,-956.72 674.47,-956.18 677.16,-949.72 679.76,-951.27 680.54,-952.04 681.32,-952.82 682.35,-953.60">
        <request index="0" response="00" foes="00" cont="0"/>
        <request index="1" response="00" foes="00" cont="0"/>
    </junction>
    <junction id="4" type="dead_end" x="757.58" y="-987.26" incLanes="" intLanes="" shape="756.90,-988.87 758.26,-985.64" rightOfWay="edgePriority"/>
    <junction id="5" type="priority" x="691.71" y="-963.37" incLanes="39886_0" intLanes=":5_0_0" shape="693.74,-962.32 692.39,-965.55 689.71,-964.48 690.96,-961.21" rightOfWay="edgePriority">
        <request index="0" response="0" foes="0" cont="0"/>
    </junction>
    <junction id="6" type="dead_end" x="756.24" y="-990.49" incLanes="39472_0" intLanes="" shape="755.56,-992.10 756.92,-988.88" rightOfWay="edgePriority"/>
    <junction id="7" type="priority" x="663.99" y="-953.76" incLanes="39107_0" intLanes=":7_0_0" shape="664.73,-952.16 663.50,-955.44 663.21,-955.33 664.54,-952.09" rightOfWay="edgePriority">
        <request index="0" response="0" foes="0" cont="0"/>
    </junction>

    <connection from="39105" to="39334" fromLane="0" toLane="0" contPos="-4.00" shape="645.10,-938.41 641.48,-936.72 638.55,-934.95 636.29,-933.20 634.66,-931.59 633.26,-929.79 632.13,-927.81 631.33,-925.67 630.88,-923.43 630.77,-921.15 630.96,-918.87 631.55,-916.07 631.88,-914.97" via=":29_3_0" dir="r" state="M"/>
    <connection from="39105" to="39381" fromLane="0" toLane="0" contPos="-4.00" shape="645.10,-938.41 637.09,-935.33 625.62,-931.42 612.23,-926.90 606.07,-924.60" via=":29_4_0" dir="s" state="M"/>
    <connection from="39105" to="39181" fromLane="1" toLane="0" contPos="-4.00" shape="643.78,-941.66 641.28,-940.73 638.72,-940.02 636.10,-939.58 633.44,-939.47 632.12,-939.55 630.80,-939.74 629.51,-940.04 628.24,-940.45 627.01,-940.96 625.84,-941.58 624.72,-942.30 622.66,-943.97 620.84,-945.91 619.25,-948.05 617.87,-950.32 616.11,-953.91" via=":29_5_0" dir="l" state="m"/>
    <connection from="39107" to="39886" fromLane="0" toLane="0" contPos="-4.00" via=":7_0_0" dir="s" state="M"/>
    <connection from="39182" to="39107" fromLane="0" toLane="0" contPos="-4.00" shape="619.33,-955.30 620.87,-952.14 622.05,-950.19 623.40,-948.37 624.92,-946.73 626.64,-945.33 627.52,-944.76 628.47,-944.26 629.45,-943.84 630.47,-943.50 631.51,-943.26 632.58,-943.10 633.64,-943.03 635.87,-943.11 638.08,-943.49 640.28,-944.09 642.46,-944.89" via=":29_6_0" dir="r" state="m"/>
    <connection from="39182" to="39334" fromLane="0" toLane="0" contPos="-4.00" shape="619.33,-955.30 621.62,-949.54 623.94,-942.71 626.79,-932.81 630.66,-918.92 631.88,-914.97" via=":29_7_0" dir="s" state="m"/>
    <connection from="39182" to="39381" fromLane="0" toLane="0" contPos="-4.00" shape="619.33,-955.30 620.25,-952.95 621.33,-949.37 621.80,-946.84 622.01,-944.27 621.89,-941.66 621.41,-939.10 621.01,-937.79 620.52,-936.56 619.93,-935.37 619.23,-934.21 617.66,-932.14 615.83,-930.30 613.82,-928.70 611.70,-927.31 609.48,-926.11 606.07,-924.60" via=":29_8_0" dir="l" state="m"/>
    <connection from="39332" to="39335" fromLane="0" toLane="0" contPos="-4.00" shape="640.67,-877.35 637.58,-886.30 630.37,-908.21" via=":30_0_0" dir="s" state="M"/>
    <connection from="39334" to="39331" fromLane="0" toLane="0" contPos="-4.00" shape="633.71,-909.25 640.89,-887.43 643.96,-878.54" via=":30_1_0" dir="s" state="M"/>
    <connection from="39334" to="39441" fromLane="0" toLane="0" contPos="-4.00" shape="633.71,-909.25 634.68,-905.54 635.06,-903.02 635.17,-900.47 634.97,-897.93 634.42,-895.44 633.50,-893.06 632.22,-890.85 630.64,-888.85 628.81,-887.07 626.79,-885.51 624.64,-884.14 621.22,-882.42 620.02,-881.91" via=":30_2_0" dir="l" state="m"/>
    <connection from="39335" to="39381" fromLane="0" toLane="0" contPos="-4.00" shape="628.55,-913.90 627.30,-917.19 626.28,-919.23 625.08,-921.14 623.64,-922.86 622.87,-923.59 622.03,-924.26 621.14,-924.85 620.21,-925.36 619.23,-925.77 618.21,-926.09 617.15,-926.31 616.11,-926.45 613.86,-926.48 611.63,-926.22 609.40,-925.72 606.07,-924.60" via=":29_0_0" dir="r" state="m"/>
    <connection from="39335" to="39181" fromLane="0" toLane="0" contPos="-4.00" shape="628.55,-913.90 627.32,-917.87 623.47,-931.73 620.64,-941.55 618.37,-948.27 616.11,-953.91" via=":29_1_0" dir="s" state="m"/>
    <connection from="39335" to="39107" fromLane="0" toLane="0" contPos="-4.00" shape="628.55,-913.90 627.49,-917.77 626.92,-921.15 626.73,-924.00 626.85,-926.85 627.35,-929.66 628.03,-931.84 628.98,-933.92 630.18,-935.87 631.98,-938.08 634.07,-940.03 636.37,-941.73 639.33,-943.45 642.46,-944.89" via=":29_2_0" dir="l" state="m"/>
    <connection from="39382" to="39181" fromLane="0" toLane="0" contPos="-4.00" shape="604.80,-927.86 607.80,-929.19 609.73,-930.23 611.56,-931.42 613.27,-932.79 614.82,-934.33 616.15,-936.07 616.71,-937.01 617.20,-937.99 617.61,-939.01 617.93,-940.05 618.34,-942.20 618.44,-944.38 618.27,-946.57 617.87,-948.72 616.92,-951.86 616.11,-953.91" via=":29_9_0" dir="r" state="M"/>
    <connection from="39382" to="39107" fromLane="0" toLane="0" contPos="-4.00" shape="604.80,-927.86 612.70,-931.17 623.66,-936.29 636.42,-942.30 642.46,-944.89" via=":29_10_0" dir="s" state="M"/>
    <connection from="39382" to="39334" fromLane="0" toLane="0" contPos="-4.00" shape="604.80,-927.86 608.62,-929.14 611.24,-929.73 613.91,-930.04 616.60,-930.00 617.93,-929.83 619.24,-929.55 620.52,-929.15 621.76,-928.63 622.95,-927.99 624.07,-927.25 625.11,-926.41 626.08,-925.48 627.81,-923.42 629.25,-921.15 630.45,-918.75 631.88,-914.97" via=":29_11_0" dir="l" state="m"/>
    <connection from="39442" to="39335" fromLane="0" toLane="0" contPos="-4.00" shape="618.71,-885.15 619.73,-885.58 622.76,-887.11 624.61,-888.28 626.33,-889.60 627.87,-891.09 629.19,-892.74 630.24,-894.55 631.00,-896.49 631.46,-898.54 631.64,-900.65 631.54,-902.80 631.22,-904.95 630.37,-908.21" via=":30_3_0" dir="r" state="m"/>
    <connection from="39471" to="39105" fromLane="0" toLane="0" contPos="-4.00" shape="693.05,-960.13 687.53,-957.63 672.20,-949.77 666.66,-947.29" via=":31_0_0" dir="s" state="M"/>
    <connection from="39471" to="39105" fromLane="0" toLane="1" contPos="-4.00" shape="693.05,-960.13 687.09,-957.87 671.13,-952.70 665.30,-950.51" via=":31_0_1" dir="s" state="M"/>
    <connection from="39886" to="39472" fromLane="0" toLane="0" contPos="-4.00" via=":5_0_0" dir="s" state="M"/>

    <connection from=":29_0" to="39381" fromLane="0" toLane="0" dir="r" state="M"/>
    <connection from=":29_1" to="39181" fromLane="0" toLane="0" dir="s" state="M"/>
    <connection from=":29_2" to="39107" fromLane="0" toLane="0" dir="l" state="M"/>
    <connection from=":29_3" to="39334" fromLane="0" toLane="0" dir="r" state="M"/>
    <connection from=":29_4" to="39381" fromLane="0" toLane="0" dir="s" state="M"/>
    <connection from=":29_5" to="39181" fromLane="0" toLane="0" dir="l" state="M"/>
    <connection from=":29_6" to="39107" fromLane="0" toLane="0" dir="r" state="M"/>
    <connection from=":29_7" to="39334" fromLane="0" toLane="0" dir="s" state="M"/>
    <connection from=":29_8" to="39381" fromLane="0" toLane="0" dir="l" state="M"/>