<routes>
	<vehicle depart="0.1" departLane="0" departPos="39.27734587544683" departSpeed="0.85218999" id="338" type="bus">
		<route edges="8723 8717"/>
	</vehicle>
	<vehicle depart="0.1" departLane="0" departPos="18.14200742651028" departSpeed="8.0653582" id="36" type="passenger">
		<route edges=":48_5 8770 8773"/>
	</vehicle>
	<vehicle depart="0.1" departLane="0" departPos="2.5" departSpeed="9.8898119" id="312" type="passenger">
		<route edges=":49_4 8715 9773"/>
	</vehicle>
	<vehicle depart="0.1" departLane="0" departPos="45.17832752829602" departSpeed="8.3866151" id="315" type="passenger">
		<route edges="8723 8770"/>
	</vehicle>
	<vehicle depart="0.1" departLane="0" departPos="4.621747742182144" departSpeed="3.7127002" id="321" type="passenger">
		<route edges=":48_5 8770"/>
	</vehicle>
	<vehicle depart="0.1" departLane="0" departPos="6.537497717791376" departSpeed="1.0791779" id="330" type="passenger">
		<route edges=":49_0 8718"/>
	</vehicle>
	<vehicle depart="0.1" departLane="0" departPos="11.104991477388161" departSpeed="6.1570528" id="355" type="passenger">
		<route edges=":50_1 8992 9610"/>
	</vehicle>
	<vehicle depart="0.1" departLane="1" departPos="68.98593071788244" departSpeed="5.21073" id="359" type="passenger">
		<route edges="8777 8992"/>
	</vehicle>
	<vehicle depart="0.1" departLane="0" departPos="18.88356655411821" departSpeed="0.099185826" id="33" type="motorcycle">
		<route edges=":50_0 8998"/>
	</vehicle>
	<vehicle depart="0.1" departLane="0" departPos="3.75" departSpeed="0.48851919" id="328" type="truck">
		<route edges=":48_3 8724"/>
	</vehicle>
</routes>
