<routes>
	<vehicle depart="0.1" departLane="0" departPos="69.03823183685094" departSpeed="1.2097982" id="314" type="bicycle">
		<route edges="108747 108744 108278"/>
	</vehicle>
	<vehicle depart="0.1" departLane="0" departPos="10.089280579201628" departSpeed="7.037524" id="38" type="passenger">
		<route edges=":26_4 107068"/>
	</vehicle>
	<vehicle depart="0.1" departLane="0" departPos="72.49945674684696" departSpeed="2.4398901" id="39" type="passenger">
		<route edges="107067 108278 108275"/>
	</vehicle>
	<vehicle depart="0.1" departLane="0" departPos="62.981660997976064" departSpeed="0.68678723" id="310" type="passenger">
		<route edges="107067 108278"/>
	</vehicle>
	<vehicle depart="0.1" departLane="0" departPos="5.709405390671021" departSpeed="5.6492213" id="316" type="passenger">
		<route edges=":27_4 108744 108278"/>
	</vehicle>
	<vehicle depart="0.1" departLane="0" departPos="61.49041778223094" departSpeed="3.7116369" id="320" type="passenger">
		<route edges="108747 108744"/>
	</vehicle>
	<vehicle depart="0.1" departLane="0" departPos="49.30877198506121" departSpeed="1.908245" id="323" type="passenger">
		<route edges="108747 107986"/>
	</vehicle>
	<vehicle depart="0.1" departLane="0" departPos="2.5" departSpeed="10.300332" id="328" type="passenger">
		<route edges=":26_0 108745 108748"/>
	</vehicle>
	<vehicle depart="0.1" departLane="0" departPos="6.991706111367529" departSpeed="8.2604944" id="325" type="motorcycle">
		<route edges=":25_1 108275"/>
	</vehicle>
</routes>
