<routes>
	<vehicle depart="0.1" departLane="0" departPos="28.684778692530145" departSpeed="5.9111292" id="37" type="passenger">
		<route edges=":73_4 70909 70825"/>
	</vehicle>
	<vehicle depart="0.1" departLane="0" departPos="19.76742014686741" departSpeed="0.17237677" id="314" type="passenger">
		<route edges="70826 70910"/>
	</vehicle>
	<vehicle depart="0.1" departLane="0" departPos="61.17169343250154" departSpeed="1.724534" id="318" type="passenger">
		<route edges="70776 71190"/>
	</vehicle>
	<vehicle depart="0.1" departLane="0" departPos="7.8953803029356395" departSpeed="1.0271866" id="325" type="passenger">
		<route edges=":74_1 70903"/>
	</vehicle>
	<vehicle depart="0.1" departLane="0" departPos="12.458667429513511" departSpeed="0.19146793" id="331" type="passenger">
		<route edges=":73_4 70909"/>
	</vehicle>
	<vehicle depart="0.1" departLane="0" departPos="25.363115432093856" departSpeed="0.25544624" id="332" type="passenger">
		<route edges=":75_1 70906"/>
	</vehicle>
	<vehicle depart="0.1" departLane="0" departPos="15.81727337895894" departSpeed="3.8540194" id="335" type="passenger">
		<route edges=":75_1 70906"/>
	</vehicle>
	<vehicle depart="0.1" departLane="0" departPos="5.104019178412004" departSpeed="1.577427" id="341" type="passenger">
		<route edges=":75_1 70906"/>
	</vehicle>
	<vehicle depart="0.1" departLane="0" departPos="13.782602113699268" departSpeed="2.557864" id="347" type="passenger">
		<route edges="70909 70825"/>
	</vehicle>
	<vehicle depart="0.1" departLane="0" departPos="31.85624681686947" departSpeed="0.73840509" id="330" type="motorcycle">
		<route edges=":75_1 70906 70903"/>
	</vehicle>
</routes>
