<!-- generated on Tue Feb  9 22:21:11 2021 by Eclipse SUMO netconvert Version 1.8.0
<configuration xmlns:xsi="http://www.w3.org/2001/XMLSchema-instance" xsi:noNamespaceSchemaLocation="http://sumo.dlr.de/xsd/netconvertConfiguration.xsd">

    <input>
        <node-files value="./converted_scenarios/scenario-factory/ESP_Almansa-6_1_I-1-1/ESP_Almansa-6_1_I-1-1.nod.xml"/>
        <edge-files value="./converted_scenarios/scenario-factory/ESP_Almansa-6_1_I-1-1/ESP_Almansa-6_1_I-1-1.edg.xml"/>
        <connection-files value="./converted_scenarios/scenario-factory/ESP_Almansa-6_1_I-1-1/ESP_Almansa-6_1_I-1-1.con.xml"/>
        <tllogic-files value="./converted_scenarios/scenario-factory/ESP_Almansa-6_1_I-1-1/ESP_Almansa-6_1_I-1-1.tll.xml"/>
        <type-files value="/home/zen/commonroad-interactive-benchmarks/install/commonroad-map-tool/crmapconverter/sumo_map/templates/DEU.typ.xml"/>
    </input>

    <output>
        <output-file value="./converted_scenarios/scenario-factory/ESP_Almansa-6_1_I-1-1/ESP_Almansa-6_1_I-1-1.net.xml"/>
    </output>

    <processing>
        <geometry.remove.keep-edges.explicit value="true"/>
        <geometry.avoid-overlap value="true"/>
        <offset.disable-normalization value="true"/>
    </processing>

    <junctions>
        <no-turnarounds value="true"/>
        <junctions.internal-link-detail value="20"/>
    </junctions>

    <report>
        <aggregate-warnings value="5"/>
    </report>

    <random_number>
        <seed value="1234"/>
    </random_number>

</configuration>
--><net xmlns:xsi="http://www.w3.org/2001/XMLSchema-instance" version="1.6" junctionCornerDetail="5" junctionLinkDetail="20" limitTurnSpeed="5.50" xsi:noNamespaceSchemaLocation="http://sumo.dlr.de/xsd/net_file.xsd">

    <location netOffset="0.00,0.00" convBoundary="-1073.03,-1116.72,-684.67,-713.44" origBoundary="-1073.03,-1116.72,-684.67,-713.44" projParameter="!"/>

    <type id="highway.bridleway" priority="1" speed="2.78" allow="pedestrian" oneway="1" width="2.00"/>
    <type id="highway.bus_guideway" priority="1" speed="27.78" allow="bus" oneway="1"/>
    <type id="highway.cycleway" priority="1" speed="8.33" allow="bicycle" oneway="0" width="1.00"/>
    <type id="highway.footway" priority="1" speed="2.78" allow="pedestrian" oneway="1" width="2.00"/>
    <type id="highway.ford" priority="1" speed="2.78" allow="army" oneway="0"/>
    <type id="highway.living_street" priority="2" speed="2.78" disallow="tram rail_urban rail rail_electric rail_fast ship" oneway="0"/>
    <type id="highway.motorway" priority="14" speed="39.44" allow="private emergency authority army vip passenger hov taxi bus coach delivery truck trailer motorcycle evehicle custom1 custom2" oneway="1"/>
    <type id="highway.motorway_link" priority="9" speed="22.22" allow="private emergency authority army vip passenger hov taxi bus coach delivery truck trailer motorcycle evehicle custom1 custom2" oneway="1"/>
    <type id="highway.path" priority="1" speed="2.78" allow="pedestrian bicycle" oneway="0" width="2.00"/>
    <type id="highway.pedestrian" priority="1" speed="2.78" allow="pedestrian" oneway="1" width="2.00"/>
    <type id="highway.primary" priority="12" speed="27.78" disallow="pedestrian tram rail_urban rail rail_electric rail_fast ship" oneway="0"/>
    <type id="highway.primary_link" priority="7" speed="22.22" disallow="pedestrian tram rail_urban rail rail_electric rail_fast ship" oneway="0"/>
    <type id="highway.raceway" priority="15" speed="83.33" allow="vip" oneway="0"/>
    <type id="highway.residential" priority="3" speed="13.89" disallow="pedestrian tram rail_urban rail rail_electric rail_fast ship" oneway="0"/>
    <type id="highway.secondary" priority="11" speed="27.78" disallow="pedestrian tram rail_urban rail rail_electric rail_fast ship" oneway="0"/>
    <type id="highway.secondary_link" priority="6" speed="22.22" disallow="pedestrian tram rail_urban rail rail_electric rail_fast ship" oneway="0"/>
    <type id="highway.service" priority="1" speed="5.56" allow="pedestrian delivery bicycle" oneway="0"/>
    <type id="highway.stairs" priority="1" speed="1.39" allow="pedestrian" oneway="1" width="2.00"/>
    <type id="highway.step" priority="1" speed="1.39" allow="pedestrian" oneway="1" width="2.00"/>
    <type id="highway.steps" priority="1" speed="1.39" allow="pedestrian" oneway="1" width="2.00"/>
    <type id="highway.tertiary" priority="10" speed="22.22" disallow="pedestrian tram rail_urban rail rail_electric rail_fast ship" oneway="0"/>
    <type id="highway.tertiary_link" priority="5" speed="22.22" disallow="pedestrian tram rail_urban rail rail_electric rail_fast ship" oneway="0"/>
    <type id="highway.track" priority="1" speed="5.56" allow="pedestrian motorcycle moped bicycle" oneway="0"/>
    <type id="highway.trunk" priority="13" speed="27.78" disallow="pedestrian bicycle tram rail_urban rail rail_electric rail_fast ship" oneway="0"/>
    <type id="highway.trunk_link" priority="8" speed="22.22" disallow="pedestrian bicycle tram rail_urban rail rail_electric rail_fast ship" oneway="0"/>
    <type id="highway.unclassified" priority="4" speed="13.89" disallow="pedestrian tram rail_urban rail rail_electric rail_fast ship" oneway="0"/>
    <type id="highway.unsurfaced" priority="1" speed="8.33" disallow="tram rail_urban rail rail_electric rail_fast ship" oneway="0"/>
    <type id="railway.highspeed" priority="21" speed="69.44" allow="rail_fast" oneway="1"/>
    <type id="railway.light_rail" priority="19" speed="27.78" allow="rail_urban" oneway="1"/>
    <type id="railway.preserved" priority="16" speed="27.78" allow="rail" oneway="1"/>
    <type id="railway.rail" priority="20" speed="44.44" allow="rail" oneway="1"/>
    <type id="railway.subway" priority="18" speed="27.78" allow="rail_urban" oneway="1"/>
    <type id="railway.tram" priority="17" speed="13.89" allow="tram" oneway="1"/>

    <edge id=":117_0" function="internal">
        <lane id=":117_0_0" index="0" disallow="pedestrian tram rail_urban rail rail_electric rail_fast ship" speed="36.11" length="1.48" width="3.47" shape="-936.24,-966.14 -936.24,-966.03 -936.25,-965.93 -936.25,-965.84 -936.25,-965.76 -936.24,-965.68 -936.24,-965.61 -936.24,-965.55 -936.24,-965.49 -936.23,-965.43 -936.23,-965.37 -936.22,-965.31 -936.22,-965.25 -936.21,-965.19 -936.20,-965.12 -936.19,-965.05 -936.17,-964.97 -936.16,-964.88 -936.14,-964.78 -936.12,-964.67"/>
    </edge>
    <edge id=":119_0" function="internal">
        <lane id=":119_0_0" index="0" disallow="pedestrian tram rail_urban rail rail_electric rail_fast ship" speed="10.17" length="21.78" width="3.50" shape="-924.32,-932.15 -927.18,-933.95 -930.13,-935.52 -932.12,-936.38 -934.15,-937.04 -936.22,-937.46 -937.20,-937.54 -938.19,-937.54 -939.15,-937.44 -940.07,-937.23 -940.95,-936.92 -941.78,-936.49 -942.55,-935.97 -943.28,-935.34 -943.96,-934.60"/>
    </edge>
    <edge id=":119_1" function="internal">
        <lane id=":119_1_0" index="0" disallow="pedestrian tram rail_urban rail rail_electric rail_fast ship" speed="10.56" length="24.01" width="3.49" shape="-924.32,-932.15 -925.32,-932.82 -929.08,-935.58 -931.81,-937.86 -933.55,-939.55 -935.15,-941.40 -935.89,-942.48 -936.53,-943.66 -937.01,-944.98 -937.24,-946.45 -937.09,-948.02 -935.97,-950.36"/>
    </edge>
    <edge id=":119_2" function="internal">
        <lane id=":119_2_0" index="0" disallow="pedestrian tram rail_urban rail rail_electric rail_fast ship" speed="9.41" length="18.76" width="3.50" shape="-933.06,-948.44 -933.91,-946.73 -933.82,-945.75 -933.45,-944.83 -932.93,-943.99 -932.33,-943.20 -931.68,-942.46 -930.26,-941.06 -928.76,-939.76 -926.42,-937.92 -923.20,-935.61 -922.38,-935.06"/>
    </edge>
    <edge id=":119_3" function="internal">
        <lane id=":119_3_0" index="0" disallow="pedestrian tram rail_urban rail rail_electric rail_fast ship" speed="36.11" length="17.62" width="3.50" shape="-933.06,-948.44 -936.26,-944.09 -943.96,-934.60"/>
    </edge>
    <edge id=":119_4" function="internal">
        <lane id=":119_4_0" index="0" disallow="pedestrian tram rail_urban rail rail_electric rail_fast ship" speed="36.11" length="17.26" width="3.49" shape="-946.66,-936.82 -939.02,-946.23 -935.97,-950.36"/>
    </edge>
    <edge id=":119_5" function="internal">
        <lane id=":119_5_0" index="0" disallow="pedestrian tram rail_urban rail rail_electric rail_fast ship" speed="11.31" length="26.97" width="3.50" shape="-946.67,-936.82 -945.76,-937.80 -944.81,-938.66 -943.77,-939.41 -942.65,-940.03 -941.46,-940.51 -940.22,-940.85 -938.96,-941.04 -937.68,-941.10 -936.40,-941.04 -933.87,-940.61 -931.42,-939.86 -929.04,-938.88 -925.63,-937.10 -922.38,-935.06"/>
    </edge>
    <edge id=":120_0" function="internal">
        <lane id=":120_0_0" index="0" disallow="pedestrian tram rail_urban rail rail_electric rail_fast ship" speed="36.11" length="39.33" width="3.50" shape="-839.39,-875.37 -867.05,-893.62 -872.19,-897.07"/>
    </edge>
    <edge id=":120_1" function="internal">
        <lane id=":120_1_0" index="0" disallow="pedestrian tram rail_urban rail rail_electric rail_fast ship" speed="11.82" length="35.59" width="3.50" shape="-839.39,-875.37 -842.74,-877.80 -844.78,-879.62 -846.62,-881.64 -847.44,-882.74 -848.18,-883.89 -848.81,-885.10 -849.34,-886.37 -849.73,-887.67 -849.99,-889.02 -850.11,-890.38 -850.09,-891.75 -849.93,-893.10 -849.65,-894.44 -849.27,-895.75 -848.21,-898.28 -846.86,-900.66 -845.29,-902.90 -843.57,-905.02"/>
    </edge>
    <edge id=":120_2" function="internal">
        <lane id=":120_2_0" index="0" disallow="pedestrian tram rail_urban rail rail_electric rail_fast ship" speed="10.79" length="29.47" width="3.50" shape="-840.93,-902.72 -842.42,-900.89 -843.77,-898.96 -844.91,-896.95 -845.80,-894.84 -846.10,-893.80 -846.33,-892.73 -846.45,-891.66 -846.47,-890.58 -846.37,-889.52 -846.17,-888.48 -845.86,-887.45 -845.45,-886.45 -844.94,-885.49 -844.34,-884.55 -843.68,-883.67 -842.13,-881.95 -840.40,-880.42 -837.48,-878.30"/>
    </edge>
    <edge id=":120_3" function="internal">
        <lane id=":120_3_0" index="0" disallow="pedestrian tram rail_urban rail rail_electric rail_fast ship" speed="13.03" length="35.41" width="3.50" shape="-840.93,-902.72 -843.45,-900.05 -846.24,-897.62 -848.29,-896.15 -850.48,-894.88 -852.82,-893.86 -855.29,-893.13 -857.86,-892.74 -860.45,-892.72 -863.01,-893.06 -865.49,-893.71 -867.85,-894.63 -870.09,-895.77 -872.19,-897.07"/>
    </edge>
    <edge id=":120_4" function="internal">
        <lane id=":120_4_0" index="0" disallow="pedestrian tram rail_urban rail rail_electric rail_fast ship" speed="12.09" length="30.31" width="3.50" shape="-870.25,-899.98 -868.41,-898.85 -866.48,-897.87 -864.46,-897.09 -862.36,-896.54 -860.22,-896.27 -858.05,-896.30 -855.91,-896.64 -853.84,-897.27 -851.86,-898.15 -850.00,-899.25 -848.24,-900.51 -845.80,-902.66 -843.57,-905.02"/>
    </edge>
    <edge id=":120_5" function="internal">
        <lane id=":120_5_0" index="0" disallow="pedestrian tram rail_urban rail rail_electric rail_fast ship" speed="36.11" length="39.29" width="3.50" shape="-870.25,-899.98 -865.11,-896.53 -837.48,-878.30"/>
    </edge>
    <edge id=":121_0" function="internal">
        <lane id=":121_0_0" index="0" disallow="pedestrian tram rail_urban rail rail_electric rail_fast ship" speed="36.11" length="38.57" width="3.50" shape="-825.89,-800.82 -826.65,-801.57 -853.36,-827.89"/>
    </edge>
    <edge id=":121_1" function="internal">
        <lane id=":121_1_0" index="0" disallow="pedestrian tram rail_urban rail rail_electric rail_fast ship" speed="12.01" length="34.28" width="3.50" shape="-825.89,-800.82 -828.57,-803.77 -830.13,-805.89 -831.47,-808.16 -832.51,-810.58 -832.89,-811.84 -833.16,-813.13 -833.32,-814.44 -833.36,-815.76 -833.27,-817.07 -833.07,-818.37 -832.75,-819.65 -832.33,-820.90 -831.20,-823.28 -829.78,-825.50 -828.14,-827.56 -825.37,-830.38"/>
    </edge>
    <edge id=":121_2" function="internal">
        <lane id=":121_2_0" index="0" disallow="pedestrian tram rail_urban rail rail_electric rail_fast ship" speed="10.99" length="28.54" width="3.50" shape="-823.00,-827.81 -825.41,-825.35 -826.80,-823.61 -827.99,-821.75 -828.93,-819.77 -829.26,-818.79 -829.51,-817.76 -829.67,-816.73 -829.74,-815.69 -829.71,-814.65 -829.58,-813.61 -829.36,-812.57 -829.07,-811.58 -828.20,-809.56 -827.08,-807.66 -825.76,-805.86 -823.42,-803.30"/>
    </edge>
    <edge id=":121_3" function="internal">
        <lane id=":121_3_0" index="0" disallow="pedestrian tram rail_urban rail rail_electric rail_fast ship" speed="12.46" length="34.32" width="3.50" shape="-823.00,-827.81 -825.84,-825.44 -827.91,-824.02 -830.11,-822.79 -832.47,-821.80 -834.96,-821.11 -837.52,-820.78 -838.86,-820.77 -840.17,-820.86 -841.50,-821.07 -843.97,-821.74 -846.34,-822.74 -848.55,-824.00 -850.60,-825.47 -853.36,-827.89"/>
    </edge>
    <edge id=":121_4" function="internal">
        <lane id=":121_4_0" index="0" disallow="pedestrian tram rail_urban rail rail_electric rail_fast ship" speed="11.48" length="28.97" width="3.50" shape="-850.94,-830.41 -848.52,-828.29 -846.77,-827.04 -844.91,-825.98 -842.93,-825.15 -840.86,-824.59 -839.80,-824.43 -838.73,-824.36 -837.66,-824.37 -835.53,-824.64 -833.46,-825.21 -831.49,-826.05 -829.61,-827.10 -827.85,-828.32 -825.37,-830.38"/>
    </edge>
    <edge id=":121_5" function="internal">
        <lane id=":121_5_0" index="0" disallow="pedestrian tram rail_urban rail rail_electric rail_fast ship" speed="36.11" length="38.63" width="3.50" shape="-850.94,-830.41 -824.19,-804.06 -823.42,-803.30"/>
    </edge>
    <edge id=":122_0" function="internal">
        <lane id=":122_0_0" index="0" disallow="pedestrian tram rail_urban rail rail_electric rail_fast ship" speed="11.01" length="29.21" width="3.50" shape="-939.53,-911.64 -942.19,-913.97 -944.06,-915.28 -946.03,-916.39 -948.12,-917.21 -949.14,-917.48 -950.20,-917.66 -951.27,-917.75 -952.33,-917.74 -953.39,-917.62 -954.44,-917.40 -955.47,-917.08 -956.46,-916.69 -958.45,-915.63 -960.29,-914.31 -962.01,-912.79 -964.41,-910.21"/>
    </edge>
    <edge id=":122_1" function="internal">
        <lane id=":122_1_0" index="0" disallow="pedestrian tram rail_urban rail rail_electric rail_fast ship" speed="36.11" length="39.48" width="3.50" shape="-939.53,-911.64 -951.61,-923.08 -963.16,-933.52 -968.64,-938.30"/>
    </edge>
    <edge id=":122_2" function="internal">
        <lane id=":122_2_0" index="0" disallow="pedestrian tram rail_urban rail rail_electric rail_fast ship" speed="11.60" length="28.90" width="3.50" shape="-939.53,-911.64 -940.43,-912.53 -942.95,-915.22 -945.28,-918.12 -946.70,-920.23 -947.94,-922.49 -948.91,-924.89 -949.27,-926.21 -949.51,-927.55 -949.60,-928.93 -949.54,-930.33 -949.31,-931.72 -948.90,-933.07 -948.33,-934.36 -947.62,-935.55 -946.79,-936.66"/>
    </edge>
    <edge id=":122_3" function="internal">
        <lane id=":122_3_0" index="0" disallow="pedestrian tram rail_urban rail rail_electric rail_fast ship" speed="10.50" length="23.67" width="3.50" shape="-944.08,-934.45 -944.74,-933.56 -945.28,-932.63 -945.69,-931.63 -945.95,-930.59 -946.08,-929.53 -946.06,-928.45 -945.93,-927.39 -945.68,-926.34 -945.35,-925.32 -944.47,-923.36 -943.38,-921.51 -942.14,-919.75 -940.09,-917.26 -937.87,-914.92 -937.11,-914.17"/>
    </edge>
    <edge id=":122_4" function="internal">
        <lane id=":122_4_0" index="0" disallow="pedestrian tram rail_urban rail rail_electric rail_fast ship" speed="36.11" length="31.64" width="3.50" shape="-944.08,-934.45 -954.26,-922.32 -964.41,-910.21"/>
    </edge>
    <edge id=":122_5" function="internal">
        <lane id=":122_5_0" index="0" disallow="pedestrian tram rail_urban rail rail_electric rail_fast ship" speed="11.02" length="28.15" width="3.50" shape="-944.08,-934.45 -945.01,-933.43 -946.00,-932.54 -947.09,-931.76 -948.27,-931.12 -949.52,-930.64 -950.82,-930.34 -952.15,-930.22 -953.49,-930.25 -954.82,-930.43 -956.12,-930.74 -958.64,-931.64 -961.04,-932.83 -964.43,-934.99 -967.61,-937.44 -968.64,-938.30"/>
    </edge>
    <edge id=":122_6" function="internal">
        <lane id=":122_6_0" index="0" disallow="pedestrian tram rail_urban rail rail_electric rail_fast ship" speed="9.87" length="22.49" width="3.50" shape="-966.35,-940.95 -965.47,-940.21 -962.70,-938.05 -959.80,-936.16 -957.82,-935.13 -955.75,-934.32 -954.76,-934.05 -953.74,-933.87 -952.73,-933.79 -951.75,-933.83 -950.81,-934.00 -949.90,-934.29 -949.05,-934.71 -948.24,-935.25 -947.49,-935.91 -946.79,-936.66"/>
    </edge>
    <edge id=":122_7" function="internal">
        <lane id=":122_7_0" index="0" disallow="pedestrian tram rail_urban rail rail_electric rail_fast ship" speed="36.11" length="39.66" width="3.50" shape="-966.35,-940.95 -960.84,-936.14 -949.23,-925.65 -937.11,-914.17"/>
    </edge>
    <edge id=":122_8" function="internal">
        <lane id=":122_8_0" index="0" disallow="pedestrian tram rail_urban rail rail_electric rail_fast ship" speed="12.41" length="35.13" width="3.50" shape="-966.35,-940.95 -963.62,-938.33 -961.95,-936.36 -960.49,-934.22 -959.28,-931.87 -958.42,-929.39 -958.13,-928.05 -957.95,-926.71 -957.89,-925.36 -957.94,-924.02 -958.10,-922.66 -958.69,-920.12 -959.60,-917.67 -960.77,-915.37 -962.13,-913.21 -964.41,-910.21"/>
    </edge>
    <edge id=":122_9" function="internal">
        <lane id=":122_9_0" index="0" disallow="pedestrian tram rail_urban rail rail_electric rail_fast ship" speed="11.42" length="29.60" width="3.50" shape="-967.09,-912.46 -965.09,-915.08 -963.93,-916.94 -962.93,-918.89 -962.16,-920.94 -961.66,-923.08 -961.53,-924.17 -961.49,-925.26 -961.53,-926.36 -961.67,-927.44 -961.90,-928.52 -962.61,-930.59 -963.62,-932.54 -964.85,-934.35 -966.27,-936.03 -968.64,-938.30"/>
    </edge>
    <edge id=":122_10" function="internal">
        <lane id=":122_10_0" index="0" disallow="pedestrian tram rail_urban rail rail_electric rail_fast ship" speed="36.11" length="31.59" width="3.50" shape="-967.09,-912.46 -956.94,-924.57 -946.79,-936.66"/>
    </edge>
    <edge id=":122_11" function="internal">
        <lane id=":122_11_0" index="0" disallow="pedestrian tram rail_urban rail rail_electric rail_fast ship" speed="12.02" length="35.05" width="3.50" shape="-967.09,-912.46 -964.33,-915.43 -962.31,-917.21 -960.11,-918.77 -957.74,-920.05 -956.49,-920.54 -955.20,-920.94 -953.88,-921.21 -952.54,-921.36 -951.19,-921.38 -949.85,-921.27 -948.52,-921.03 -947.22,-920.69 -944.71,-919.69 -942.36,-918.38 -940.15,-916.83 -937.11,-914.17"/>
    </edge>
    <edge id=":123_0" function="internal">
        <lane id=":123_0_0" index="0" disallow="pedestrian tram rail_urban rail rail_electric rail_fast ship" speed="11.10" length="28.76" width="3.50" shape="-892.22,-865.76 -893.94,-867.32 -895.74,-868.72 -897.63,-869.94 -899.60,-870.91 -901.69,-871.59 -902.71,-871.79 -903.76,-871.91 -904.81,-871.93 -905.86,-871.86 -906.90,-871.68 -907.94,-871.42 -908.92,-871.08 -910.93,-870.13 -912.80,-868.93 -914.55,-867.53 -917.02,-865.10"/>
    </edge>
    <edge id=":123_1" function="internal">
        <lane id=":123_1_0" index="0" disallow="pedestrian tram rail_urban rail rail_electric rail_fast ship" speed="36.11" length="38.88" width="3.50" shape="-892.22,-865.76 -906.19,-879.30 -920.13,-892.83"/>
    </edge>
    <edge id=":123_2" function="internal">
        <lane id=":123_2_0" index="0" disallow="pedestrian tram rail_urban rail rail_electric rail_fast ship" speed="36.11" length="38.87" width="3.50" shape="-917.70,-895.34 -903.75,-881.81 -889.80,-868.28"/>
    </edge>
    <edge id=":123_3" function="internal">
        <lane id=":123_3_0" index="0" disallow="pedestrian tram rail_urban rail rail_electric rail_fast ship" speed="12.33" length="34.40" width="3.50" shape="-917.70,-895.34 -915.92,-893.49 -914.28,-891.49 -912.81,-889.32 -911.59,-886.96 -910.70,-884.46 -910.38,-883.10 -910.19,-881.75 -910.11,-880.38 -910.14,-879.01 -910.29,-877.66 -910.55,-876.33 -910.92,-875.00 -911.88,-872.55 -913.12,-870.23 -914.57,-868.06 -917.02,-865.10"/>
    </edge>
    <edge id=":123_4" function="internal">
        <lane id=":123_4_0" index="0" disallow="pedestrian tram rail_urban rail rail_electric rail_fast ship" speed="11.34" length="28.91" width="3.50" shape="-919.59,-867.47 -917.47,-870.04 -916.23,-871.89 -915.17,-873.85 -914.37,-875.92 -914.07,-876.99 -913.86,-878.08 -913.73,-879.19 -913.70,-880.30 -913.77,-881.41 -913.92,-882.51 -914.17,-883.59 -914.92,-885.69 -915.94,-887.67 -917.18,-889.51 -918.59,-891.23 -920.13,-892.83"/>
    </edge>
    <edge id=":123_5" function="internal">
        <lane id=":123_5_0" index="0" disallow="pedestrian tram rail_urban rail rail_electric rail_fast ship" speed="12.11" length="34.42" width="3.50" shape="-919.59,-867.47 -916.76,-870.25 -914.69,-871.91 -912.46,-873.34 -910.07,-874.48 -908.82,-874.91 -907.54,-875.23 -906.23,-875.45 -904.91,-875.54 -903.58,-875.52 -902.27,-875.37 -900.97,-875.11 -898.45,-874.29 -896.08,-873.12 -893.85,-871.69 -891.76,-870.06 -889.80,-868.28"/>
    </edge>
    <edge id=":124_0" function="internal">
        <lane id=":124_0_0" index="0" disallow="pedestrian tram rail_urban rail rail_electric rail_fast ship" speed="36.11" length="40.10" width="3.50" shape="-786.07,-863.10 -791.82,-857.13 -802.14,-847.14 -814.91,-835.25"/>
    </edge>
    <edge id=":124_1" function="internal">
        <lane id=":124_1_0" index="0" disallow="pedestrian tram rail_urban rail rail_electric rail_fast ship" speed="13.41" length="36.81" width="3.50" shape="-786.07,-863.10 -787.85,-861.31 -789.73,-859.75 -791.77,-858.39 -793.96,-857.30 -796.27,-856.49 -798.67,-856.01 -801.11,-855.83 -803.55,-855.95 -805.97,-856.34 -808.34,-856.95 -811.78,-858.21 -815.10,-859.79 -818.27,-861.63 -819.33,-862.30"/>
    </edge>
    <edge id=":124_2" function="internal">
        <lane id=":124_2_0" index="0" disallow="pedestrian tram rail_urban rail rail_electric rail_fast ship" speed="12.49" length="31.80" width="3.50" shape="-817.42,-865.24 -816.48,-864.63 -813.61,-862.97 -810.66,-861.54 -807.61,-860.41 -805.57,-859.87 -803.49,-859.51 -801.41,-859.39 -799.36,-859.50 -797.34,-859.88 -795.41,-860.53 -793.56,-861.43 -791.82,-862.57 -790.21,-863.90 -788.69,-865.43"/>
    </edge>
    <edge id=":124_3" function="internal">
        <lane id=":124_3_0" index="0" disallow="pedestrian tram rail_urban rail rail_electric rail_fast ship" speed="11.64" length="37.03" width="3.50" shape="-817.42,-865.24 -813.94,-862.72 -811.80,-860.84 -809.87,-858.75 -809.02,-857.61 -808.26,-856.41 -807.60,-855.14 -807.08,-853.82 -806.71,-852.44 -806.51,-851.04 -806.48,-849.61 -806.62,-848.20 -806.91,-846.81 -807.34,-845.45 -807.90,-844.14 -809.30,-841.66 -810.98,-839.37 -812.87,-837.24 -814.91,-835.25"/>
    </edge>
    <edge id=":124_4" function="internal">
        <lane id=":124_4_0" index="0" disallow="pedestrian tram rail_urban rail rail_electric rail_fast ship" speed="10.60" length="30.46" width="3.50" shape="-817.29,-837.81 -815.51,-839.55 -813.89,-841.38 -812.46,-843.31 -811.30,-845.38 -810.86,-846.41 -810.52,-847.48 -810.29,-848.56 -810.18,-849.65 -810.20,-850.73 -810.36,-851.80 -810.65,-852.85 -811.05,-853.88 -811.57,-854.88 -812.18,-855.85 -812.86,-856.76 -814.49,-858.53 -816.30,-860.12 -819.33,-862.30"/>
    </edge>
    <edge id=":124_5" function="internal">
        <lane id=":124_5_0" index="0" disallow="pedestrian tram rail_urban rail rail_electric rail_fast ship" speed="36.11" length="39.77" width="3.50" shape="-817.29,-837.81 -804.58,-849.65 -794.33,-859.57 -788.69,-865.43"/>
    </edge>
    <edge id=":125_0" function="internal">
        <lane id=":125_0_0" index="0" disallow="pedestrian tram rail_urban rail rail_electric rail_fast ship" speed="36.11" length="38.75" width="3.50" shape="-765.66,-989.01 -778.25,-974.28 -790.84,-959.56"/>
    </edge>
    <edge id=":125_1" function="internal">
        <lane id=":125_1_0" index="0" disallow="pedestrian tram rail_urban rail rail_electric rail_fast ship" speed="12.08" length="34.59" width="3.50" shape="-765.66,-989.01 -766.53,-988.04 -768.34,-986.22 -770.34,-984.54 -772.55,-983.06 -774.93,-981.88 -776.25,-981.41 -777.57,-981.05 -778.94,-980.82 -780.32,-980.71 -781.70,-980.73 -783.07,-980.87 -784.41,-981.13 -785.75,-981.51 -788.21,-982.49 -790.52,-983.76 -792.68,-985.24 -795.61,-987.71"/>
    </edge>
    <edge id=":125_2" function="internal">
        <lane id=":125_2_0" index="0" disallow="pedestrian tram rail_urban rail rail_electric rail_fast ship" speed="11.07" length="28.87" width="3.50" shape="-793.23,-990.27 -790.68,-988.13 -788.85,-986.87 -786.91,-985.80 -784.85,-984.97 -783.78,-984.67 -782.69,-984.46 -781.58,-984.34 -780.47,-984.32 -779.37,-984.41 -778.27,-984.59 -777.20,-984.88 -776.15,-985.25 -774.16,-986.23 -772.32,-987.47 -770.62,-988.90 -769.05,-990.47 -768.31,-991.30"/>
    </edge>
    <edge id=":125_3" function="internal">
        <lane id=":125_3_0" index="0" disallow="pedestrian tram rail_urban rail rail_electric rail_fast ship" speed="12.51" length="34.98" width="3.50" shape="-793.23,-990.27 -790.51,-987.49 -788.88,-985.48 -787.43,-983.33 -786.22,-981.04 -785.31,-978.61 -784.99,-977.36 -784.77,-976.08 -784.65,-974.79 -784.63,-973.50 -784.72,-972.20 -785.19,-969.65 -786.01,-967.20 -787.13,-964.86 -788.48,-962.65 -790.84,-959.56"/>
    </edge>
    <edge id=":125_4" function="internal">
        <lane id=":125_4_0" index="0" disallow="pedestrian tram rail_urban rail rail_electric rail_fast ship" speed="11.54" length="29.60" width="3.50" shape="-793.52,-961.80 -791.44,-964.53 -790.29,-966.41 -789.35,-968.39 -788.67,-970.43 -788.28,-972.56 -788.22,-973.58 -788.24,-974.64 -788.34,-975.69 -788.52,-976.73 -788.78,-977.73 -789.55,-979.77 -790.57,-981.70 -791.81,-983.54 -793.22,-985.27 -795.61,-987.71"/>
    </edge>
    <edge id=":125_5" function="internal">
        <lane id=":125_5_0" index="0" disallow="pedestrian tram rail_urban rail rail_electric rail_fast ship" speed="36.11" length="38.80" width="3.50" shape="-793.52,-961.80 -780.91,-976.56 -768.31,-991.30"/>
    </edge>
    <edge id=":126_0" function="internal">
        <lane id=":126_0_0" index="0" disallow="pedestrian tram rail_urban rail rail_electric rail_fast ship" speed="11.08" length="28.32" width="3.50" shape="-983.62,-951.25 -986.19,-953.26 -988.04,-954.41 -990.00,-955.37 -992.06,-956.08 -993.12,-956.32 -994.20,-956.47 -995.29,-956.53 -996.38,-956.49 -997.46,-956.36 -998.52,-956.13 -999.56,-955.81 -1001.56,-954.94 -1003.41,-953.79 -1005.12,-952.44 -1006.70,-950.94 -1008.16,-949.32"/>
    </edge>
    <edge id=":126_1" function="internal">
        <lane id=":126_1_0" index="0" disallow="pedestrian tram rail_urban rail rail_electric rail_fast ship" speed="36.11" length="38.83" width="3.50" shape="-983.62,-951.25 -1003.83,-968.47 -1013.26,-976.33"/>
    </edge>
    <edge id=":126_2" function="internal">
        <lane id=":126_2_0" index="0" disallow="pedestrian tram rail_urban rail rail_electric rail_fast ship" speed="36.11" length="38.88" width="3.50" shape="-1011.03,-979.03 -1001.57,-971.14 -981.35,-953.92"/>
    </edge>
    <edge id=":126_3" function="internal">
        <lane id=":126_3_0" index="0" disallow="pedestrian tram rail_urban rail rail_electric rail_fast ship" speed="12.17" length="34.31" width="3.50" shape="-1011.03,-979.03 -1008.09,-976.33 -1006.34,-974.37 -1004.79,-972.23 -1003.51,-969.92 -1003.01,-968.71 -1002.59,-967.45 -1002.29,-966.17 -1002.10,-964.87 -1002.02,-963.55 -1002.07,-962.23 -1002.22,-960.92 -1002.48,-959.63 -1003.29,-957.12 -1004.41,-954.73 -1005.77,-952.48 -1008.16,-949.32"/>
    </edge>
    <edge id=":126_4" function="internal">
        <lane id=":126_4_0" index="0" disallow="pedestrian tram rail_urban rail rail_electric rail_fast ship" speed="11.16" length="28.70" width="3.50" shape="-1010.84,-951.57 -1008.76,-954.32 -1007.60,-956.23 -1006.66,-958.24 -1005.99,-960.34 -1005.79,-961.36 -1005.66,-962.42 -1005.63,-963.47 -1005.69,-964.52 -1005.84,-965.57 -1006.09,-966.59 -1006.42,-967.61 -1006.82,-968.57 -1007.90,-970.51 -1009.20,-972.31 -1010.70,-973.98 -1013.26,-976.33"/>
    </edge>
    <edge id=":126_5" function="internal">
        <lane id=":126_5_0" index="0" disallow="pedestrian tram rail_urban rail rail_electric rail_fast ship" speed="12.09" length="33.93" width="3.50" shape="-1010.84,-951.57 -1009.14,-953.45 -1007.30,-955.21 -1005.27,-956.80 -1003.04,-958.18 -1000.64,-959.24 -999.32,-959.64 -998.00,-959.92 -996.66,-960.09 -995.30,-960.13 -993.96,-960.06 -992.62,-959.87 -991.29,-959.57 -988.83,-958.73 -986.50,-957.58 -984.31,-956.21 -981.35,-953.92"/>
    </edge>
    <edge id=":127_0" function="internal">
        <lane id=":127_0_0" index="0" disallow="pedestrian tram rail_urban rail rail_electric rail_fast ship" speed="36.11" length="40.12" width="3.50" shape="-902.84,-1005.30 -908.36,-999.19 -915.58,-991.86 -929.53,-978.17 -930.96,-976.70"/>
    </edge>
    <edge id=":127_1" function="internal">
        <lane id=":127_1_0" index="0" disallow="pedestrian tram rail_urban rail rail_electric rail_fast ship" speed="12.07" length="34.58" width="3.50" shape="-902.84,-1005.30 -903.71,-1004.32 -905.53,-1002.51 -907.53,-1000.82 -909.74,-999.35 -912.12,-998.17 -913.44,-997.70 -914.77,-997.35 -916.13,-997.12 -917.51,-997.01 -918.89,-997.03 -920.26,-997.18 -921.60,-997.44 -922.93,-997.81 -925.39,-998.79 -927.71,-1000.05 -929.87,-1001.52 -932.81,-1003.98"/>
    </edge>
    <edge id=":127_2" function="internal">
        <lane id=":127_2_0" index="0" disallow="pedestrian tram rail_urban rail rail_electric rail_fast ship" speed="11.07" length="28.87" width="3.50" shape="-930.43,-1006.55 -927.88,-1004.42 -926.05,-1003.17 -924.10,-1002.10 -922.04,-1001.28 -920.97,-1000.98 -919.88,-1000.76 -918.78,-1000.64 -917.67,-1000.62 -916.56,-1000.71 -915.46,-1000.89 -914.39,-1001.17 -913.34,-1001.54 -911.35,-1002.52 -909.51,-1003.75 -907.80,-1005.18 -906.24,-1006.75 -905.49,-1007.59"/>
    </edge>
    <edge id=":127_3" function="internal">