<routes>
	<vehicle depart="0.1" departLane="0" departPos="29.234259576804913" departSpeed="0.78857033" id="380" type="passenger">
		<route edges="13623 14367"/>
	</vehicle>
	<vehicle depart="0.1" departLane="0" departPos="21.731780465136907" departSpeed="0.0" id="3105" type="passenger">
		<route edges="13623 14367"/>
	</vehicle>
	<vehicle depart="0.1" departLane="0" departPos="12.089408753630941" departSpeed="14.009848" id="3108" type="passenger">
		<route edges="14367 17356"/>
	</vehicle>
	<vehicle depart="0.1" departLane="0" departPos="25.12054330816193" departSpeed="13.586976" id="3127" type="passenger">
		<route edges=":132_4 14367 17356"/>
	</vehicle>
	<vehicle depart="0.1" departLane="0" departPos="15.120534146737086" departSpeed="7.235237" id="3131" type="passenger">
		<route edges=":132_4 14367 17356"/>
	</vehicle>
</routes>
