<routes>
	<vehicle depart="0.1" departLane="0" departPos="41.08671766754195" departSpeed="0.0015980462" id="327" type="bicycle">
		<route edges="1775 1772"/>
	</vehicle>
	<vehicle depart="0.1" departLane="0" departPos="19.091988217263435" departSpeed="0.0" id="35" type="passenger">
		<route edges=":43_4 2572"/>
	</vehicle>
	<vehicle depart="0.1" departLane="0" departPos="20.493519034775737" departSpeed="16.960913" id="37" type="passenger">
		<route edges=":42_1 2709 2706"/>
	</vehicle>
	<vehicle depart="0.1" departLane="0" departPos="68.87042901208018" departSpeed="0.0" id="39" type="passenger">
		<route edges="1775 1772"/>
	</vehicle>
	<vehicle depart="0.1" departLane="0" departPos="61.379832823528716" departSpeed="0.0" id="312" type="passenger">
		<route edges="1775 1772"/>
	</vehicle>
	<vehicle depart="0.1" departLane="0" departPos="54.23596241163515" departSpeed="1.7357346e-05" id="316" type="passenger">
		<route edges="1775 1772"/>
	</vehicle>
	<vehicle depart="0.1" departLane="0" departPos="47.08421306763537" departSpeed="0.00017435353" id="317" type="passenger">
		<route edges="1775 1772"/>
	</vehicle>
	<vehicle depart="0.1" departLane="0" departPos="38.82646284189996" departSpeed="0.0" id="321" type="passenger">
		<route edges=":45_2 1773"/>
	</vehicle>
	<vehicle depart="0.1" departLane="0" departPos="37.079755058014825" departSpeed="0.39930969" id="339" type="passenger">
		<route edges="2707 2571"/>
	</vehicle>
	<vehicle depart="0.1" departLane="0" departPos="10.629756381241984" departSpeed="2.8428243" id="341" type="passenger">
		<route edges=":41_3 2571"/>
	</vehicle>
</routes>
