<routes>
	<vehicle depart="0.1" departLane="0" departPos="56.49090616089457" departSpeed="0.33545696" id="318" type="passenger">
		<route edges="51180 51249"/>
	</vehicle>
	<vehicle depart="0.1" departLane="0" departPos="46.490338554056166" departSpeed="0.91771968" id="322" type="passenger">
		<route edges="51173 51300"/>
	</vehicle>
	<vehicle depart="0.1" departLane="0" departPos="47.59959289500254" departSpeed="1.4886238" id="323" type="passenger">
		<route edges="51180 51249"/>
	</vehicle>
	<vehicle depart="0.1" departLane="0" departPos="39.48082622876121" departSpeed="1.2387095" id="335" type="passenger">
		<route edges="51173 51300"/>
	</vehicle>
	<vehicle depart="0.1" departLane="0" departPos="25.199175790236016" departSpeed="1.0516916" id="348" type="passenger">
		<route edges="51173 51300"/>
	</vehicle>
	<vehicle depart="0.1" departLane="0" departPos="15.785956591768883" departSpeed="1.26926" id="351" type="passenger">
		<route edges="51173 51300"/>
	</vehicle>
	<vehicle depart="0.1" departLane="0" departPos="27.90335251768739" departSpeed="11.662014" id="356" type="passenger">
		<route edges=":53_0 51300 51302"/>
	</vehicle>
	<vehicle depart="0.1" departLane="0" departPos="10.192928173085882" departSpeed="9.3209687" id="362" type="passenger">
		<route edges=":53_0 51300 51302"/>
	</vehicle>
	<vehicle depart="0.1" departLane="0" departPos="34.943003535179855" departSpeed="3.9932415" id="324" type="motorcycle">
		<route edges="51180 51249"/>
	</vehicle>
	<vehicle depart="0.1" departLane="0" departPos="63.81647773468664" departSpeed="0.81400582" id="320" type="truck">
		<route edges="51173 51300"/>
	</vehicle>
</routes>
