<routes>
	<vehicle depart="0.1" departLane="1" departPos="13.988279357148285" departSpeed="0.94791381" id="367" type="bus">
		<route edges="2049 3961"/>
	</vehicle>
	<vehicle depart="0.1" departLane="0" departPos="20.779812369823453" departSpeed="2.0361362" id="33" type="passenger">
		<route edges=":39_4 2478"/>
	</vehicle>
	<vehicle depart="0.1" departLane="0" departPos="45.38100406111564" departSpeed="17.474193" id="359" type="passenger">
		<route edges=":39_4 2478 4331 2181 2184"/>
	</vehicle>
	<vehicle depart="0.1" departLane="1" departPos="23.805370998009135" departSpeed="0.42298398" id="361" type="passenger">
		<route edges="2049 3961"/>
	</vehicle>
	<vehicle depart="0.1" departLane="0" departPos="47.95537944110662" departSpeed="13.647833" id="363" type="passenger">
		<route edges=":39_0 2478 4331 2181"/>
	</vehicle>
	<vehicle depart="0.1" departLane="0" departPos="34.694508323364914" departSpeed="9.7943566" id="369" type="passenger">
		<route edges=":39_0 2478 4331"/>
	</vehicle>
	<vehicle depart="0.1" departLane="0" departPos="5.246413368945367" departSpeed="6.7405737" id="372" type="passenger">
		<route edges=":39_0 2478"/>
	</vehicle>
	<vehicle depart="0.1" departLane="0" departPos="8.770278596814718" departSpeed="4.7405172" id="375" type="passenger">
		<route edges="2049 2478"/>
	</vehicle>
</routes>
