<!-- generated on 2020-12-18 15:37:31.252332 by ipykernel_launcher.py v1_2_0+5214-53edc58fcd
-->
<tlLogics/>
