<routes>
	<vehicle depart="0.1" departLane="0" departPos="8.053727692498546" departSpeed="1.0389442" id="31" type="passenger">
		<route edges=":103_0 85976"/>
	</vehicle>
	<vehicle depart="0.1" departLane="0" departPos="5.1127624211219365" departSpeed="0.0" id="37" type="passenger">
		<route edges="85979 85976"/>
	</vehicle>
	<vehicle depart="0.1" departLane="0" departPos="66.17886013661766" departSpeed="0.0" id="39" type="passenger">
		<route edges="85613 86433"/>
	</vehicle>
	<vehicle depart="0.1" departLane="0" departPos="17.58835618692548" departSpeed="1.4774437" id="319" type="passenger">
		<route edges=":103_0 85976 85288"/>
	</vehicle>
	<vehicle depart="0.1" departLane="0" departPos="9.769777585802306" departSpeed="0.0" id="340" type="passenger">
		<route edges=":103_3 86433"/>
	</vehicle>
	<vehicle depart="0.1" departLane="0" departPos="2.5" departSpeed="0.65989907" id="356" type="passenger">
		<route edges=":92_2 85288 85923 85957"/>
	</vehicle>
	<vehicle depart="0.1" departLane="0" departPos="28.801505193302017" departSpeed="15.202762" id="366" type="passenger">
		<route edges="85783 85833"/>
	</vehicle>
	<vehicle depart="0.1" departLane="0" departPos="8.840006274544455" departSpeed="14.418766" id="372" type="passenger">
		<route edges="85783 85833"/>
	</vehicle>
	<vehicle depart="0.1" departLane="0" departPos="11.9040656282066" departSpeed="2.103751" id="350" type="truck">
		<route edges=":92_5 85288"/>
	</vehicle>
</routes>
