<!-- generated on 2020-12-18 15:54:44.477306 by ipykernel_launcher.py v1_2_0+5214-53edc58fcd
-->
<edges>
	<edge from="1" function="normal" id="23" length="175.21473217806724" numLanes="6" priority="1" speed="36.11111111111111" spreadType="center" to="2">
		<lane allow="moped bicycle pedestrian custom1 trailer evehicle rail_urban ship private vip custom2 authority delivery rail_electric taxi tram army hov coach motorcycle passenger rail emergency" index="0" length="175.21473217806724" shape="-57.522,27.534100000000002 -56.004949999999994,26.221 -55.2821,25.574550000000002 -52.56525,23.243 -51.842349999999996,22.596600000000002 -48.99845,20.0856 -48.275549999999996,19.43915 -45.6165,17.08615 -44.8936,16.439700000000002 -42.08055,14.018 -41.35765000000001,13.3716 -38.72735,11.0696 -38.0045,10.42315 -35.2966,8.0546 -34.65205,7.4777 -34.5702,7.40535 -31.74505,5.02375 -31.02145,4.3782 -28.40065,2.0214 -27.677,1.3759000000000001 -25.0061,-0.9371500000000001 -24.2825,-1.5827 -21.48965,-4.0306 -20.76605,-4.67615 -18.2558,-6.83915 -17.53215,-7.4847 -14.75715,-9.91005 -14.03355,-10.5556 -11.33695,-12.81715 -10.613299999999999,-13.46275 -7.871700000000001,-15.91725 -7.14805,-16.5628 -6.489850000000001,-17.13385 -4.41395,-18.93575 -3.6904500000000002,-19.58145 -1.03865,-21.866799999999998 -0.31515000000000004,-22.51255 2.37965,-24.8339 3.1031000000000004,-25.479599999999998 7.60725,-29.3857 8.33075,-30.03145 11.20285,-32.4883 11.92635,-33.134 14.80615,-35.613150000000005 15.52965,-36.25885 18.3541,-38.73525 19.0776,-39.38095 21.747950000000003,-41.694599999999994 22.47145,-42.3403 25.05375,-44.56355 25.2759,-44.75935 25.982999999999997,-45.42285 26.47905,-45.88195 28.789099999999998,-47.9253 29.50895,-48.5753 32.3729,-51.130250000000004 33.092749999999995,-51.780199999999994 35.9382,-54.30755 36.65805,-54.957499999999996 39.410650000000004,-57.376850000000005 40.1305,-58.026849999999996 42.015699999999995,-59.6565 42.8609,-60.38975 44.5743,-61.9307 50.8066,-67.22305 53.39485,-69.43015 54.1223,-70.07105 56.94435,-72.50880000000001 57.6717,-73.1497 58.31955000000001,-73.7048 60.3651,-75.50025 61.08495,-76.1502 63.749700000000004,-78.501 64.46965,-79.15084999999999 67.2546,-81.6001 67.9745,-82.25 70.77590000000001,-84.68445 71.49585,-85.33435 74.3249,-87.85079999999999" speed="36.11111111111111" width="3.681428812295573"/>
		<lane allow="moped bicycle pedestrian custom1 trailer evehicle rail_urban ship private vip custom2 authority delivery rail_electric taxi tram army hov coach motorcycle passenger rail emergency" index="1" length="175.21473217806724" shape="-55.038399999999996,30.362000000000002 -53.503299999999996,28.98975 -52.79045,28.33215 -52.27395,27.878149999999998 -50.124399999999994,26.0442 -49.469350000000006,25.46195 -49.41755,25.4166 -46.58525,22.929850000000002 -45.89485,22.3166 -45.8452,22.273200000000003 -44.23350000000001,20.8548 -43.125299999999996,19.8427 -42.41235,19.1851 -41.25895,18.163600000000002 -39.66335,16.80425 -39.019149999999996,16.23425 -38.949600000000004,16.17405 -36.3208,13.895700000000001 -35.6523,13.304649999999999 -35.5809,13.242899999999999 -33.2596,11.232099999999999 -33.238550000000004,11.2137 -32.8474,10.8731 -32.11695,10.2227 -30.1787,8.5927 -29.2866,7.837949999999999 -28.619300000000003,7.24165 -26.023600000000002,4.904 -25.9739,4.86005 -25.27915,4.2382 -25.209249999999997,4.1776 -22.55245,1.8714 -22.405749999999998,1.74085 -21.8996,1.2892 -21.84255,1.2392500000000002 -19.347099999999998,-0.94535 -19.021,-1.2347 -18.3012,-1.8847 -15.804499999999999,-4.0625 -15.1128,-4.68715 -15.07075,-4.7242 -12.3245,-7.15455 -11.604700000000001,-7.80455 -10.65465,-8.6081 -8.930299999999999,-10.05345 -8.2695,-10.641950000000001 -7.8100000000000005,-11.051649999999999 -5.5649999999999995,-13.0427 -4.8299,-13.69205 -4.74665,-13.7635 -2.0075499999999997,-16.11735 -1.35685,-16.69145 -1.2639999999999998,-16.77075 0.16169999999999995,-17.98865 1.40685,-19.0596 2.06385,-19.6447 2.14475,-19.7143 3.1557,-20.5852 4.836,-22.04765 5.5564,-22.697000000000003 10.040949999999999,-26.6248 10.76135,-27.27415 10.8423,-27.343 13.6197,-29.714199999999998 13.73255,-29.8139 14.1814,-30.207050000000002 14.2928,-30.3005 17.1847,-32.7229 17.51385,-33.00455 17.60295,-33.08395 17.91705,-33.361450000000005 17.9857,-33.42075 20.65165,-35.754149999999996 20.839750000000002,-35.92115 21.5595,-36.571200000000005 24.2159,-38.90025 24.935650000000003,-39.5503 26.0657,-40.534 27.79245,-42.01745 28.45195,-42.60485 28.509,-42.654700000000005 29.03225,-43.11235 31.29795,-45.1139 31.98695,-45.73515 32.0186,-45.7633 34.8839,-48.3164 35.57285,-48.93755 35.61035,-48.97085 38.08735,-51.168350000000004 38.416,-51.45635 39.0961,-52.06175 39.16415,-52.1208 41.08435,-53.787 41.927099999999996,-54.51545 42.5796,-55.0949 42.6763,-55.1768 45.4664,-57.54965 46.11935,-58.1295 46.1676,-58.17165 48.7489,-60.44375 48.88435,-60.56345 49.5847,-61.18685 49.68305,-61.26985 51.8527,-63.11455 52.557249999999996,-63.7181 53.23365,-64.3248 53.30005,-64.38225 55.8476,-66.5955 56.52445,-67.20259999999999 56.57299999999999,-67.24525 59.370099999999994,-69.7059 59.5244,-69.844 60.020700000000005,-70.28694999999999 60.08875,-70.3459 62.59425,-72.51759999999999 62.83605,-72.7298 63.52455,-73.35045 63.57085000000001,-73.3912 66.2227,-75.72825 66.9431,-76.37765 69.72975,-78.825 70.45009999999999,-79.4744 70.7337,-79.71975 73.25104999999999,-81.87825000000001 73.62305,-82.20885 73.91325,-82.46805 73.96325,-82.5118 76.83695,-85.03475 76.83855,-85.03614999999999" speed="36.11111111111111" width="3.448898331351621"/>
		<lane allow="moped bicycle pedestrian custom1 trailer evehicle rail_urban ship private vip custom2 authority delivery rail_electric taxi tram army hov coach motorcycle passenger rail emergency" index="2" length="175.21473217806724" shape="-52.7175,33.00465 -50.099149999999995,30.6627 -50.00175,30.57855 -48.9963,29.709 -46.04595,27.057699999999997 -41.9379,23.534550000000003 -39.078450000000004,20.990299999999998 -38.966499999999996,20.89445 -37.852850000000004,19.9396 -37.79375,19.884900000000002 -34.896100000000004,17.294400000000003 -30.9304,13.8247 -27.95655,11.2064 -26.833550000000002,10.2145 -23.855449999999998,7.61705 -20.0407,4.28725 -17.04495,1.6810999999999998 -15.937449999999998,0.70435 -12.96755,-1.91345 -8.44165,-5.91675 -8.411150000000001,-5.943300000000001 -5.42965,-8.5445 -4.8370500000000005,-9.056750000000001 -1.8354,-11.643149999999999 2.4491,-15.328800000000001 5.43755,-17.922199999999997 13.0845,-24.63875 13.11735,-24.66725 16.11215,-27.2666 17.65175,-28.5664 19.96435,-30.5242 20.6343,-31.10655 22.95795,-33.1583 28.3138,-37.95355 28.35495,-37.98965 31.2853,-40.536950000000004 31.300199999999997,-40.550200000000004 39.15325,-47.549400000000006 40.31215,-48.56955 40.342150000000004,-48.595600000000005 42.152,-50.16925 43.26415,-51.116150000000005 50.8176,-57.525400000000005 50.86525,-57.566599999999994 51.1512,-57.8138 53.8529,-60.1623 54.178,-60.454 61.484700000000004,-67.03569999999999 61.81825,-67.3278 61.835499999999996,-67.34275 64.48265,-69.644 64.8398,-69.95875 72.6449,-76.91704999999999 72.89515,-77.13745 72.92439999999999,-77.16290000000001 75.64835,-79.53105 75.87395,-79.72505000000001 79.1034,-82.5001" speed="36.11111111111111" width="3.216879682238676"/>
		<lane allow="moped bicycle pedestrian custom1 trailer evehicle rail_urban ship private truck vip custom2 authority delivery rail_electric taxi tram army hov coach motorcycle passenger rail emergency" index="3" length="175.21473217806724" shape="-50.5745,35.4448 -48.93455,33.9788 -46.89265,32.25605 -44.029849999999996,29.73805 -43.89775,29.62715 -40.76205,26.9887 -37.80185,24.35405 -35.63725,22.49365 -32.780699999999996,19.921100000000003 -32.7097,19.8587 -29.52985,17.0568 -26.601799999999997,14.38675 -24.71855,12.7351 -24.68155,12.70305 -21.69135,10.11375 -18.4706,7.3233 -18.459400000000002,7.3134999999999994 -15.4689,4.712 -13.69665,3.1494999999999997 -10.72345,0.5306000000000001 -7.5281,-2.29385 -4.5421499999999995,-4.8986 -2.6595,-6.5644 0.31245,-9.18465 3.71165,-12.1763 6.7043,-14.77335 14.77235,-21.73235 14.7848,-21.7432 17.77545,-24.33845 19.74655,-26.03455 22.7437,-28.617649999999998 26.04315,-31.5051 26.083,-31.5405 29.03375,-34.144999999999996 29.064700000000002,-34.1726 30.5461,-35.4925 33.5247,-38.106049999999996 37.04425,-41.23375 39.99405,-43.830799999999996 40.030699999999996,-43.86365 41.374700000000004,-45.06625 44.34385,-47.69055 47.832750000000004,-50.70795 50.8499,-53.275549999999996 52.9985,-55.100300000000004 55.98675,-57.692099999999996 59.53255,-60.855599999999995 62.487849999999995,-63.49889999999999 63.5837,-64.47825 63.65715,-64.542 66.64670000000001,-67.1375 70.378,-70.417 73.3559,-73.03985 73.3829,-73.06385 74.88165,-74.3941 77.86205000000001,-77.00545 81.32885,-80.0082" speed="36.11111111111111" width="3.049599213011442"/>
		<lane allow="moped bicycle pedestrian custom1 trailer evehicle rail_urban ship private vip custom2 authority delivery rail_electric taxi tram army hov coach motorcycle passenger rail emergency" index="4" length="175.21473217806724" shape="-48.3397,37.989450000000005 -46.81895,36.5713 -38.569649999999996,29.5227 -38.4488,29.412399999999998 -35.63485,26.790300000000002 -35.504900000000006,26.67455 -27.35425,19.6762 -27.23725,19.56945 -24.49835,17.0154 -16.528399999999998,10.098600000000001 -16.246850000000002,9.854849999999999 -13.54155,7.5032 -13.25365,7.2523 -5.4727,0.3819 -5.34865,0.27244999999999997 -5.315300000000001,0.24345000000000006 -2.4385,-2.25775 -2.3095,-2.37145 5.79595,-9.60735 5.8278,-9.6358 5.8781,-9.6796 8.80825,-12.22715 8.8696,-12.2805 16.9395,-19.2584 17.0771,-19.3781 19.9289,-21.857149999999997 20.07895,-21.9864 28.1993,-28.97935 28.3012,-29.06725 31.179499999999997,-31.5693 31.3046,-31.6794 39.272,-38.7477 42.248900000000006,-41.33555 49.9484,-48.16745 49.983149999999995,-48.19785 50.19355,-48.38185 52.9658,-50.7917 53.18985,-50.98605 61.57235,-58.179950000000005 61.5961,-58.2006 61.842749999999995,-58.41425 64.58215,-60.7956 64.8583,-61.04105 72.49605,-67.80255 72.64015,-67.92760000000001 75.48419999999999,-70.39985 75.63059999999999,-70.52715 83.5777,-77.49005" speed="36.11111111111111" width="3.2654832184532836"/>
		<lane allow="moped bicycle pedestrian custom1 trailer evehicle rail_urban ship private vip custom2 authority delivery rail_electric taxi tram army hov coach motorcycle passenger rail emergency" index="5" length="175.21473217806724" shape="-46.0089,40.6434 -44.41235,39.158150000000006 -44.07665,38.8554 -36.17985,31.920099999999998 -35.9247,31.69025 -35.84935,31.62005 -33.239900000000006,29.18875 -32.8801,28.87135 -25.11305,22.2868 -24.87805,22.08045 -24.75965,21.9702 -22.148600000000002,19.540550000000003 -21.8082,19.23475 -14.2898,12.67775 -13.9014,12.33955 -11.30175,10.07975 -10.9208,9.7478 -3.1483499999999998,2.9585500000000002 -2.7611,2.62115 -0.16145000000000004,0.36125 0.17869999999999997,0.061999999999999944 0.21090000000000003,0.03334999999999999 8.1187,-7.0139499999999995 8.4913,-7.341749999999999 11.091,-9.60165 11.4786,-9.9388 19.33685,-16.7806 19.7265,-17.11955 22.32615,-19.37945 22.7182,-19.719949999999997 30.4187,-26.40265 30.80855,-26.74125 33.410399999999996,-29.00295 33.756550000000004,-29.3071 33.78495,-29.332349999999998 41.528800000000004,-36.213 41.9036,-36.542249999999996 44.50325,-38.80215 44.87805,-39.1292 44.88825,-39.138149999999996 52.4691,-45.78005 52.8541,-46.11605 55.4538,-48.37585 55.86025,-48.725350000000006 63.872600000000006,-55.544349999999994 64.2514,-55.87 64.2788,-55.89385 66.8786,-58.15355 67.18735000000001,-58.426950000000005 67.23935,-58.474050000000005 74.7431,-65.26599999999999 75.10454999999999,-65.58619999999999 77.7042,-67.84604999999999 78.095,-68.18575 85.85935,-74.93515" speed="36.11111111111111" width="3.480884515464423"/>
	</edge>
	<edge from="2" function="normal" id="24" length="21.394830526583434" numLanes="5" priority="1" speed="36.11111111111111" spreadType="center" to="3">
		<lane allow="moped bicycle pedestrian custom1 trailer evehicle rail_urban ship private truck vip custom2 authority delivery rail_electric taxi tram army hov coach motorcycle passenger bus rail emergency" index="0" length="21.394830526583434" shape="76.83855,-85.03614999999999 81.55105,-89.15025 84.5358,-91.75569999999999 84.5476,-91.76605 92.6687,-98.88874999999999 93.1763,-99.33189999999999" speed="36.11111111111111" width="3.5077425703720126"/>
		<lane allow="moped bicycle pedestrian custom1 trailer evehicle rail_urban ship private vip custom2 authority delivery rail_electric taxi tram army hov coach motorcycle passenger rail emergency" index="1" length="21.394830526583434" shape="79.1034,-82.5001 83.7854,-86.52405 83.90029999999999,-86.62265 83.92925,-86.64779999999999 86.8203,-89.1607 86.90180000000001,-89.2319 94.90015,-96.2368 94.93594999999999,-96.26805 94.9476,-96.2782 95.42455000000001,-96.6928" speed="36.11111111111111" width="3.2925795176426647"/>
		<lane allow="moped bicycle pedestrian custom1 trailer evehicle rail_urban ship private truck vip custom2 authority delivery rail_electric taxi tram army hov coach motorcycle passenger rail emergency" index="2" length="21.394830526583434" shape="81.32885,-80.0082 81.6315,-80.26975 84.6366,-82.85210000000001 86.1329,-84.168 89.094,-86.7998 92.72515,-90.03545 95.70595,-92.6336 96.9829,-93.7279 97.54295,-94.20625" speed="36.11111111111111" width="3.088246003802152"/>
		<lane allow="moped bicycle pedestrian custom1 trailer evehicle rail_urban ship private vip custom2 authority delivery rail_electric taxi tram army hov coach motorcycle passenger rail emergency" index="3" length="21.394830526583434" shape="83.5777,-77.49005 83.81020000000001,-77.69385 83.82839999999999,-77.70965 83.9279,-77.7963 86.82045,-80.31075 94.65100000000001,-87.37695 94.81615,-87.5244 94.8709,-87.57215 97.68465,-90.01915 97.82305,-90.13839999999999 97.8588,-90.16855 99.6745,-91.7043" speed="36.11111111111111" width="3.3629107763959487"/>
		<lane allow="moped bicycle pedestrian custom1 trailer evehicle rail_urban ship private vip custom2 authority delivery rail_electric taxi tram army hov coach motorcycle passenger rail emergency" index="4" length="21.394830526583434" shape="85.85935,-74.93515 86.17750000000001,-75.21175 86.5683,-75.55145 89.16794999999999,-77.81125 89.49615,-78.10079999999999 89.53585,-78.13640000000001 96.99085,-84.8192 97.35925,-85.14415 99.9589,-87.40405 100.3646,-87.75305 101.91525,-89.0741" speed="36.11111111111111" width="3.482194384292757"/>
	</edge>
	<edge from="2" function="normal" id="22" length="21.807496223651725" numLanes="1" priority="1" speed="36.11111111111111" spreadType="center" to="4">
		<lane allow="moped bicycle pedestrian custom1 trailer evehicle rail_urban ship private truck vip custom2 authority delivery rail_electric taxi tram army hov coach motorcycle passenger bus rail emergency" index="0" length="21.807496223651725" shape="74.3249,-87.85079999999999 79.72640000000001,-92.726 90.4468,-102.53569999999999" speed="36.11111111111111" width="3.9632723701507095"/>
	</edge>
</edges>
