<routes>
	<vehicle depart="0.1" departLane="5" departPos="88.92733234990085" departSpeed="10.6621" id="363" type="passenger">
		<route edges="23 24"/>
	</vehicle>
	<vehicle depart="0.1" departLane="5" departPos="73.65220577788703" departSpeed="9.282" id="376" type="passenger">
		<route edges="23 24"/>
	</vehicle>
	<vehicle depart="0.1" departLane="2" departPos="91.41854563914096" departSpeed="14.2199" id="387" type="passenger">
		<route edges="23 24"/>
	</vehicle>
	<vehicle depart="0.1" departLane="3" departPos="97.16329290778313" departSpeed="13.6679" id="388" type="passenger">
		<route edges="23 24"/>
	</vehicle>
	<vehicle depart="0.1" departLane="3" departPos="75.14037172774275" departSpeed="15.7065" id="394" type="passenger">
		<route edges="23 23 24"/>
	</vehicle>
	<vehicle depart="0.1" departLane="4" departPos="70.16443626647067" departSpeed="13.3582" id="395" type="passenger">
		<route edges="23 24"/>
	</vehicle>
	<vehicle depart="0.1" departLane="4" departPos="62.06143910076458" departSpeed="12.6296" id="399" type="passenger">
		<route edges="23 24"/>
	</vehicle>
	<vehicle depart="0.1" departLane="2" departPos="30.744468771432174" departSpeed="14.3702" id="400" type="passenger">
		<route edges="23 24"/>
	</vehicle>
	<vehicle depart="0.1" departLane="3" departPos="44.563385523524154" departSpeed="14.2858" id="401" type="passenger">
		<route edges="23 24"/>
	</vehicle>
	<vehicle depart="0.1" departLane="1" departPos="68.7868444907774" departSpeed="17.6458" id="402" type="passenger">
		<route edges="23 24"/>
	</vehicle>
	<vehicle depart="0.1" departLane="4" departPos="50.70643406292372" departSpeed="12.5534" id="405" type="passenger">
		<route edges="23 24"/>
	</vehicle>
	<vehicle depart="0.1" departLane="2" departPos="44.53071585657934" departSpeed="12.7233" id="408" type="passenger">
		<route edges="23 24"/>
	</vehicle>
</routes>
