<?xml version="1.0" encoding="UTF-8"?>

<!-- generated on Fri Dec 18 15:54:44 2020 by Eclipse SUMO netconvert Version 1.8.0
<configuration xmlns:xsi="http://www.w3.org/2001/XMLSchema-instance" xsi:noNamespaceSchemaLocation="http://sumo.dlr.de/xsd/netconvertConfiguration.xsd">

    <input>
        <node-files value="./converted_scenarios/NGSIM/US101/USA_US101-3_5_I-1-1/nodes.net.xml"/>
        <edge-files value="./converted_scenarios/NGSIM/US101/USA_US101-3_5_I-1-1/edges.net.xml"/>
        <connection-files value="./converted_scenarios/NGSIM/US101/USA_US101-3_5_I-1-1/_connections.net.xml"/>
        <tllogic-files value="./converted_scenarios/NGSIM/US101/USA_US101-3_5_I-1-1/_tll.net.xml"/>
    </input>

    <output>
        <output-file value="./converted_scenarios/NGSIM/US101/USA_US101-3_5_I-1-1/USA_US101-3_5_I-1-1.net.xml"/>
    </output>

    <processing>
        <plain.extend-edge-shape value="true"/>
        <geometry.remove.keep-edges.explicit value="true"/>
        <geometry.avoid-overlap value="true"/>
        <offset.disable-normalization value="true"/>
    </processing>

    <junctions>
        <no-turnarounds value="true"/>
        <junctions.internal-link-detail value="20"/>
    </junctions>

    <report>
        <aggregate-warnings value="5"/>
    </report>

    <random_number>
        <seed value="1234"/>
    </random_number>

</configuration>
-->

<net version="1.6" junctionCornerDetail="5" junctionLinkDetail="20" limitTurnSpeed="5.50" xmlns:xsi="http://www.w3.org/2001/XMLSchema-instance" xsi:noNamespaceSchemaLocation="http://sumo.dlr.de/xsd/net_file.xsd">

    <location netOffset="0.00,0.00" convBoundary="-51.70,-102.54,97.55,34.16" origBoundary="-57.52,-102.54,101.92,40.64" projParameter="!"/>

    <edge id=":2_0" function="internal">
        <lane id=":2_0_0" index="0" disallow="bus truck rail_fast" speed="36.11" length="3.07" width="3.96" shape="73.13,-86.79 75.42,-88.84"/>
    </edge>
    <edge id=":2_1" function="internal">
        <lane id=":2_1_0" index="0" disallow="bus truck rail_fast" speed="36.11" length="3.14" width="3.51" shape="75.64,-83.98 77.96,-86.02"/>
        <lane id=":2_1_1" index="1" disallow="bus truck rail_fast" speed="36.11" length="3.14" width="3.29" shape="77.89,-81.45 80.25,-83.48"/>
        <lane id=":2_1_2" index="2" disallow="bus rail_fast" speed="36.11" length="3.14" width="3.09" shape="80.11,-78.95 82.49,-81.00"/>
        <lane id=":2_1_3" index="3" disallow="bus truck rail_fast" speed="36.11" length="3.14" width="3.36" shape="82.36,-76.43 84.74,-78.50"/>
        <lane id=":2_1_4" index="4" disallow="bus truck rail_fast" speed="36.11" length="3.14" width="3.48" shape="84.64,-73.87 87.04,-75.96"/>
    </edge>

    <edge id="22" from="2" to="4" priority="1" spreadType="center" length="21.81">
        <lane id="22_0" index="0" disallow="rail_fast" speed="36.11" length="21.81" width="3.96" customShape="1" shape="75.42,-88.84 79.73,-92.73 90.45,-102.54"/>
    </edge>
    <edge id="23" from="1" to="2" priority="1" spreadType="center" length="175.21">
        <lane id="23_0" index="0" disallow="bus truck rail_fast" speed="36.11" length="175.21" width="3.68" customShape="1" shape="-57.71,27.70 -56.00,26.22 -55.28,25.57 -52.57,23.24 -51.84,22.60 -49.00,20.09 -48.28,19.44 -45.62,17.09 -44.89,16.44 -42.08,14.02 -41.36,13.37 -38.73,11.07 -38.00,10.42 -35.30,8.05 -34.65,7.48 -34.57,7.41 -31.75,5.02 -31.02,4.38 -28.40,2.02 -27.68,1.38 -25.01,-0.94 -24.28,-1.58 -21.49,-4.03 -20.77,-4.68 -18.26,-6.84 -17.53,-7.48 -14.76,-9.91 -14.03,-10.56 -11.34,-12.82 -10.61,-13.46 -7.87,-15.92 -7.15,-16.56 -6.49,-17.13 -4.41,-18.94 -3.69,-19.58 -1.04,-21.87 -0.32,-22.51 2.38,-24.83 3.10,-25.48 7.61,-29.39 8.33,-30.03 11.20,-32.49 11.93,-33.13 14.81,-35.61 15.53,-36.26 18.35,-38.74 19.08,-39.38 21.75,-41.69 22.47,-42.34 25.05,-44.56 25.28,-44.76 25.98,-45.42 26.48,-45.88 28.79,-47.93 29.51,-48.58 32.37,-51.13 33.09,-51.78 35.94,-54.31 36.66,-54.96 39.41,-57.38 40.13,-58.03 42.02,-59.66 42.86,-60.39 44.57,-61.93 50.81,-67.22 53.39,-69.43 54.12,-70.07 56.94,-72.51 57.67,-73.15 58.32,-73.70 60.37,-75.50 61.08,-76.15 63.75,-78.50 64.47,-79.15 67.25,-81.60 67.97,-82.25 70.78,-84.68 71.50,-85.33 73.13,-86.79"/>
        <lane id="23_1" index="1" disallow="bus truck rail_fast" speed="36.11" length="175.21" width="3.45" customShape="1" shape="-55.15,30.46 -53.50,28.99 -52.79,28.33 -52.27,27.88 -50.12,26.04 -49.47,25.46 -46.59,22.93 -45.89,22.32 -44.23,20.85 -43.13,19.84 -42.41,19.19 -41.26,18.16 -39.66,16.80 -39.02,16.23 -36.32,13.90 -35.65,13.30 -33.26,11.23 -32.85,10.87 -32.12,10.22 -30.18,8.59 -29.29,7.84 -28.62,7.24 -26.02,4.90 -25.28,4.24 -22.55,1.87 -22.41,1.74 -21.90,1.29 -19.35,-0.95 -19.02,-1.23 -18.30,-1.88 -15.80,-4.06 -15.11,-4.69 -12.32,-7.15 -11.60,-7.80 -10.65,-8.61 -8.93,-10.05 -8.27,-10.64 -7.81,-11.05 -5.56,-13.04 -4.83,-13.69 -4.75,-13.76 -2.01,-16.12 -1.36,-16.69 -1.26,-16.77 0.16,-17.99 1.41,-19.06 2.06,-19.64 2.14,-19.71 3.16,-20.59 4.84,-22.05 5.56,-22.70 10.04,-26.62 10.76,-27.27 10.84,-27.34 13.62,-29.71 13.73,-29.81 14.18,-30.21 14.29,-30.30 17.18,-32.72 17.51,-33.00 17.60,-33.08 17.92,-33.36 20.65,-35.75 20.84,-35.92 21.56,-36.57 24.22,-38.90 24.94,-39.55 26.07,-40.53 27.79,-42.02 28.45,-42.60 29.03,-43.11 31.30,-45.11 31.99,-45.74 34.88,-48.32 35.57,-48.94 38.09,-51.17 38.42,-51.46 39.10,-52.06 41.08,-53.79 41.93,-54.52 42.58,-55.09 42.68,-55.18 45.47,-57.55 46.12,-58.13 48.75,-60.44 48.88,-60.56 49.58,-61.19 49.68,-61.27 51.85,-63.11 52.56,-63.72 53.23,-64.32 55.85,-66.60 56.52,-67.20 59.37,-69.71 59.52,-69.84 60.02,-70.29 62.59,-72.52 62.84,-72.73 63.52,-73.35 66.22,-75.73 66.94,-76.38 69.73,-78.83 70.45,-79.47 70.73,-79.72 73.25,-81.88 73.62,-82.21 73.91,-82.47 75.64,-83.98"/>
        <lane id="23_2" index="2" disallow="bus truck rail_fast" speed="36.11" length="175.21" width="3.22" customShape="1" shape="-52.75,33.03 -50.10,30.66 -50.00,30.58 -49.00,29.71 -46.05,27.06 -41.94,23.53 -39.08,20.99 -38.97,20.89 -37.85,19.94 -34.90,17.29 -30.93,13.82 -27.96,11.21 -26.83,10.21 -23.86,7.62 -20.04,4.29 -17.04,1.68 -15.94,0.70 -12.97,-1.91 -8.44,-5.92 -5.43,-8.54 -4.84,-9.06 -1.84,-11.64 2.45,-15.33 5.44,-17.92 13.08,-24.64 16.11,-27.27 17.65,-28.57 19.96,-30.52 20.63,-31.11 22.96,-33.16 28.31,-37.95 31.29,-40.54 39.15,-47.55 40.31,-48.57 42.15,-50.17 43.26,-51.12 50.82,-57.53 51.15,-57.81 53.85,-60.16 54.18,-60.45 61.48,-67.04 61.82,-67.33 64.48,-69.64 64.84,-69.96 72.64,-76.92 72.90,-77.14 75.65,-79.53 75.87,-79.73 77.89,-81.45"/>
        <lane id="23_3" index="3" disallow="bus rail_fast" speed="36.11" length="175.21" width="3.05" customShape="1" shape="-50.57,35.44 -48.93,33.98 -46.89,32.26 -44.03,29.74 -43.90,29.63 -40.76,26.99 -37.80,24.35 -35.64,22.49 -32.78,19.92 -29.53,17.06 -26.60,14.39 -24.72,12.74 -21.69,10.11 -18.47,7.32 -15.47,4.71 -13.70,3.15 -10.72,0.53 -7.53,-2.29 -4.54,-4.90 -2.66,-6.56 0.31,-9.18 3.71,-12.18 6.70,-14.77 14.77,-21.73 17.78,-24.34 19.75,-26.03 22.74,-28.62 26.04,-31.51 29.03,-34.14 30.55,-35.49 33.52,-38.11 37.04,-41.23 39.99,-43.83 41.37,-45.07 44.34,-47.69 47.83,-50.71 50.85,-53.28 53.00,-55.10 55.99,-57.69 59.53,-60.86 62.49,-63.50 63.58,-64.48 66.65,-67.14 70.38,-70.42 73.36,-73.04 74.88,-74.39 77.86,-77.01 80.11,-78.95"/>
        <lane id="23_4" index="4" disallow="bus truck rail_fast" speed="36.11" length="175.21" width="3.27" customShape="1" shape="-48.23,37.89 -46.82,36.57 -38.57,29.52 -38.45,29.41 -35.63,26.79 -35.50,26.67 -27.35,19.68 -27.24,19.57 -24.50,17.02 -16.53,10.10 -16.25,9.85 -13.54,7.50 -13.25,7.25 -5.47,0.38 -5.35,0.27 -2.44,-2.26 -2.31,-2.37 5.80,-9.61 5.88,-9.68 8.81,-12.23 16.94,-19.26 17.08,-19.38 19.93,-21.86 20.08,-21.99 28.20,-28.98 28.30,-29.07 31.18,-31.57 31.30,-31.68 39.27,-38.75 42.25,-41.34 49.95,-48.17 50.19,-48.38 52.97,-50.79 53.19,-50.99 61.57,-58.18 61.84,-58.41 64.58,-60.80 64.86,-61.04 72.50,-67.80 72.64,-67.93 75.48,-70.40 75.63,-70.53 82.36,-76.43"/>
        <lane id="23_5" index="5" disallow="bus truck rail_fast" speed="36.11" length="175.21" width="3.48" customShape="1" shape="-45.83,40.48 -44.41,39.16 -44.08,38.86 -36.18,31.92 -35.92,31.69 -35.85,31.62 -33.24,29.19 -32.88,28.87 -25.11,22.29 -24.88,22.08 -24.76,21.97 -22.15,19.54 -21.81,19.23 -14.29,12.68 -13.90,12.34 -11.30,10.08 -10.92,9.75 -3.15,2.96 -2.76,2.62 -0.16,0.36 0.18,0.06 8.12,-7.01 8.49,-7.34 11.09,-9.60 11.48,-9.94 19.34,-16.78 19.73,-17.12 22.33,-19.38 22.72,-19.72 30.42,-26.40 30.81,-26.74 33.41,-29.00 33.76,-29.31 41.53,-36.21 41.90,-36.54 44.50,-38.80 44.88,-39.13 52.47,-45.78 52.85,-46.12 55.45,-48.38 55.86,-48.73 63.87,-55.54 64.25,-55.87 66.88,-58.15 67.19,-58.43 74.74,-65.27 75.10,-65.59 77.70,-67.85 78.09,-68.19 84.64,-73.87"/>
    </edge>
    <edge id="24" from="2" to="3" priority="1" spreadType="center" length="21.39">
        <lane id="24_0" index="0" disallow="rail_fast" speed="36.11" length="21.39" width="3.51" customShape="1" shape="77.96,-86.02 81.55,-89.15 84.54,-91.76 92.67,-98.89 93.18,-99.33"/>
        <lane id="24_1" index="1" disallow="bus truck rail_fast" speed="36.11" length="21.39" width="3.29" customShape="1" shape="80.25,-83.48 83.79,-86.52 83.90,-86.62 86.82,-89.16 86.90,-89.23 94.90,-96.24 95.42,-96.69"/>
        <lane id="24_2" index="2" disallow="bus rail_fast" speed="36.11" length="21.39" width="3.09" customShape="1" shape="82.49,-81.00 84.64,-82.85 86.13,-84.17 89.09,-86.80 92.73,-90.04 95.71,-92.63 96.98,-93.73 97.54,-94.21"/>
        <lane id="24_3" index="3" disallow="bus truck rail_fast" speed="36.11" length="21.39" width="3.36" customShape="1" shape="84.74,-78.50 86.82,-80.31 94.65,-87.38 94.82,-87.52 97.68,-90.02 97.82,-90.14 99.70,-91.73"/>
        <lane id="24_4" index="4" disallow="bus truck rail_fast" speed="36.11" length="21.39" width="3.48" customShape="1" shape="87.04,-75.96 89.17,-77.81 89.50,-78.10 96.99,-84.82 97.36,-85.14 99.96,-87.40 100.36,-87.75 101.98,-89.13"/>
    </edge>

    <junction id="1" type="dead_end" x="-51.70" y="34.16" incLanes="" intLanes="" shape="-44.64,41.75 -58.97,26.35"/>
    <junction id="2" type="priority" x="80.17" y="-81.30" incLanes="23_0 23_1 23_2 23_3 23_4 23_5" intLanes=":2_0_0 :2_1_0 :2_1_1 :2_1_2 :2_1_3 :2_1_4" shape="88.21,-74.67 74.09,-90.31 71.91,-88.16 85.80,-72.57">
        <request index="0" response="000000" foes="000000" cont="0"/>
        <request index="1" response="000000" foes="000000" cont="0"/>
        <request index="2" response="000000" foes="000000" cont="0"/>
        <request index="3" response="000000" foes="000000" cont="0"/>
        <request index="4" response="000000" foes="000000" cont="0"/>
        <request index="5" response="000000" foes="000000" cont="0"/>
    </junction>
    <junction id="3" type="dead_end" x="97.55" y="-94.20" incLanes="24_0 24_1 24_2 24_3 24_4" intLanes="" shape="91.96,-100.60 103.12,-87.82"/>
    <junction id="4" type="dead_end" x="90.45" y="-102.54" incLanes="22_0" intLanes="" shape="89.11,-104.00 91.78,-101.07"/>

    <connection from="23" to="22" fromLane="0" toLane="0" contPos="-4.00" via=":2_0_0" dir="R" state="M"/>
    <connection from="23" to="24" fromLane="1" toLane="0" contPos="-4.00" via=":2_1_0" dir="s" state="M"/>
    <connection from="23" to="24" fromLane="2" toLane="1" contPos="-4.00" via=":2_1_1" dir="s" state="M"/>
    <connection from="23" to="24" fromLane="3" toLane="2" contPos="-4.00" via=":2_1_2" dir="s" state="M"/>
    <connection from="23" to="24" fromLane="4" toLane="3" contPos="-4.00" via=":2_1_3" dir="s" state="M"/>
    <connection from="23" to="24" fromLane="5" toLane="4" contPos="-4.00" via=":2_1_4" dir="s" state="M"/>

    <connection from=":2_0" to="22" fromLane="0" toLane="0" dir="R" state="M"/>
    <connection from=":2_1" to="24" fromLane="0" toLane="0" dir="s" state="M"/>
    <connection from=":2_1" to="24" fromLane="1" toLane="1" dir="s" state="M"/>
    <connection from=":2_1" to="24" fromLane="2" toLane="2" dir="s" state="M"/>
    <connection from=":2_1" to="24" fromLane="3" toLane="3" dir="s" state="M"/>
    <connection from=":2_1" to="24" fromLane="4" toLane="4" dir="s" state="M"/>

</net>
