<routes>
	<vehicle depart="0.1" departLane="0" departPos="2.5" departSpeed="1.7399833" id="32" type="passenger">
		<route edges=":117_11 3515"/>
	</vehicle>
	<vehicle depart="0.1" departLane="0" departPos="78.89616991535482" departSpeed="1.4148343" id="317" type="passenger">
		<route edges="3556 3553"/>
	</vehicle>
	<vehicle depart="0.1" departLane="0" departPos="69.50779079742733" departSpeed="1.0875148" id="324" type="passenger">
		<route edges="3556 3553"/>
	</vehicle>
	<vehicle depart="0.1" departLane="0" departPos="53.78397136402981" departSpeed="1.6518041" id="335" type="passenger">
		<route edges="3556 3553"/>
	</vehicle>
	<vehicle depart="0.1" departLane="0" departPos="31.9470547048616" departSpeed="0.0" id="345" type="passenger">
		<route edges="3514 3557"/>
	</vehicle>
	<vehicle depart="0.1" departLane="0" departPos="45.73280838345481" departSpeed="0.69840163" id="359" type="passenger">
		<route edges="3556 3553"/>
	</vehicle>
	<vehicle depart="0.1" departLane="0" departPos="13.30530557769114" departSpeed="21.258922" id="392" type="passenger">
		<route edges="3557 3340"/>
	</vehicle>
	<vehicle depart="0.1" departLane="0" departPos="9.47732583464753" departSpeed="19.211579" id="3113" type="passenger">
		<route edges="3554 3557"/>
	</vehicle>
	<vehicle depart="0.1" departLane="0" departPos="59.398715369891015" departSpeed="1.4157597" id="326" type="motorcycle">
		<route edges="3556 3553"/>
	</vehicle>
</routes>
