<!-- generated on Tue Feb  9 22:14:12 2021 by Eclipse SUMO netconvert Version 1.8.0
<configuration xmlns:xsi="http://www.w3.org/2001/XMLSchema-instance" xsi:noNamespaceSchemaLocation="http://sumo.dlr.de/xsd/netconvertConfiguration.xsd">

    <input>
        <node-files value="./converted_scenarios/scenario-factory/FRA_Miramas-9_2_I-1-1/FRA_Miramas-9_2_I-1-1.nod.xml"/>
        <edge-files value="./converted_scenarios/scenario-factory/FRA_Miramas-9_2_I-1-1/FRA_Miramas-9_2_I-1-1.edg.xml"/>
        <connection-files value="./converted_scenarios/scenario-factory/FRA_Miramas-9_2_I-1-1/FRA_Miramas-9_2_I-1-1.con.xml"/>
        <tllogic-files value="./converted_scenarios/scenario-factory/FRA_Miramas-9_2_I-1-1/FRA_Miramas-9_2_I-1-1.tll.xml"/>
        <type-files value="/home/zen/commonroad-interactive-benchmarks/install/commonroad-map-tool/crmapconverter/sumo_map/templates/DEU.typ.xml"/>
    </input>

    <output>
        <output-file value="./converted_scenarios/scenario-factory/FRA_Miramas-9_2_I-1-1/FRA_Miramas-9_2_I-1-1.net.xml"/>
    </output>

    <processing>
        <geometry.remove.keep-edges.explicit value="true"/>
        <geometry.avoid-overlap value="true"/>
        <offset.disable-normalization value="true"/>
    </processing>

    <junctions>
        <no-turnarounds value="true"/>
        <junctions.internal-link-detail value="20"/>
    </junctions>

    <report>
        <aggregate-warnings value="5"/>
    </report>

    <random_number>
        <seed value="1234"/>
    </random_number>

</configuration>
--><net xmlns:xsi="http://www.w3.org/2001/XMLSchema-instance" version="1.6" junctionCornerDetail="5" junctionLinkDetail="20" limitTurnSpeed="5.50" xsi:noNamespaceSchemaLocation="http://sumo.dlr.de/xsd/net_file.xsd">

    <location netOffset="0.00,0.00" convBoundary="536.65,-359.03,728.62,-252.64" origBoundary="536.65,-359.07,728.62,-252.64" projParameter="!"/>

    <type id="highway.bridleway" priority="1" speed="2.78" allow="pedestrian" oneway="1" width="2.00"/>
    <type id="highway.bus_guideway" priority="1" speed="27.78" allow="bus" oneway="1"/>
    <type id="highway.cycleway" priority="1" speed="8.33" allow="bicycle" oneway="0" width="1.00"/>
    <type id="highway.footway" priority="1" speed="2.78" allow="pedestrian" oneway="1" width="2.00"/>
    <type id="highway.ford" priority="1" speed="2.78" allow="army" oneway="0"/>
    <type id="highway.living_street" priority="2" speed="2.78" disallow="tram rail_urban rail rail_electric rail_fast ship" oneway="0"/>
    <type id="highway.motorway" priority="14" speed="39.44" allow="private emergency authority army vip passenger hov taxi bus coach delivery truck trailer motorcycle evehicle custom1 custom2" oneway="1"/>
    <type id="highway.motorway_link" priority="9" speed="22.22" allow="private emergency authority army vip passenger hov taxi bus coach delivery truck trailer motorcycle evehicle custom1 custom2" oneway="1"/>
    <type id="highway.path" priority="1" speed="2.78" allow="pedestrian bicycle" oneway="0" width="2.00"/>
    <type id="highway.pedestrian" priority="1" speed="2.78" allow="pedestrian" oneway="1" width="2.00"/>
    <type id="highway.primary" priority="12" speed="27.78" disallow="pedestrian tram rail_urban rail rail_electric rail_fast ship" oneway="0"/>
    <type id="highway.primary_link" priority="7" speed="22.22" disallow="pedestrian tram rail_urban rail rail_electric rail_fast ship" oneway="0"/>
    <type id="highway.raceway" priority="15" speed="83.33" allow="vip" oneway="0"/>
    <type id="highway.residential" priority="3" speed="13.89" disallow="pedestrian tram rail_urban rail rail_electric rail_fast ship" oneway="0"/>
    <type id="highway.secondary" priority="11" speed="27.78" disallow="pedestrian tram rail_urban rail rail_electric rail_fast ship" oneway="0"/>
    <type id="highway.secondary_link" priority="6" speed="22.22" disallow="pedestrian tram rail_urban rail rail_electric rail_fast ship" oneway="0"/>
    <type id="highway.service" priority="1" speed="5.56" allow="pedestrian delivery bicycle" oneway="0"/>
    <type id="highway.stairs" priority="1" speed="1.39" allow="pedestrian" oneway="1" width="2.00"/>
    <type id="highway.step" priority="1" speed="1.39" allow="pedestrian" oneway="1" width="2.00"/>
    <type id="highway.steps" priority="1" speed="1.39" allow="pedestrian" oneway="1" width="2.00"/>
    <type id="highway.tertiary" priority="10" speed="22.22" disallow="pedestrian tram rail_urban rail rail_electric rail_fast ship" oneway="0"/>
    <type id="highway.tertiary_link" priority="5" speed="22.22" disallow="pedestrian tram rail_urban rail rail_electric rail_fast ship" oneway="0"/>
    <type id="highway.track" priority="1" speed="5.56" allow="pedestrian motorcycle moped bicycle" oneway="0"/>
    <type id="highway.trunk" priority="13" speed="27.78" disallow="pedestrian bicycle tram rail_urban rail rail_electric rail_fast ship" oneway="0"/>
    <type id="highway.trunk_link" priority="8" speed="22.22" disallow="pedestrian bicycle tram rail_urban rail rail_electric rail_fast ship" oneway="0"/>
    <type id="highway.unclassified" priority="4" speed="13.89" disallow="pedestrian tram rail_urban rail rail_electric rail_fast ship" oneway="0"/>
    <type id="highway.unsurfaced" priority="1" speed="8.33" disallow="tram rail_urban rail rail_electric rail_fast ship" oneway="0"/>
    <type id="railway.highspeed" priority="21" speed="69.44" allow="rail_fast" oneway="1"/>
    <type id="railway.light_rail" priority="19" speed="27.78" allow="rail_urban" oneway="1"/>
    <type id="railway.preserved" priority="16" speed="27.78" allow="rail" oneway="1"/>
    <type id="railway.rail" priority="20" speed="44.44" allow="rail" oneway="1"/>
    <type id="railway.subway" priority="18" speed="27.78" allow="rail_urban" oneway="1"/>
    <type id="railway.tram" priority="17" speed="13.89" allow="tram" oneway="1"/>

    <edge id=":31_0" function="internal">
        <lane id=":31_0_0" index="0" disallow="pedestrian tram rail_urban rail rail_electric rail_fast ship" speed="36.11" length="3.00" width="3.50" shape="704.55,-283.24 707.55,-283.17"/>
    </edge>
    <edge id=":45_0" function="internal">
        <lane id=":45_0_0" index="0" disallow="pedestrian tram rail_urban rail rail_electric rail_fast ship" speed="36.11" length="3.00" width="3.50" shape="707.46,-279.67 704.46,-279.74"/>
    </edge>
    <edge id=":55_0" function="internal">
        <lane id=":55_0_0" index="0" disallow="pedestrian tram rail_urban rail rail_electric rail_fast ship" speed="8.57" length="17.41" width="3.50" shape="670.13,-289.98 670.22,-291.05 669.87,-291.61 669.27,-292.09 668.51,-292.51 667.63,-292.86 666.69,-293.16 664.60,-293.62 662.46,-293.91 659.14,-294.15 654.66,-294.21"/>
    </edge>
    <edge id=":55_1" function="internal">
        <lane id=":55_1_0" index="0" disallow="pedestrian tram rail_urban rail rail_electric rail_fast ship" speed="36.11" length="26.81" width="3.50" shape="670.13,-289.98 670.39,-303.74 670.60,-316.79"/>
    </edge>
    <edge id=":55_2" function="internal">
        <lane id=":55_2_0" index="0" disallow="pedestrian tram rail_urban rail rail_electric rail_fast ship" speed="36.11" length="26.94" width="3.49" shape="674.10,-316.72 673.89,-303.68 673.67,-289.78"/>
    </edge>
    <edge id=":55_3" function="internal">
        <lane id=":55_3_0" index="0" disallow="pedestrian tram rail_urban rail rail_electric rail_fast ship" speed="12.11" length="33.71" width="3.50" shape="674.10,-316.72 673.97,-314.21 673.51,-310.51 672.96,-308.03 672.17,-305.58 671.09,-303.21 669.71,-301.01 668.85,-299.94 667.93,-298.97 666.92,-298.09 665.84,-297.29 664.70,-296.59 663.50,-295.99 662.25,-295.48 659.76,-294.76 657.21,-294.35 654.66,-294.21"/>
    </edge>
    <edge id=":55_4" function="internal">
        <lane id=":55_4_0" index="0" disallow="pedestrian tram rail_urban rail rail_electric rail_fast ship" speed="11.11" length="28.24" width="3.50" shape="654.63,-297.71 656.79,-297.83 658.94,-298.18 661.02,-298.80 662.02,-299.22 662.99,-299.72 663.91,-300.30 664.77,-300.96 665.57,-301.69 666.31,-302.49 666.98,-303.34 668.12,-305.20 668.99,-307.18 669.64,-309.26 670.10,-311.38 670.49,-314.62 670.60,-316.79"/>
    </edge>
    <edge id=":55_5" function="internal">
        <lane id=":55_5_0" index="0" disallow="pedestrian tram rail_urban rail rail_electric rail_fast ship" speed="10.12" length="23.02" width="3.49" shape="654.63,-297.71 659.84,-297.61 663.74,-297.25 666.31,-296.80 668.82,-296.09 670.02,-295.59 671.16,-294.96 672.18,-294.15 673.00,-293.14 673.52,-291.95 673.67,-289.78"/>
    </edge>
    <edge id=":56_0" function="internal">
        <lane id=":56_0_0" index="0" disallow="pedestrian tram rail_urban rail rail_electric rail_fast ship" speed="8.98" length="19.36" width="3.49" shape="637.95,-295.10 633.87,-295.39 630.81,-295.44 628.77,-295.36 626.74,-295.15 625.74,-294.97 624.75,-294.73 623.78,-294.41 622.85,-293.99 622.01,-293.42 621.32,-292.67 620.87,-291.76 620.70,-290.77"/>
    </edge>
    <edge id=":56_1" function="internal">
        <lane id=":56_1_0" index="0" disallow="pedestrian tram rail_urban rail rail_electric rail_fast ship" speed="36.11" length="38.01" width="3.50" shape="637.95,-295.10 627.70,-295.88 614.36,-296.48 599.99,-296.80"/>
    </edge>
    <edge id=":56_2" function="internal">
        <lane id=":56_2_0" index="0" disallow="pedestrian tram rail_urban rail rail_electric rail_fast ship" speed="12.52" length="34.06" width="3.50" shape="637.95,-295.10 634.06,-295.67 631.52,-296.30 629.05,-297.18 626.70,-298.34 624.54,-299.81 623.54,-300.66 622.62,-301.58 621.77,-302.58 621.00,-303.64 619.73,-305.93 618.79,-308.37 618.15,-310.91 617.78,-313.50 617.63,-317.45"/>
    </edge>
    <edge id=":56_3" function="internal">
        <lane id=":56_3_0" index="0" disallow="pedestrian tram rail_urban rail rail_electric rail_fast ship" speed="11.53" length="28.77" width="3.50" shape="621.13,-317.40 621.26,-313.94 621.58,-311.73 622.11,-309.58 622.90,-307.55 623.97,-305.64 624.58,-304.80 625.27,-303.99 626.02,-303.24 626.81,-302.56 628.63,-301.33 630.59,-300.37 632.69,-299.62 634.87,-299.08 638.27,-298.59"/>
    </edge>
    <edge id=":56_4" function="internal">
        <lane id=":56_4_0" index="0" disallow="pedestrian tram rail_urban rail rail_electric rail_fast ship" speed="36.11" length="26.63" width="3.49" shape="621.13,-317.40 620.92,-304.06 620.71,-290.77"/>
    </edge>
    <edge id=":56_5" function="internal">
        <lane id=":56_5_0" index="0" disallow="pedestrian tram rail_urban rail rail_electric rail_fast ship" speed="12.14" length="33.84" width="3.50" shape="621.13,-317.40 620.87,-313.48 620.43,-310.91 619.73,-308.41 618.73,-306.01 618.10,-304.87 617.38,-303.79 616.57,-302.76 615.68,-301.82 614.71,-300.95 613.67,-300.17 612.57,-299.48 610.21,-298.38 607.73,-297.60 605.18,-297.10 602.59,-296.85 599.99,-296.80"/>
    </edge>
    <edge id=":56_6" function="internal">
        <lane id=":56_6_0" index="0" disallow="pedestrian tram rail_urban rail rail_electric rail_fast ship" speed="11.13" length="28.27" width="3.50" shape="600.03,-300.29 602.29,-300.34 604.52,-300.56 606.68,-300.97 608.74,-301.62 610.70,-302.54 611.56,-303.08 612.39,-303.71 613.17,-304.40 613.88,-305.16 614.53,-305.98 615.10,-306.85 615.60,-307.75 616.45,-309.76 617.03,-311.86 617.40,-314.04 617.63,-317.45"/>
    </edge>
    <edge id=":56_7" function="internal">
        <lane id=":56_7_0" index="0" disallow="pedestrian tram rail_urban rail rail_electric rail_fast ship" speed="36.11" length="38.29" width="3.50" shape="600.03,-300.29 614.50,-299.98 627.93,-299.37 638.27,-298.59"/>
    </edge>
    <edge id=":56_8" function="internal">
        <lane id=":56_8_0" index="0" disallow="pedestrian tram rail_urban rail rail_electric rail_fast ship" speed="10.55" length="25.04" width="3.49" shape="600.03,-300.29 602.45,-300.23 606.07,-299.99 609.70,-299.52 612.16,-298.99 614.56,-298.22 615.79,-297.68 616.98,-297.01 618.10,-296.17 619.13,-295.13 619.96,-293.86 620.51,-292.39 620.72,-290.77"/>
    </edge>
    <edge id=":56_9" function="internal">
        <lane id=":56_9_0" index="0" disallow="pedestrian tram rail_urban rail rail_electric rail_fast ship" speed="9.27" length="19.57" width="3.50" shape="617.22,-290.89 617.07,-291.83 616.63,-292.76 615.96,-293.54 615.13,-294.17 614.23,-294.67 613.28,-295.07 612.30,-295.40 610.29,-295.90 608.25,-296.25 605.16,-296.58 602.06,-296.75 599.99,-296.80"/>
    </edge>
    <edge id=":56_10" function="internal">
        <lane id=":56_10_0" index="0" disallow="pedestrian tram rail_urban rail rail_electric rail_fast ship" speed="36.11" length="26.56" width="3.50" shape="617.22,-290.89 617.42,-304.12 617.63,-317.45"/>
    </edge>
    <edge id=":56_11" function="internal">
        <lane id=":56_11_0" index="0" disallow="pedestrian tram rail_urban rail rail_electric rail_fast ship" speed="10.26" length="25.00" width="3.50" shape="617.22,-290.89 617.40,-292.32 617.95,-293.83 618.85,-295.15 619.96,-296.18 621.17,-296.97 622.41,-297.55 623.66,-297.98 624.94,-298.30 627.40,-298.70 629.86,-298.89 633.50,-298.90 638.27,-298.59"/>
    </edge>
    <edge id=":57_0" function="internal">
        <lane id=":57_0_0" index="0" disallow="pedestrian tram rail_urban rail rail_electric rail_fast ship" speed="11.16" length="28.48" width="3.50" shape="617.66,-319.18 617.62,-321.46 617.41,-323.71 617.01,-325.89 616.38,-327.98 615.47,-329.96 614.94,-330.84 614.32,-331.69 613.64,-332.48 612.89,-333.21 612.07,-333.87 611.20,-334.46 610.30,-334.98 608.29,-335.84 606.18,-336.44 603.99,-336.83 600.55,-337.06"/>
    </edge>
    <edge id=":57_1" function="internal">
        <lane id=":57_1_0" index="0" disallow="pedestrian tram rail_urban rail rail_electric rail_fast ship" speed="10.59" length="24.34" width="3.50" shape="617.66,-319.18 617.72,-321.23 617.82,-323.17 617.97,-325.00 618.17,-326.72 618.42,-328.33 618.71,-329.83 619.04,-331.23 619.43,-332.52 619.86,-333.70 620.34,-334.77 620.86,-335.73 621.44,-336.59 622.05,-337.33 622.72,-337.97 623.43,-338.50 624.19,-338.92 624.99,-339.23 625.85,-339.44 626.74,-339.53"/>
    </edge>
    <edge id=":57_2" function="internal">
        <lane id=":57_2_0" index="0" disallow="pedestrian tram rail_urban rail rail_electric rail_fast ship" speed="8.40" length="15.55" width="3.50" shape="626.66,-333.13 626.45,-332.97 625.64,-332.23 624.91,-331.42 624.24,-330.56 623.65,-329.64 622.69,-327.68 621.99,-325.61 621.53,-323.48 621.26,-321.31 621.16,-319.13"/>
    </edge>
    <edge id=":57_3" function="internal">
        <lane id=":57_3_0" index="0" disallow="pedestrian tram rail_urban rail rail_electric rail_fast ship" speed="36.11" length="26.16" width="3.50" shape="626.71,-336.73 619.67,-336.82 600.55,-337.06"/>
    </edge>
    <edge id=":57_4" function="internal">
        <lane id=":57_4_0" index="0" disallow="pedestrian tram rail_urban rail rail_electric rail_fast ship" speed="36.11" length="26.11" width="3.50" shape="600.64,-340.56 626.75,-340.23"/>
    </edge>
    <edge id=":57_5" function="internal">
        <lane id=":57_5_0" index="0" disallow="pedestrian tram rail_urban rail rail_electric rail_fast ship" speed="12.17" length="34.06" width="3.50" shape="600.61,-340.56 604.56,-340.29 607.14,-339.84 609.65,-339.12 612.06,-338.09 613.20,-337.44 614.28,-336.71 615.30,-335.89 616.24,-334.98 617.10,-333.99 617.87,-332.93 618.55,-331.81 619.63,-329.43 620.39,-326.93 620.87,-324.35 621.11,-321.75 621.16,-319.13"/>
    </edge>
    <edge id=":59_0" function="internal">
        <lane id=":59_0_0" index="0" disallow="pedestrian tram rail_urban rail rail_electric rail_fast ship" speed="36.11" length="30.52" width="3.50" shape="633.81,-281.24 618.56,-281.56 603.30,-281.88"/>
    </edge>
    <edge id=":59_1" function="internal">
        <lane id=":59_1_0" index="0" disallow="pedestrian tram rail_urban rail rail_electric rail_fast ship" speed="9.68" length="21.39" width="3.50" shape="633.81,-281.24 629.98,-281.44 627.39,-281.77 624.83,-282.34 623.51,-282.76 622.22,-283.30 620.96,-283.99 619.77,-284.89 618.72,-286.02 617.90,-287.38 617.38,-288.91 617.21,-290.76"/>
    </edge>
    <edge id=":59_2" function="internal">
        <lane id=":59_2_0" index="0" disallow="pedestrian tram rail_urban rail rail_electric rail_fast ship" speed="8.56" length="16.06" width="3.50" shape="620.71,-290.81 620.83,-289.46 621.22,-288.49 621.87,-287.66 622.68,-287.00 623.58,-286.47 624.55,-286.06 625.55,-285.73 626.57,-285.47 628.64,-285.10 630.73,-284.88 633.88,-284.74"/>
    </edge>
    <edge id=":59_3" function="internal">
        <lane id=":59_3_0" index="0" disallow="pedestrian tram rail_urban rail rail_electric rail_fast ship" speed="9.77" length="22.01" width="3.50" shape="620.71,-290.81 620.58,-289.15 620.22,-287.85 619.60,-286.64 618.75,-285.58 617.73,-284.70 616.57,-283.98 615.34,-283.41 614.06,-282.96 611.42,-282.35 608.72,-282.01 604.66,-281.86 603.30,-281.88"/>
    </edge>
    <edge id=":59_4" function="internal">
        <lane id=":59_4_0" index="0" disallow="pedestrian tram rail_urban rail rail_electric rail_fast ship" speed="8.60" length="16.35" width="3.50" shape="603.37,-285.37 604.52,-285.36 607.97,-285.46 610.19,-285.70 612.36,-286.13 613.34,-286.42 614.29,-286.80 615.15,-287.24 615.88,-287.77 616.45,-288.35 616.86,-289.00 617.11,-289.72 617.21,-290.76"/>
    </edge>
    <edge id=":59_5" function="internal">
        <lane id=":59_5_0" index="0" disallow="pedestrian tram rail_urban rail rail_electric rail_fast ship" speed="36.11" length="30.52" width="3.50" shape="603.37,-285.37 618.63,-285.05 633.88,-284.74"/>
    </edge>
    <edge id=":60_0" function="internal">
        <lane id=":60_0_0" index="0" disallow="pedestrian tram rail_urban rail rail_electric rail_fast ship" speed="36.11" length="33.33" width="3.50" shape="688.38,-280.14 671.72,-280.50 655.06,-280.86"/>
    </edge>
    <edge id=":60_1" function="internal">
        <lane id=":60_1_0" index="0" disallow="pedestrian tram rail_urban rail rail_electric rail_fast ship" speed="9.84" length="23.24" width="3.48" shape="688.38,-280.14 685.87,-280.26 682.13,-280.65 679.60,-281.14 677.11,-281.88 675.84,-282.40 674.62,-283.05 673.45,-283.85 672.37,-284.84 671.44,-286.03 670.74,-287.40 670.32,-288.88 670.18,-290.44"/>
    </edge>
    <edge id=":60_2" function="internal">
        <lane id=":60_2_0" index="0" disallow="pedestrian tram rail_urban rail rail_electric rail_fast ship" speed="8.91" length="17.50" width="3.50" shape="673.71,-290.07 673.78,-289.36 674.11,-288.37 674.67,-287.48 675.40,-286.73 676.24,-286.11 677.16,-285.61 678.13,-285.20 679.12,-284.86 681.16,-284.36 683.23,-284.02 686.37,-283.73 688.47,-283.64"/>
    </edge>
    <edge id=":60_3" function="internal">
        <lane id=":60_3_0" index="0" disallow="pedestrian tram rail_urban rail rail_electric rail_fast ship" speed="10.05" length="23.08" width="3.50" shape="673.65,-290.08 673.56,-289.03 673.23,-287.70 672.67,-286.44 671.88,-285.32 670.91,-284.35 669.79,-283.54 668.58,-282.89 667.31,-282.36 664.66,-281.61 661.94,-281.16 657.82,-280.87 655.06,-280.86"/>
    </edge>
    <edge id=":60_4" function="internal">
        <lane id=":60_4_0" index="0" disallow="pedestrian tram rail_urban rail rail_electric rail_fast ship" speed="9.22" length="17.84" width="3.48" shape="655.12,-284.36 657.48,-284.36 661.00,-284.57 663.25,-284.90 665.43,-285.44 666.41,-285.79 667.35,-286.23 668.19,-286.74 668.89,-287.34 669.45,-287.99 669.84,-288.72 670.09,-289.53 670.18,-290.44"/>
    </edge>
    <edge id=":60_5" function="internal">
        <lane id=":60_5_0" index="0" disallow="pedestrian tram rail_urban rail rail_electric rail_fast ship" speed="36.11" length="33.36" width="3.50" shape="655.12,-284.36 671.80,-284.00 688.47,-283.64"/>
    </edge>
    <edge id=":61_0" function="internal">
        <lane id=":61_0_0" index="0" disallow="pedestrian tram rail_urban rail rail_electric rail_fast ship" speed="11.11" length="28.67" width="3.50" shape="559.75,-282.89 556.26,-282.84 552.82,-282.47 550.63,-282.01 548.52,-281.33 546.53,-280.39 545.65,-279.84 544.80,-279.22 544.02,-278.52 543.30,-277.76 542.66,-276.93 542.10,-276.05 541.62,-275.11 541.22,-274.16 540.62,-272.04 540.29,-269.85 540.20,-267.57"/>
    </edge>
    <edge id=":61_1" function="internal">
        <lane id=":61_1_0" index="0" disallow="pedestrian tram rail_urban rail rail_electric rail_fast ship" speed="12.22" length="34.58" width="3.50" shape="559.75,-282.89 557.27,-283.01 553.62,-283.46 551.16,-283.98 548.74,-284.73 546.38,-285.76 544.18,-287.09 543.11,-287.92 542.13,-288.81 541.23,-289.79 540.42,-290.84 539.70,-291.96 539.07,-293.16 538.14,-295.57 537.55,-298.09 537.27,-300.62 537.22,-303.11"/>
    </edge>
    <edge id=":61_2" function="internal">
        <lane id=":61_2_0" index="0" disallow="pedestrian tram rail_urban rail rail_electric rail_fast ship" speed="11.22" length="29.00" width="3.50" shape="540.72,-303.04 540.76,-300.90 541.01,-298.76 541.51,-296.67 542.30,-294.68 542.81,-293.73 543.41,-292.84 544.08,-292.00 544.82,-291.22 545.62,-290.50 546.48,-289.86 548.33,-288.77 550.31,-287.93 552.37,-287.31 554.47,-286.87 557.67,-286.49 559.82,-286.39"/>
    </edge>
    <edge id=":61_3" function="internal">
        <lane id=":61_3_0" index="0" disallow="pedestrian tram rail_urban rail rail_electric rail_fast ship" speed="12.12" length="34.32" width="3.50" shape="536.70,-267.58 536.81,-270.23 537.19,-272.84 537.89,-275.39 538.38,-276.61 538.97,-277.79 539.66,-278.92 540.45,-279.97 541.34,-280.95 542.31,-281.84 543.36,-282.64 544.47,-283.35 546.85,-284.50 549.35,-285.33 551.93,-285.89 555.86,-286.33 559.82,-286.39"/>
    </edge>

    <edge id="23208" from="59" to="61" priority="3" type="highway.residential" spreadType="center" length="43.57" shape="618.73,-283.96 545.71,-283.35">
        <lane id="23208_0" index="0" disallow="pedestrian tram rail_urban rail rail_electric rail_fast ship" speed="36.11" length="43.57" width="3.50" customShape="1" shape="603.30,-281.88 581.52,-282.38 559.74,-282.89"/>
    </edge>
    <edge id="23209" from="61" to="59" priority="3" type="highway.residential" spreadType="center" length="43.57" shape="545.68,-286.85 618.70,-287.46">
        <lane id="23209_0" index="0" disallow="pedestrian tram rail_urban rail rail_electric rail_fast ship" speed="36.11" length="43.57" width="3.50" customShape="1" shape="559.82,-286.39 581.60,-285.88 603.38,-285.37"/>
    </edge>
    <edge id="23211" from="60" to="59" priority="3" type="highway.residential" spreadType="center" length="21.27" shape="671.85,-283.22 618.69,-283.96">
        <lane id="23211_0" index="0" disallow="pedestrian tram rail_urban rail rail_electric rail_fast ship" speed="36.11" length="21.27" width="3.50" customShape="1" shape="655.06,-280.86 644.44,-281.05 633.79,-281.24"/>
    </edge>
    <edge id="23212" from="59" to="60" priority="3" type="highway.residential" spreadType="center" length="21.24" shape="618.74,-287.46 671.89,-286.72">
        <lane id="23212_0" index="0" disallow="pedestrian tram rail_urban rail rail_electric rail_fast ship" speed="36.11" length="21.24" width="3.50" customShape="1" shape="633.88,-284.74 644.50,-284.55 655.12,-284.36"/>
    </edge>
    <edge id="23214" from="45" to="60" priority="3" type="highway.residential" spreadType="center" length="16.09" shape="705.96,-279.70 671.55,-283.24">
        <lane id="23214_0" index="0" disallow="pedestrian tram rail_urban rail rail_electric rail_fast ship" speed="36.11" length="16.09" width="3.50" customShape="1" shape="704.46,-279.74 697.17,-279.92 688.37,-280.14"/>
    </edge>
    <edge id="23215" from="60" to="31" priority="3" type="highway.residential" spreadType="center" length="16.08" shape="671.90,-286.72 706.05,-283.20">
        <lane id="23215_0" index="0" disallow="pedestrian tram rail_urban rail rail_electric rail_fast ship" speed="36.11" length="16.08" width="3.50" customShape="1" shape="688.47,-283.64 697.26,-283.42 704.55,-283.24"/>
    </edge>
    <edge id="23603" from="61" to="49" priority="3" type="highway.residential" spreadType="center" length="41.69" shape="544.00,-284.88 538.30,-344.78">
        <lane id="23603_0" index="0" disallow="pedestrian tram rail_urban rail rail_electric rail_fast ship" speed="36.11" length="41.69" width="3.50" customShape="1" shape="537.22,-303.11 538.19,-334.10 538.30,-344.78"/>
    </edge>
    <edge id="23604" from="52" to="61" priority="3" type="highway.residential" spreadType="center" length="41.82" shape="541.80,-344.80 547.48,-285.22">
        <lane id="23604_0" index="0" disallow="pedestrian tram rail_urban rail rail_electric rail_fast ship" speed="36.11" length="41.82" width="3.50" customShape="1" shape="541.80,-344.80 541.69,-334.07 540.72,-303.00"/>
    </edge>
    <edge id="23606" from="51" to="61" priority="3" type="highway.residential" spreadType="center" length="14.93" shape="536.65,-252.67 544.05,-285.57">
        <lane id="23606_0" index="0" disallow="pedestrian tram rail_urban rail rail_electric rail_fast ship" speed="36.11" length="14.93" width="3.50" customShape="1" shape="536.65,-252.67 536.67,-260.14 536.70,-267.60"/>
    </edge>
    <edge id="23607" from="61" to="50" priority="3" type="highway.residential" spreadType="center" length="14.93" shape="547.46,-284.80 540.15,-252.64">
        <lane id="23607_0" index="0" disallow="pedestrian tram rail_urban rail rail_electric rail_fast ship" speed="36.11" length="14.93" width="3.50" customShape="1" shape="540.20,-267.57 540.17,-260.13 540.15,-252.64"/>
    </edge>
    <edge id="23626" from="56" to="55" priority="3" type="highway.residential" spreadType="center" length="16.48" shape="619.04,-302.66 666.30,-302.85">
        <lane id="23626_0" index="0" disallow="pedestrian tram rail_urban rail rail_electric rail_fast ship" speed="36.11" length="16.48" width="3.50" customShape="1" shape="638.27,-298.59 640.31,-298.40 648.48,-297.82 654.72,-297.71"/>
    </edge>
    <edge id="23627" from="55" to="56" priority="3" type="highway.residential" spreadType="center" length="16.75" shape="666.32,-299.35 619.06,-299.16">
        <lane id="23627_0" index="0" disallow="pedestrian tram rail_urban rail rail_electric rail_fast ship" speed="36.11" length="16.75" width="3.50" customShape="1" shape="654.66,-294.21 648.35,-294.32 640.03,-294.91 637.94,-295.10"/>
    </edge>
    <edge id="23629" from="38" to="56" priority="3" type="highway.residential" spreadType="center" length="14.80" shape="585.23,-300.48 619.09,-302.66">
        <lane id="23629_0" index="0" disallow="pedestrian tram rail_urban rail rail_electric rail_fast ship" speed="36.11" length="14.80" width="3.50" customShape="1" shape="585.23,-300.48 592.63,-300.39 600.03,-300.29"/>
    </edge>
    <edge id="23630" from="56" to="14" priority="3" type="highway.residential" spreadType="center" length="14.81" shape="619.32,-299.17 585.18,-296.98">
        <lane id="23630_0" index="0" disallow="pedestrian tram rail_urban rail rail_electric rail_fast ship" speed="36.11" length="14.81" width="3.50" customShape="1" shape="599.99,-296.80 592.59,-296.89 585.18,-296.98"/>
    </edge>
    <edge id="23706" from="37" to="57" priority="3" type="highway.residential" spreadType="center" length="21.07" shape="647.78,-336.49 616.07,-328.78">
        <lane id="23706_0" index="0" disallow="pedestrian tram rail_urban rail rail_electric rail_fast ship" speed="36.11" length="21.07" width="3.50" customShape="1" shape="647.78,-336.49 642.78,-336.54 640.77,-336.55 626.71,-336.68"/>
    </edge>
    <edge id="23726" from="55" to="60" priority="3" type="highway.residential" spreadType="center" length="0.20" shape="667.96,-301.66 673.51,-285.37">
        <lane id="23726_0" index="0" disallow="pedestrian tram rail_urban rail rail_electric rail_fast ship" speed="36.11" length="0.20" width="3.49" customShape="1" shape="673.67,-289.78 673.67,-289.58"/>
    </edge>
    <edge id="23727" from="60" to="55" priority="3" type="highway.residential" spreadType="center" length="0.20" shape="670.23,-284.25 664.66,-300.54">
        <lane id="23727_0" index="0" disallow="pedestrian tram rail_urban rail rail_electric rail_fast ship" speed="36.11" length="0.20" width="3.48" customShape="1" shape="670.11,-289.78 670.13,-289.98"/>
    </edge>
    <edge id="23729" from="42" to="55" priority="3" type="highway.residential" spreadType="center" length="70.01" shape="707.77,-355.36 667.70,-300.04">
        <lane id="23729_0" index="0" disallow="pedestrian tram rail_urban rail rail_electric rail_fast ship" speed="36.11" length="70.01" width="3.50" customShape="1" shape="707.77,-355.36 702.31,-355.54 693.02,-355.59 685.19,-355.32 677.88,-354.75 676.90,-354.70 675.93,-354.57 675.65,-354.23 675.38,-353.29 675.09,-352.35 674.60,-349.96 674.37,-347.52 674.32,-344.10 674.48,-336.27 674.10,-316.69"/>
    </edge>
    <edge id="23730" from="55" to="19" priority="3" type="highway.residential" spreadType="center" length="70.00" shape="664.83,-302.03 702.46,-359.03">
        <lane id="23730_0" index="0" disallow="pedestrian tram rail_urban rail rail_electric rail_fast ship" speed="36.11" length="70.00" width="3.50" customShape="1" shape="670.60,-316.79 670.99,-337.02 670.82,-345.17 670.97,-348.83 671.33,-351.50 671.97,-354.13 672.41,-355.34 672.94,-356.37 673.58,-357.16 675.26,-357.91 676.52,-358.14 684.11,-358.76 692.29,-359.07 701.98,-359.05 702.46,-359.03"/>
    </edge>
    <edge id="23784" from="56" to="59" priority="3" type="highway.residential" spreadType="center" length="0.20" shape="620.86,-300.87 620.44,-285.47">
        <lane id="23784_0" index="0" disallow="pedestrian tram rail_urban rail rail_electric rail_fast ship" speed="36.11" length="0.20" width="3.49" customShape="1" shape="620.71,-291.01 620.71,-290.81"/>
    </edge>
    <edge id="23785" from="59" to="56" priority="3" type="highway.residential" spreadType="center" length="0.13" shape="616.97,-285.56 617.37,-300.96">