<routes>
	<vehicle depart="0.1" departLane="0" departPos="14.853866120783728" departSpeed="3.4444362" id="324" type="passenger">
		<route edges="23209 23212"/>
	</vehicle>
	<vehicle depart="0.1" departLane="0" departPos="13.565529151807265" departSpeed="0.22888477" id="328" type="passenger">
		<route edges=":61_1 23603"/>
	</vehicle>
	<vehicle depart="0.1" departLane="0" departPos="31.38483722723219" departSpeed="0.71932125" id="329" type="passenger">
		<route edges="23208 23603"/>
	</vehicle>
	<vehicle depart="0.1" departLane="0" departPos="28.245783316250794" departSpeed="3.2945958" id="334" type="passenger">
		<route edges="23209 23212"/>
	</vehicle>
	<vehicle depart="0.1" departLane="0" departPos="9.494374435097184" departSpeed="7.7118097" id="336" type="passenger">
		<route edges=":59_3 23208 23603"/>
	</vehicle>
	<vehicle depart="0.1" departLane="0" departPos="7.693214165612809" departSpeed="2.3456875" id="337" type="passenger">
		<route edges="23209 23212"/>
	</vehicle>
	<vehicle depart="0.1" departLane="0" departPos="18.650312023015182" departSpeed="5.117655" id="340" type="passenger">
		<route edges=":61_2 23209"/>
	</vehicle>
	<vehicle depart="0.1" departLane="0" departPos="2.5" departSpeed="3.1441506" id="344" type="passenger">
		<route edges=":61_2 23209"/>
	</vehicle>
	<vehicle depart="0.1" departLane="0" departPos="33.77481878329469" departSpeed="2.765054" id="347" type="passenger">
		<route edges="23604 23209"/>
	</vehicle>
	<vehicle depart="0.1" departLane="0" departPos="17.246411598395717" departSpeed="4.6333078" id="33" type="motorcycle">
		<route edges=":61_1 23603"/>
	</vehicle>
</routes>
