<!-- generated on Tue Feb  9 22:16:01 2021 by Eclipse SUMO netconvert Version 1.8.0
<configuration xmlns:xsi="http://www.w3.org/2001/XMLSchema-instance" xsi:noNamespaceSchemaLocation="http://sumo.dlr.de/xsd/netconvertConfiguration.xsd">

    <input>
        <node-files value="./converted_scenarios/scenario-factory/DEU_Moelln-6_1_I-1-1/DEU_Moelln-6_1_I-1-1.nod.xml"/>
        <edge-files value="./converted_scenarios/scenario-factory/DEU_Moelln-6_1_I-1-1/DEU_Moelln-6_1_I-1-1.edg.xml"/>
        <connection-files value="./converted_scenarios/scenario-factory/DEU_Moelln-6_1_I-1-1/DEU_Moelln-6_1_I-1-1.con.xml"/>
        <tllogic-files value="./converted_scenarios/scenario-factory/DEU_Moelln-6_1_I-1-1/DEU_Moelln-6_1_I-1-1.tll.xml"/>
        <type-files value="/home/zen/commonroad-interactive-benchmarks/install/commonroad-map-tool/crmapconverter/sumo_map/templates/DEU.typ.xml"/>
    </input>

    <output>
        <output-file value="./converted_scenarios/scenario-factory/DEU_Moelln-6_1_I-1-1/DEU_Moelln-6_1_I-1-1.net.xml"/>
    </output>

    <processing>
        <geometry.remove.keep-edges.explicit value="true"/>
        <geometry.avoid-overlap value="true"/>
        <offset.disable-normalization value="true"/>
    </processing>

    <junctions>
        <no-turnarounds value="true"/>
        <junctions.internal-link-detail value="20"/>
    </junctions>

    <report>
        <aggregate-warnings value="5"/>
    </report>

    <random_number>
        <seed value="1234"/>
    </random_number>

</configuration>
--><net xmlns:xsi="http://www.w3.org/2001/XMLSchema-instance" version="1.6" junctionCornerDetail="5" junctionLinkDetail="20" limitTurnSpeed="5.50" xsi:noNamespaceSchemaLocation="http://sumo.dlr.de/xsd/net_file.xsd">

    <location netOffset="0.00,0.00" convBoundary="-287.49,-770.26,-115.75,-726.42" origBoundary="-287.49,-770.26,-115.75,-726.38" projParameter="!"/>

    <type id="highway.bridleway" priority="1" speed="2.78" allow="pedestrian" oneway="1" width="2.00"/>
    <type id="highway.bus_guideway" priority="1" speed="27.78" allow="bus" oneway="1"/>
    <type id="highway.cycleway" priority="1" speed="8.33" allow="bicycle" oneway="0" width="1.00"/>
    <type id="highway.footway" priority="1" speed="2.78" allow="pedestrian" oneway="1" width="2.00"/>
    <type id="highway.ford" priority="1" speed="2.78" allow="army" oneway="0"/>
    <type id="highway.living_street" priority="2" speed="2.78" disallow="tram rail_urban rail rail_electric rail_fast ship" oneway="0"/>
    <type id="highway.motorway" priority="14" speed="39.44" allow="private emergency authority army vip passenger hov taxi bus coach delivery truck trailer motorcycle evehicle custom1 custom2" oneway="1"/>
    <type id="highway.motorway_link" priority="9" speed="22.22" allow="private emergency authority army vip passenger hov taxi bus coach delivery truck trailer motorcycle evehicle custom1 custom2" oneway="1"/>
    <type id="highway.path" priority="1" speed="2.78" allow="pedestrian bicycle" oneway="0" width="2.00"/>
    <type id="highway.pedestrian" priority="1" speed="2.78" allow="pedestrian" oneway="1" width="2.00"/>
    <type id="highway.primary" priority="12" speed="27.78" disallow="pedestrian tram rail_urban rail rail_electric rail_fast ship" oneway="0"/>
    <type id="highway.primary_link" priority="7" speed="22.22" disallow="pedestrian tram rail_urban rail rail_electric rail_fast ship" oneway="0"/>
    <type id="highway.raceway" priority="15" speed="83.33" allow="vip" oneway="0"/>
    <type id="highway.residential" priority="3" speed="13.89" disallow="pedestrian tram rail_urban rail rail_electric rail_fast ship" oneway="0"/>
    <type id="highway.secondary" priority="11" speed="27.78" disallow="pedestrian tram rail_urban rail rail_electric rail_fast ship" oneway="0"/>
    <type id="highway.secondary_link" priority="6" speed="22.22" disallow="pedestrian tram rail_urban rail rail_electric rail_fast ship" oneway="0"/>
    <type id="highway.service" priority="1" speed="5.56" allow="pedestrian delivery bicycle" oneway="0"/>
    <type id="highway.stairs" priority="1" speed="1.39" allow="pedestrian" oneway="1" width="2.00"/>
    <type id="highway.step" priority="1" speed="1.39" allow="pedestrian" oneway="1" width="2.00"/>
    <type id="highway.steps" priority="1" speed="1.39" allow="pedestrian" oneway="1" width="2.00"/>
    <type id="highway.tertiary" priority="10" speed="22.22" disallow="pedestrian tram rail_urban rail rail_electric rail_fast ship" oneway="0"/>
    <type id="highway.tertiary_link" priority="5" speed="22.22" disallow="pedestrian tram rail_urban rail rail_electric rail_fast ship" oneway="0"/>
    <type id="highway.track" priority="1" speed="5.56" allow="pedestrian motorcycle moped bicycle" oneway="0"/>
    <type id="highway.trunk" priority="13" speed="27.78" disallow="pedestrian bicycle tram rail_urban rail rail_electric rail_fast ship" oneway="0"/>
    <type id="highway.trunk_link" priority="8" speed="22.22" disallow="pedestrian bicycle tram rail_urban rail rail_electric rail_fast ship" oneway="0"/>
    <type id="highway.unclassified" priority="4" speed="13.89" disallow="pedestrian tram rail_urban rail rail_electric rail_fast ship" oneway="0"/>
    <type id="highway.unsurfaced" priority="1" speed="8.33" disallow="tram rail_urban rail rail_electric rail_fast ship" oneway="0"/>
    <type id="railway.highspeed" priority="21" speed="69.44" allow="rail_fast" oneway="1"/>
    <type id="railway.light_rail" priority="19" speed="27.78" allow="rail_urban" oneway="1"/>
    <type id="railway.preserved" priority="16" speed="27.78" allow="rail" oneway="1"/>
    <type id="railway.rail" priority="20" speed="44.44" allow="rail" oneway="1"/>
    <type id="railway.subway" priority="18" speed="27.78" allow="rail_urban" oneway="1"/>
    <type id="railway.tram" priority="17" speed="13.89" allow="tram" oneway="1"/>

    <edge id=":1_0" function="internal">
        <lane id=":1_0_0" index="0" disallow="pedestrian tram rail_urban rail rail_electric rail_fast ship" speed="36.11" length="0.10" width="3.50" shape="-202.75,-757.83 -202.75,-757.83"/>
    </edge>
    <edge id=":12_0" function="internal">
        <lane id=":12_0_0" index="0" disallow="pedestrian tram rail_urban rail rail_electric rail_fast ship" speed="36.11" length="2.99" width="3.50" shape="-284.35,-728.77 -281.88,-730.46"/>
    </edge>
    <edge id=":2_0" function="internal">
        <lane id=":2_0_0" index="0" disallow="pedestrian tram rail_urban rail rail_electric rail_fast ship" speed="36.11" length="2.97" width="3.50" shape="-226.96,-753.06 -229.81,-752.24"/>
    </edge>
    <edge id=":21_0" function="internal">
        <lane id=":21_0_0" index="0" disallow="pedestrian tram rail_urban rail rail_electric rail_fast ship" speed="36.11" length="2.97" width="3.43" shape="-266.79,-735.79 -269.32,-734.24"/>
    </edge>
    <edge id=":29_0" function="internal">
        <lane id=":29_0_0" index="0" disallow="pedestrian tram rail_urban rail rail_electric rail_fast ship" speed="36.11" length="7.77" width="3.50" shape="-206.81,-760.94 -199.06,-761.53"/>
        <lane id=":29_0_1" index="1" disallow="pedestrian tram rail_urban rail rail_electric rail_fast ship" speed="36.11" length="7.79" width="3.50" shape="-206.81,-760.94 -206.23,-761.00 -205.71,-761.05 -205.24,-761.11 -204.81,-761.15 -204.42,-761.20 -204.06,-761.23 -203.72,-761.27 -203.40,-761.30 -203.09,-761.32 -202.78,-761.33 -202.47,-761.34 -202.15,-761.35 -201.81,-761.34 -201.45,-761.33 -201.06,-761.31 -200.63,-761.29 -200.16,-761.25 -199.63,-761.21 -199.05,-761.16"/>
    </edge>
    <edge id=":3_0" function="internal">
        <lane id=":3_0_0" index="0" disallow="pedestrian tram rail_urban rail rail_electric rail_fast ship" speed="36.11" length="2.97" width="3.50" shape="-252.55,-743.49 -255.23,-742.21"/>
    </edge>
    <edge id=":30_0" function="internal">
        <lane id=":30_0_0" index="0" disallow="pedestrian tram rail_urban rail rail_electric rail_fast ship" speed="36.11" length="24.02" width="3.50" shape="-123.39,-729.00 -128.83,-733.83 -133.37,-737.95 -136.19,-740.13 -142.19,-743.84"/>
    </edge>
    <edge id=":30_1" function="internal">
        <lane id=":30_1_0" index="0" disallow="pedestrian tram rail_urban rail rail_electric rail_fast ship" speed="15.13" length="18.81" width="3.50" shape="-121.19,-731.71 -123.96,-734.21 -125.66,-736.20 -127.13,-738.37 -128.35,-740.69 -129.49,-743.61 -130.43,-747.58"/>
    </edge>
    <edge id=":30_2" function="internal">
        <lane id=":30_2_0" index="0" disallow="pedestrian tram rail_urban rail rail_electric rail_fast ship" speed="6.73" length="16.47" width="3.50" shape="-121.96,-747.22 -124.21,-743.15 -125.37,-741.66 -126.10,-741.07 -126.99,-740.78 -127.87,-741.06 -128.53,-741.74 -129.01,-742.55 -129.70,-744.31 -130.43,-747.58"/>
    </edge>
    <edge id=":30_3" function="internal">
        <lane id=":30_3_0" index="0" disallow="pedestrian tram rail_urban rail rail_electric rail_fast ship" speed="36.11" length="24.71" width="3.49" shape="-140.31,-746.79 -132.43,-742.13 -124.54,-738.26 -121.88,-736.66 -118.98,-734.43"/>
    </edge>
    <edge id=":31_0" function="internal">
        <lane id=":31_0_0" index="0" disallow="pedestrian tram rail_urban rail rail_electric rail_fast ship" speed="36.11" length="3.26" width="3.50" shape="-129.13,-757.26 -129.03,-757.49 -128.94,-757.69 -128.86,-757.87 -128.79,-758.03 -128.72,-758.18 -128.66,-758.32 -128.60,-758.45 -128.54,-758.57 -128.48,-758.69 -128.43,-758.81 -128.36,-758.92 -128.30,-759.04 -128.23,-759.16 -128.16,-759.30 -128.08,-759.44 -127.99,-759.60 -127.89,-759.77 -127.78,-759.96 -127.66,-760.17"/>
    </edge>
    <edge id=":31_1" function="internal">
        <lane id=":31_1_0" index="0" disallow="pedestrian tram rail_urban rail rail_electric rail_fast ship" speed="36.11" length="3.07" width="3.50" shape="-133.99,-759.63 -131.20,-760.92"/>
    </edge>
    <edge id=":33_0" function="internal">
        <lane id=":33_0_0" index="0" disallow="pedestrian tram rail_urban rail rail_electric rail_fast ship" speed="36.11" length="26.05" width="3.50" shape="-148.56,-747.04 -154.09,-749.24 -159.19,-750.65 -167.44,-752.49 -173.67,-753.72"/>
    </edge>
    <edge id=":33_1" function="internal">
        <lane id=":33_1_0" index="0" disallow="pedestrian tram rail_urban rail rail_electric rail_fast ship" speed="32.42" length="29.94" width="3.50" shape="-172.39,-760.61 -168.86,-759.74 -159.08,-756.50 -156.07,-755.77 -153.52,-755.42 -150.94,-755.42 -148.40,-755.81 -143.36,-757.03"/>
    </edge>
    <edge id=":33_2" function="internal">
        <lane id=":33_2_0" index="0" disallow="pedestrian tram rail_urban rail rail_electric rail_fast ship" speed="36.11" length="26.78" width="3.50" shape="-173.03,-757.16 -166.66,-755.90 -158.21,-754.00 -152.92,-752.54 -147.22,-750.27"/>
    </edge>
    <edge id=":4_0" function="internal">
        <lane id=":4_0_0" index="0" disallow="pedestrian tram rail_urban rail rail_electric rail_fast ship" speed="36.11" length="0.26" width="3.50" shape="-255.54,-745.96 -255.30,-746.07"/>
    </edge>
    <edge id=":5_0" function="internal">
        <lane id=":5_0_0" index="0" disallow="pedestrian tram rail_urban rail rail_electric rail_fast ship" speed="36.11" length="2.97" width="3.50" shape="-230.77,-755.60 -227.92,-756.43"/>
    </edge>
    <edge id=":6_0" function="internal">
        <lane id=":6_0_0" index="0" disallow="pedestrian tram rail_urban rail rail_electric rail_fast ship" speed="36.11" length="2.97" width="3.50" shape="-271.16,-737.22 -268.63,-738.77"/>
    </edge>

    <edge id="51968" from="33" to="31" priority="3" type="highway.residential" spreadType="center" length="9.73">
        <lane id="51968_0" index="0" disallow="pedestrian tram rail_urban rail rail_electric rail_fast ship" speed="36.11" length="9.73" width="3.50" customShape="1" shape="-143.36,-757.03 -137.65,-758.40 -134.23,-759.53 -133.99,-759.63"/>
    </edge>
    <edge id="52282" from="30" to="33" priority="3" type="highway.residential" spreadType="center" length="7.13" shape="-128.91,-738.25 -159.77,-752.42">
        <lane id="52282_0" index="0" disallow="pedestrian tram rail_urban rail rail_electric rail_fast ship" speed="36.11" length="7.13" width="3.50" customShape="1" shape="-142.19,-743.84 -146.98,-746.32 -148.56,-747.04"/>
    </edge>
    <edge id="52289" from="33" to="30" priority="3" type="highway.residential" spreadType="center" length="7.74" shape="-158.32,-755.60 -127.45,-741.43">
        <lane id="52289_0" index="0" disallow="pedestrian tram rail_urban rail rail_electric rail_fast ship" speed="36.11" length="7.74" width="3.50" customShape="1" shape="-147.22,-750.27 -145.46,-749.47 -140.54,-746.92 -140.31,-746.79"/>
    </edge>
    <edge id="52312" from="15" to="30" priority="3" type="highway.residential" spreadType="center" length="4.13">
        <lane id="52312_0" index="0" disallow="pedestrian tram rail_urban rail rail_electric rail_fast ship" speed="36.11" length="4.13" width="3.45" customShape="1" shape="-120.21,-726.37 -123.39,-729.00"/>
        <lane id="52312_1" index="1" disallow="pedestrian tram rail_urban rail rail_electric rail_fast ship" speed="36.11" length="4.18" width="3.50" customShape="1" shape="-117.98,-729.03 -121.19,-731.71"/>
    </edge>
    <edge id="52314" from="30" to="9" priority="3" type="highway.residential" spreadType="center" length="4.21">
        <lane id="52314_0" index="0" disallow="pedestrian tram rail_urban rail rail_electric rail_fast ship" speed="36.11" length="4.21" width="3.49" customShape="1" shape="-118.98,-734.43 -115.75,-731.73"/>
    </edge>
    <edge id="52329" from="3" to="21" priority="3" type="highway.residential" spreadType="center" length="13.23">
        <lane id="52329_0" index="0" disallow="pedestrian tram rail_urban rail rail_electric rail_fast ship" speed="36.11" length="13.23" width="3.50" customShape="1" shape="-255.23,-742.21 -261.97,-738.67 -266.79,-735.79"/>
    </edge>
    <edge id="52330" from="6" to="4" priority="3" type="highway.residential" spreadType="center" length="14.94">
        <lane id="52330_0" index="0" disallow="pedestrian tram rail_urban rail rail_electric rail_fast ship" speed="36.11" length="14.94" width="3.50" customShape="1" shape="-268.63,-738.77 -263.69,-741.72 -256.82,-745.33 -255.54,-745.96"/>
    </edge>
    <edge id="52494" from="30" to="31" priority="3" type="highway.residential" spreadType="center" length="9.92">
        <lane id="52494_0" index="0" disallow="pedestrian tram rail_urban rail rail_electric rail_fast ship" speed="36.11" length="9.92" width="3.50" customShape="1" shape="-130.43,-747.58 -130.64,-748.98 -130.66,-751.08 -130.31,-753.68 -129.59,-756.20 -129.13,-757.26"/>
    </edge>
    <edge id="52529" from="29" to="33" priority="3" type="highway.residential" spreadType="center" length="26.33" shape="-202.97,-761.32 -158.39,-757.42">
        <lane id="52529_0" index="0" disallow="pedestrian tram rail_urban rail rail_electric rail_fast ship" speed="36.11" length="26.78" width="3.50" customShape="1" shape="-199.06,-761.53 -193.89,-761.81 -186.27,-761.88 -180.19,-761.61 -175.14,-761.07 -173.14,-760.74 -172.75,-760.67 -172.36,-760.60"/>
        <lane id="52529_1" index="1" disallow="pedestrian tram rail_urban rail rail_electric rail_fast ship" speed="36.11" length="26.33" width="3.50" customShape="1" shape="-199.05,-761.16 -196.46,-760.92 -188.15,-759.76 -173.76,-757.30 -173.39,-757.23 -173.03,-757.16"/>
    </edge>
    <edge id="52598" from="17" to="30" priority="3" type="highway.residential" spreadType="center" length="0.33">
        <lane id="52598_0" index="0" disallow="pedestrian tram rail_urban rail rail_electric rail_fast ship" speed="36.11" length="2.22" width="3.26" customShape="1" shape="-118.87,-745.58 -119.91,-743.62"/>
        <lane id="52598_1" index="1" disallow="pedestrian tram rail_urban rail rail_electric rail_fast ship" speed="36.11" length="0.33" width="3.50" customShape="1" shape="-121.81,-747.51 -121.96,-747.22"/>
    </edge>
    <edge id="52695" from="21" to="22" priority="3" type="highway.residential" spreadType="center" length="14.40">
        <lane id="52695_0" index="0" disallow="pedestrian tram rail_urban rail rail_electric rail_fast ship" speed="36.11" length="14.40" width="3.43" customShape="1" shape="-269.32,-734.24 -274.67,-730.87 -281.28,-726.70 -281.39,-726.63 -281.50,-726.56"/>
    </edge>
    <edge id="52696" from="19" to="12" priority="3" type="highway.residential" spreadType="center" length="3.92">
        <lane id="52696_0" index="0" disallow="pedestrian tram rail_urban rail rail_electric rail_fast ship" speed="36.11" length="3.92" width="3.50" customShape="1" shape="-287.49,-726.42 -284.35,-728.77"/>
    </edge>
    <edge id="52765" from="1" to="2" priority="3" type="highway.residential" spreadType="center" length="24.72">
        <lane id="52765_0" index="0" disallow="pedestrian tram rail_urban rail rail_electric rail_fast ship" speed="36.11" length="24.72" width="3.50" customShape="1" shape="-202.75,-757.83 -207.27,-757.38 -213.24,-756.42 -219.66,-755.07 -226.96,-753.06"/>
    </edge>
    <edge id="52766" from="5" to="29" priority="3" type="highway.residential" spreadType="center" length="21.61">
        <lane id="52766_0" index="0" disallow="pedestrian tram rail_urban rail rail_electric rail_fast ship" speed="36.11" length="21.61" width="3.50" customShape="1" shape="-227.92,-756.43 -220.43,-758.48 -213.83,-759.87 -207.68,-760.85 -206.81,-760.94"/>
    </edge>
    <edge id="54198" from="12" to="6" priority="3" type="highway.residential" spreadType="center" length="12.67">
        <lane id="54198_0" index="0" disallow="pedestrian tram rail_urban rail rail_electric rail_fast ship" speed="36.11" length="12.67" width="3.50" customShape="1" shape="-281.88,-730.46 -276.53,-733.83 -271.16,-737.22"/>
    </edge>
    <edge id="54455" from="4" to="5" priority="3" type="highway.residential" spreadType="center" length="26.35">
        <lane id="54455_0" index="0" disallow="pedestrian tram rail_urban rail rail_electric rail_fast ship" speed="36.11" length="26.35" width="3.50" customShape="1" shape="-255.30,-746.07 -248.58,-749.17 -241.61,-751.99 -234.50,-754.48 -230.77,-755.60"/>
    </edge>
    <edge id="54897" from="33" to="1" priority="3" type="highway.residential" spreadType="center" length="29.40" shape="-159.12,-752.23 -202.75,-757.83">
        <lane id="54897_0" index="0" disallow="pedestrian tram rail_urban rail rail_electric rail_fast ship" speed="36.11" length="29.40" width="3.50" customShape="1" shape="-173.67,-753.72 -174.03,-753.79 -174.38,-753.85 -188.52,-756.27 -196.63,-757.43 -200.71,-757.81 -202.75,-757.83"/>
    </edge>
    <edge id="54998" from="2" to="3" priority="3" type="highway.residential" spreadType="center" length="24.39">
        <lane id="54998_0" index="0" disallow="pedestrian tram rail_urban rail rail_electric rail_fast ship" speed="36.11" length="24.39" width="3.50" customShape="1" shape="-229.81,-752.24 -233.43,-751.15 -240.38,-748.72 -247.19,-745.95 -252.55,-743.49"/>
    </edge>
    <edge id="55006" from="31" to="32" priority="3" type="highway.residential" spreadType="center" length="11.97">
        <lane id="55006_0" index="0" disallow="pedestrian tram rail_urban rail rail_electric rail_fast ship" speed="36.11" length="11.97" width="3.50" customShape="1" shape="-127.66,-760.17 -126.87,-761.54 -122.49,-767.98 -121.25,-770.26"/>
    </edge>
    <edge id="55172" from="31" to="32" priority="3" type="highway.residential" spreadType="center" length="13.90">
        <lane id="55172_0" index="0" disallow="pedestrian tram rail_urban rail rail_electric rail_fast ship" speed="36.11" length="13.90" width="3.50" customShape="1" shape="-131.20,-760.92 -129.72,-761.67 -127.05,-763.42 -125.01,-765.14 -123.22,-767.11 -121.74,-769.32 -121.25,-770.26"/>
    </edge>

    <junction id="1" type="priority" x="-202.75" y="-757.83" incLanes="54897_0" intLanes=":1_0_0" shape="-202.67,-756.08 -202.64,-759.58 -202.78,-759.58 -202.88,-759.57 -202.94,-759.57" rightOfWay="edgePriority">
        <request index="0" response="0" foes="0" cont="0"/>
    </junction>
    <junction id="12" type="priority" x="-283.15" y="-729.66" incLanes="52696_0" intLanes=":12_0_0" shape="-280.94,-728.98 -282.81,-731.94 -285.29,-730.25 -283.41,-727.28" rightOfWay="edgePriority">
        <request index="0" response="0" foes="0" cont="0"/>
    </junction>
    <junction id="15" type="dead_end" x="-119.10" y="-727.71" incLanes="" intLanes="" shape="-116.86,-730.38 -121.32,-725.05" rightOfWay="edgePriority"/>
    <junction id="17" type="dead_end" x="-120.41" y="-746.40" incLanes="" intLanes="" shape="-123.50,-748.04 -117.43,-744.81" rightOfWay="edgePriority"/>
    <junction id="19" type="dead_end" x="-287.49" y="-726.42" incLanes="" intLanes="" shape="-286.45,-725.01 -288.54,-727.82" rightOfWay="edgePriority"/>
    <junction id="2" type="priority" x="-228.39" y="-752.67" incLanes="52765_0" intLanes=":2_0_0" shape="-226.50,-751.38 -227.42,-754.75 -230.32,-753.91 -229.31,-750.56" rightOfWay="edgePriority">
        <request index="0" response="0" foes="0" cont="0"/>
    </junction>
    <junction id="21" type="priority" x="-268.06" y="-735.03" incLanes="52329_0" intLanes=":21_0_0" shape="-265.89,-734.29 -267.68,-737.30 -270.23,-735.69 -268.40,-732.79" rightOfWay="edgePriority">
        <request index="0" response="0" foes="0" cont="0"/>
    </junction>
    <junction id="22" type="dead_end" x="-281.50" y="-726.56" incLanes="52695_0" intLanes="" shape="-280.55,-725.13 -282.45,-727.98" rightOfWay="edgePriority"/>
    <junction id="29" type="priority" x="-202.97" y="-761.32" incLanes="52766_0" intLanes=":29_0_0 :29_0_1" shape="-199.02,-759.40 -199.10,-763.28 -206.99,-762.68 -206.64,-759.20 -203.82,-759.50 -202.83,-759.57 -201.84,-759.59 -200.64,-759.53" rightOfWay="edgePriority">
        <request index="0" response="00" foes="00" cont="0"/>
        <request index="1" response="00" foes="00" cont="0"/>
    </junction>
    <junction id="3" type="priority" x="-253.90" y="-742.87" incLanes="54998_0" intLanes=":3_0_0" shape="-251.82,-741.90 -253.28,-745.08 -256.00,-743.78 -254.46,-740.64" rightOfWay="edgePriority">
        <request index="0" response="0" foes="0" cont="0"/>
    </junction>
    <junction id="30" type="priority" x="-128.18" y="-739.84" incLanes="52312_0 52312_1 52598_0 52598_1 52289_0" intLanes=":30_0_0 :30_1_0 :30_2_0 :30_3_0" shape="-124.48,-727.66 -117.88,-735.79 -119.38,-737.60 -119.71,-738.58 -119.76,-739.61 -119.54,-740.69 -119.04,-741.82 -122.75,-749.45 -124.25,-746.90 -125.55,-745.27 -126.65,-744.57 -127.54,-744.78 -128.23,-745.92 -128.72,-747.97 -132.14,-747.18 -132.70,-745.71 -133.67,-745.66 -135.11,-746.07 -137.00,-746.94 -139.36,-748.26 -143.14,-742.36 -138.70,-739.89 -135.62,-737.79 -133.27,-735.79 -131.03,-733.62 -128.30,-731.00">
        <request index="0" response="0000" foes="0000" cont="0"/>
        <request index="1" response="0000" foes="1100" cont="0"/>
        <request index="2" response="0010" foes="0010" cont="0"/>
        <request index="3" response="0010" foes="0010" cont="0"/>
    </junction>
    <junction id="31" type="priority" x="-130.50" y="-759.53" incLanes="52494_0 51968_0" intLanes=":31_0_0 :31_1_0" shape="-130.69,-758.05 -127.56,-756.47 -127.09,-757.54 -126.91,-757.91 -126.72,-758.28 -126.48,-758.71 -126.14,-759.30 -129.17,-761.05 -129.91,-760.12 -130.31,-759.71 -130.59,-759.41 -130.66,-759.27 -130.41,-759.36 -131.99,-762.48 -134.71,-761.22 -133.28,-758.03 -131.59,-758.62 -131.06,-758.69 -130.73,-758.62 -130.61,-758.41">
        <request index="0" response="00" foes="00" cont="0"/>
        <request index="1" response="00" foes="00" cont="0"/>
    </junction>
    <junction id="32" type="dead_end" x="-121.25" y="-770.26" incLanes="55172_0 55006_0" intLanes="" shape="-122.80,-771.07 -119.70,-769.46 -122.78,-771.10 -119.71,-769.43"/>
    <junction id="33" type="priority" x="-158.96" y="-753.97" incLanes="52282_0 52529_0 52529_1" intLanes=":33_0_0 :33_1_0 :33_2_0" shape="-149.25,-745.38 -146.56,-751.89 -147.80,-753.02 -147.50,-753.59 -146.58,-754.17 -145.05,-754.75 -142.90,-755.34 -143.82,-758.72 -149.75,-757.65 -154.19,-757.60 -157.89,-758.30 -161.60,-759.49 -166.08,-760.92 -172.07,-762.32 -173.99,-752.00 -168.60,-751.05 -164.60,-750.36 -161.32,-749.69 -158.10,-748.80 -154.30,-747.45">
        <request index="0" response="000" foes="000" cont="0"/>
        <request index="1" response="000" foes="000" cont="0"/>
        <request index="2" response="000" foes="000" cont="0"/>
    </junction>
    <junction id="4" type="priority" x="-255.42" y="-746.02" incLanes="52330_0" intLanes=":4_0_0" shape="-254.57,-744.49 -256.03,-747.66 -256.31,-747.53 -254.77,-744.39" rightOfWay="edgePriority">
        <request index="0" response="0" foes="0" cont="0"/>
    </junction>
    <junction id="5" type="priority" x="-229.35" y="-756.03" incLanes="54455_0" intLanes=":5_0_0" shape="-227.46,-754.74 -228.38,-758.11 -231.28,-757.28 -230.27,-753.93" rightOfWay="edgePriority">
        <request index="0" response="0" foes="0" cont="0"/>
    </junction>
    <junction id="6" type="priority" x="-269.91" y="-738.01" incLanes="54198_0" intLanes=":6_0_0" shape="-267.73,-737.27 -269.53,-740.27 -272.10,-738.70 -270.23,-735.74" rightOfWay="edgePriority">
        <request index="0" response="0" foes="0" cont="0"/>
    </junction>
    <junction id="9" type="dead_end" x="-115.75" y="-731.73" incLanes="52314_0" intLanes="" shape="-114.63,-733.07 -116.87,-730.39" rightOfWay="edgePriority"/>

    <connection from="51968" to="55172" fromLane="0" toLane="0" contPos="-4.00" via=":31_1_0" dir="s" state="M"/>
    <connection from="52282" to="54897" fromLane="0" toLane="0" contPos="-4.00" shape="-151.11,-748.18 -154.09,-749.24 -159.19,-750.65 -167.44,-752.49 -173.67,-753.72" via=":33_0_0" dir="s" state="M"/>
    <connection from="52289" to="52314" fromLane="0" toLane="0" contPos="-4.00" shape="-135.57,-743.94 -132.43,-742.13 -124.54,-738.26 -121.88,-736.66 -119.79,-735.11" via=":30_3_0" dir="s" state="m"/>
    <connection from="52312" to="52282" fromLane="0" toLane="0" contPos="-4.00" shape="-124.29,-729.75 -128.83,-733.83 -133.37,-737.95 -136.19,-740.13 -137.46,-740.99" via=":30_0_0" dir="s" state="M"/>
    <connection from="52312" to="52494" fromLane="1" toLane="0" contPos="-4.00" shape="-122.04,-732.43 -123.96,-734.21 -125.66,-736.20 -127.13,-738.37 -128.35,-740.69 -129.49,-743.61 -130.19,-746.14" via=":30_1_0" dir="L" state="M"/>
    <connection from="52329" to="52695" fromLane="0" toLane="0" contPos="-4.00" via=":21_0_0" dir="s" state="M"/>
    <connection from="52330" to="54455" fromLane="0" toLane="0" contPos="-4.00" via=":4_0_0" dir="s" state="M"/>
    <connection from="52494" to="55006" fromLane="0" toLane="0" contPos="-4.00" via=":31_0_0" dir="l" state="M"/>
    <connection from="52529" to="51968" fromLane="0" toLane="0" contPos="-4.00" shape="-172.36,-760.60 -168.86,-759.74 -159.08,-756.50 -156.07,-755.77 -153.52,-755.42 -150.94,-755.42 -148.40,-755.81 -147.90,-755.93" via=":33_1_0" dir="s" state="M"/>
    <connection from="52529" to="52289" fromLane="1" toLane="0" contPos="-4.00" shape="-173.03,-757.16 -166.66,-755.90 -158.21,-754.00 -152.92,-752.54 -149.79,-751.42" via=":33_2_0" dir="L" state="M"/>
    <connection from="52598" to="52494" fromLane="1" toLane="0" contPos="-4.00" shape="-123.26,-744.78 -124.21,-743.15 -125.37,-741.66 -126.10,-741.07 -126.99,-740.78 -127.87,-741.06 -128.53,-741.74 -129.01,-742.55 -129.70,-744.31 -130.19,-746.14" via=":30_2_0" dir="l" state="m"/>
    <connection from="52696" to="54198" fromLane="0" toLane="0" contPos="-4.00" via=":12_0_0" dir="s" state="M"/>
    <connection from="52765" to="54998" fromLane="0" toLane="0" contPos="-4.00" via=":2_0_0" dir="s" state="M"/>
    <connection from="52766" to="52529" fromLane="0" toLane="0" contPos="-4.00" via=":29_0_0" dir="s" state="M"/>
    <connection from="52766" to="52529" fromLane="0" toLane="1" contPos="-4.00" via=":29_0_1" dir="s" state="M"/>
    <connection from="54198" to="52330" fromLane="0" toLane="0" contPos="-4.00" via=":6_0_0" dir="s" state="M"/>
    <connection from="54455" to="52766" fromLane="0" toLane="0" contPos="-4.00" via=":5_0_0" dir="s" state="M"/>
    <connection from="54897" to="52765" fromLane="0" toLane="0" contPos="-4.00" via=":1_0_0" dir="s" state="M"/>
    <connection from="54998" to="52329" fromLane="0" toLane="0" contPos="-4.00" via=":3_0_0" dir="s" state="M"/>

    <connection from=":1_0" to="52765" fromLane="0" toLane="0" dir="s" state="M"/>
    <connection from=":12_0" to="54198" fromLane="0" toLane="0" dir="s" state="M"/>
    <connection from=":2_0" to="54998" fromLane="0" toLane="0" dir="s" state="M"/>
    <connection from=":21_0" to="52695" fromLane="0" toLane="0" dir="s" state="M"/>
    <connection from=":29_0" to="52529" fromLane="0" toLane="0" dir="s" state="M"/>
    <connection from=":29_0" to="52529" fromLane="1" toLane="1" dir="s" state="M"/>
    <connection from=":3_0" to="52329" fromLane="0" toLane="0" dir="s" state="M"/>
    <connection from=":30_0" to="52282" fromLane="0" toLane="0" dir="s" state="M"/>
    <connection from=":30_1" to="52494" fromLane="0" toLane="0" dir="L" state="M"/>
    <connection from=":30_2" to="52494" fromLane="0" toLane="0" dir="l" state="M"/>
    <connection from=":30_3" to="52314" fromLane="0" toLane="0" dir="s" state="M"/>
    <connection from=":31_0" to="55006" fromLane="0" toLane="0" dir="l" state="M"/>
    <connection from=":31_1" to="55172" fromLane="0" toLane="0" dir="s" state="M"/>
    <connection from=":33_0" to="54897" fromLane="0" toLane="0" dir="s" state="M"/>
    <connection from=":33_1" to="51968" fromLane="0" toLane="0" dir="s" state="M"/>
    <connection from=":33_2" to="52289" fromLane="0" toLane="0" dir="L" state="M"/>
    <connection from=":4_0" to="54455" fromLane="0" toLane="0" dir="s" state="M"/>
    <connection from=":5_0" to="52766" fromLane="0" toLane="0" dir="s" state="M"/>