<routes>
	<vehicle depart="0.1" departLane="0" departPos="7.178158317837522" departSpeed="8.4549601" id="314" type="bicycle">
		<route edges=":33_1 51968 55172"/>
	</vehicle>
	<vehicle depart="0.1" departLane="0" departPos="10.539851724582144" departSpeed="13.945758" id="317" type="passenger">
		<route edges=":33_2 52289 52314"/>
	</vehicle>
	<vehicle depart="0.1" departLane="0" departPos="20.922870313579992" departSpeed="10.637206" id="318" type="passenger">
		<route edges="52529 51968"/>
	</vehicle>
	<vehicle depart="0.1" departLane="0" departPos="18.626971191497862" departSpeed="14.415653" id="323" type="passenger">
		<route edges="52766 52529 52289"/>
	</vehicle>
	<vehicle depart="0.1" departLane="1" departPos="2.5" departSpeed="0.0" id="328" type="passenger">
		<route edges="52598 52494"/>
	</vehicle>
	<vehicle depart="0.1" departLane="1" departPos="4.570333657147538" departSpeed="2.8921908" id="329" type="passenger">
		<route edges="52312 52494 55006"/>
	</vehicle>
	<vehicle depart="0.1" departLane="0" departPos="1.25" departSpeed="11.523605" id="325" type="motorcycle">
		<route edges="52766 52529 51968 55172"/>
	</vehicle>
</routes>
