<routes>
	<vehicle depart="0.1" departLane="0" departPos="14.981804879951067" departSpeed="1.6473908" id="331" type="bus">
		<route edges=":27_4 24561 21933"/>
	</vehicle>
	<vehicle depart="0.1" departLane="2" departPos="12.671471264504055" departSpeed="1.0961485" id="353" type="bus">
		<route edges="22535 21892"/>
	</vehicle>
	<vehicle depart="0.1" departLane="0" departPos="6.269747053376313" departSpeed="7.6366816" id="39" type="passenger">
		<route edges="24561 21933"/>
	</vehicle>
	<vehicle depart="0.1" departLane="0" departPos="5.137164162127156" departSpeed="0.55767547" id="337" type="passenger">
		<route edges=":27_7 21892"/>
	</vehicle>
	<vehicle depart="0.1" departLane="0" departPos="39.412565350050485" departSpeed="0.94896093" id="338" type="passenger">
		<route edges="22535 24688"/>
	</vehicle>
	<vehicle depart="0.1" departLane="2" departPos="36.98692228293844" departSpeed="0.36758422" id="342" type="passenger">
		<route edges="22535 21892"/>
	</vehicle>
	<vehicle depart="0.1" departLane="0" departPos="30.185812595790043" departSpeed="0.74151095" id="347" type="passenger">
		<route edges="22535 24688"/>
	</vehicle>
	<vehicle depart="0.1" departLane="0" departPos="19.015372647461277" departSpeed="0.38012836" id="349" type="passenger">
		<route edges="22535 24688"/>
	</vehicle>
	<vehicle depart="0.1" departLane="2" departPos="23.092849004930294" departSpeed="0.40003952" id="350" type="passenger">
		<route edges="22535 21892"/>
	</vehicle>
	<vehicle depart="0.1" departLane="2" departPos="28.803395359664545" departSpeed="0.58574867" id="348" type="motorcycle">
		<route edges="22535 21892"/>
	</vehicle>
</routes>
