<!-- generated on Tue Feb  9 22:00:27 2021 by Eclipse SUMO netconvert Version 1.8.0
<configuration xmlns:xsi="http://www.w3.org/2001/XMLSchema-instance" xsi:noNamespaceSchemaLocation="http://sumo.dlr.de/xsd/netconvertConfiguration.xsd">

    <input>
        <node-files value="./converted_scenarios/scenario-factory/BEL_Aarschot-3_1_I-1-1/BEL_Aarschot-3_1_I-1-1.nod.xml"/>
        <edge-files value="./converted_scenarios/scenario-factory/BEL_Aarschot-3_1_I-1-1/BEL_Aarschot-3_1_I-1-1.edg.xml"/>
        <connection-files value="./converted_scenarios/scenario-factory/BEL_Aarschot-3_1_I-1-1/BEL_Aarschot-3_1_I-1-1.con.xml"/>
        <tllogic-files value="./converted_scenarios/scenario-factory/BEL_Aarschot-3_1_I-1-1/BEL_Aarschot-3_1_I-1-1.tll.xml"/>
        <type-files value="/home/zen/commonroad-interactive-benchmarks/install/commonroad-map-tool/crmapconverter/sumo_map/templates/DEU.typ.xml"/>
    </input>

    <output>
        <output-file value="./converted_scenarios/scenario-factory/BEL_Aarschot-3_1_I-1-1/BEL_Aarschot-3_1_I-1-1.net.xml"/>
    </output>

    <processing>
        <geometry.remove.keep-edges.explicit value="true"/>
        <geometry.avoid-overlap value="true"/>
        <offset.disable-normalization value="true"/>
    </processing>

    <junctions>
        <no-turnarounds value="true"/>
        <junctions.internal-link-detail value="20"/>
    </junctions>

    <report>
        <aggregate-warnings value="5"/>
    </report>

    <random_number>
        <seed value="1234"/>
    </random_number>

</configuration>
--><net xmlns:xsi="http://www.w3.org/2001/XMLSchema-instance" version="1.6" junctionCornerDetail="5" junctionLinkDetail="20" limitTurnSpeed="5.50" xsi:noNamespaceSchemaLocation="http://sumo.dlr.de/xsd/net_file.xsd">

    <location netOffset="0.00,0.00" convBoundary="-355.61,-307.30,-164.38,-118.88" origBoundary="-355.61,-307.41,-164.38,-118.79" projParameter="!"/>

    <type id="highway.bridleway" priority="1" speed="2.78" allow="pedestrian" oneway="1" width="2.00"/>
    <type id="highway.bus_guideway" priority="1" speed="27.78" allow="bus" oneway="1"/>
    <type id="highway.cycleway" priority="1" speed="8.33" allow="bicycle" oneway="0" width="1.00"/>
    <type id="highway.footway" priority="1" speed="2.78" allow="pedestrian" oneway="1" width="2.00"/>
    <type id="highway.ford" priority="1" speed="2.78" allow="army" oneway="0"/>
    <type id="highway.living_street" priority="2" speed="2.78" disallow="tram rail_urban rail rail_electric rail_fast ship" oneway="0"/>
    <type id="highway.motorway" priority="14" speed="39.44" allow="private emergency authority army vip passenger hov taxi bus coach delivery truck trailer motorcycle evehicle custom1 custom2" oneway="1"/>
    <type id="highway.motorway_link" priority="9" speed="22.22" allow="private emergency authority army vip passenger hov taxi bus coach delivery truck trailer motorcycle evehicle custom1 custom2" oneway="1"/>
    <type id="highway.path" priority="1" speed="2.78" allow="pedestrian bicycle" oneway="0" width="2.00"/>
    <type id="highway.pedestrian" priority="1" speed="2.78" allow="pedestrian" oneway="1" width="2.00"/>
    <type id="highway.primary" priority="12" speed="27.78" disallow="pedestrian tram rail_urban rail rail_electric rail_fast ship" oneway="0"/>
    <type id="highway.primary_link" priority="7" speed="22.22" disallow="pedestrian tram rail_urban rail rail_electric rail_fast ship" oneway="0"/>
    <type id="highway.raceway" priority="15" speed="83.33" allow="vip" oneway="0"/>
    <type id="highway.residential" priority="3" speed="13.89" disallow="pedestrian tram rail_urban rail rail_electric rail_fast ship" oneway="0"/>
    <type id="highway.secondary" priority="11" speed="27.78" disallow="pedestrian tram rail_urban rail rail_electric rail_fast ship" oneway="0"/>
    <type id="highway.secondary_link" priority="6" speed="22.22" disallow="pedestrian tram rail_urban rail rail_electric rail_fast ship" oneway="0"/>
    <type id="highway.service" priority="1" speed="5.56" allow="pedestrian delivery bicycle" oneway="0"/>
    <type id="highway.stairs" priority="1" speed="1.39" allow="pedestrian" oneway="1" width="2.00"/>
    <type id="highway.step" priority="1" speed="1.39" allow="pedestrian" oneway="1" width="2.00"/>
    <type id="highway.steps" priority="1" speed="1.39" allow="pedestrian" oneway="1" width="2.00"/>
    <type id="highway.tertiary" priority="10" speed="22.22" disallow="pedestrian tram rail_urban rail rail_electric rail_fast ship" oneway="0"/>
    <type id="highway.tertiary_link" priority="5" speed="22.22" disallow="pedestrian tram rail_urban rail rail_electric rail_fast ship" oneway="0"/>
    <type id="highway.track" priority="1" speed="5.56" allow="pedestrian motorcycle moped bicycle" oneway="0"/>
    <type id="highway.trunk" priority="13" speed="27.78" disallow="pedestrian bicycle tram rail_urban rail rail_electric rail_fast ship" oneway="0"/>
    <type id="highway.trunk_link" priority="8" speed="22.22" disallow="pedestrian bicycle tram rail_urban rail rail_electric rail_fast ship" oneway="0"/>
    <type id="highway.unclassified" priority="4" speed="13.89" disallow="pedestrian tram rail_urban rail rail_electric rail_fast ship" oneway="0"/>
    <type id="highway.unsurfaced" priority="1" speed="8.33" disallow="tram rail_urban rail rail_electric rail_fast ship" oneway="0"/>
    <type id="railway.highspeed" priority="21" speed="69.44" allow="rail_fast" oneway="1"/>
    <type id="railway.light_rail" priority="19" speed="27.78" allow="rail_urban" oneway="1"/>
    <type id="railway.preserved" priority="16" speed="27.78" allow="rail" oneway="1"/>
    <type id="railway.rail" priority="20" speed="44.44" allow="rail" oneway="1"/>
    <type id="railway.subway" priority="18" speed="27.78" allow="rail_urban" oneway="1"/>
    <type id="railway.tram" priority="17" speed="13.89" allow="tram" oneway="1"/>

    <edge id=":12_0" function="internal">
        <lane id=":12_0_0" index="0" disallow="pedestrian tram rail_urban rail rail_electric rail_fast ship" speed="36.11" length="3.00" width="3.50" shape="-233.39,-199.18 -230.50,-198.39"/>
    </edge>
    <edge id=":14_0" function="internal">
        <lane id=":14_0_0" index="0" disallow="pedestrian tram rail_urban rail rail_electric rail_fast ship" speed="36.11" length="2.98" width="3.50" shape="-286.50,-211.30 -289.34,-212.19"/>
    </edge>
    <edge id=":16_0" function="internal">
        <lane id=":16_0_0" index="0" disallow="pedestrian tram rail_urban rail rail_electric rail_fast ship" speed="36.11" length="3.01" width="3.50" shape="-267.01,-236.05 -266.81,-239.05"/>
        <lane id=":16_0_1" index="1" disallow="pedestrian tram rail_urban rail rail_electric rail_fast ship" speed="36.11" length="3.01" width="3.50" shape="-263.51,-235.83 -263.32,-238.83"/>
    </edge>
    <edge id=":18_0" function="internal">
        <lane id=":18_0_0" index="0" disallow="pedestrian tram rail_urban rail rail_electric rail_fast ship" speed="36.11" length="2.97" width="3.50" shape="-288.27,-215.52 -285.44,-214.63"/>
    </edge>
    <edge id=":20_0" function="internal">
        <lane id=":20_0_0" index="0" disallow="pedestrian tram rail_urban rail rail_electric rail_fast ship" speed="36.11" length="3.03" width="3.50" shape="-248.87,-237.00 -248.99,-233.97"/>
        <lane id=":20_0_1" index="1" disallow="pedestrian tram rail_urban rail rail_electric rail_fast ship" speed="36.11" length="3.03" width="3.50" shape="-252.36,-237.14 -252.49,-234.11"/>
        <lane id=":20_0_2" index="2" disallow="pedestrian tram rail_urban rail rail_electric rail_fast ship" speed="36.11" length="3.01" width="3.50" shape="-255.86,-237.27 -255.99,-234.26"/>
    </edge>
    <edge id=":22_0" function="internal">
        <lane id=":22_0_0" index="0" disallow="pedestrian tram rail_urban rail rail_electric rail_fast ship" speed="36.11" length="3.00" width="3.49" shape="-231.42,-195.01 -234.31,-195.81"/>
    </edge>
    <edge id=":27_0" function="internal">
        <lane id=":27_0_0" index="0" disallow="pedestrian tram rail_urban rail rail_electric rail_fast ship" speed="36.11" length="13.68" width="3.45" shape="-262.83,-204.02 -266.86,-205.13 -275.96,-207.85"/>
    </edge>
    <edge id=":27_1" function="internal">
        <lane id=":27_1_0" index="0" disallow="pedestrian tram rail_urban rail rail_electric rail_fast ship" speed="8.39" length="12.68" width="3.50" shape="-262.83,-204.02 -262.21,-203.94 -263.05,-204.68 -263.69,-205.60 -264.33,-207.15 -264.78,-209.35 -264.97,-212.15 -264.87,-215.23"/>
    </edge>
    <edge id=":27_2" function="internal">
        <lane id=":27_2_0" index="0" disallow="pedestrian tram rail_urban rail rail_electric rail_fast ship" speed="6.59" length="10.91" width="3.50" shape="-275.21,-211.29 -270.93,-210.07 -270.33,-210.20 -269.83,-210.55 -269.46,-211.03 -268.95,-212.14 -268.55,-213.94 -268.38,-215.49"/>
    </edge>
    <edge id=":27_3" function="internal">
        <lane id=":27_3_0" index="0" disallow="pedestrian tram rail_urban rail rail_electric rail_fast ship" speed="36.11" length="17.39" width="3.49" shape="-275.21,-211.29 -265.87,-208.49 -258.55,-206.31"/>
    </edge>
    <edge id=":27_4" function="internal">
        <lane id=":27_4_0" index="0" disallow="pedestrian tram rail_urban rail rail_electric rail_fast ship" speed="8.48" length="12.49" width="3.45" shape="-271.09,-198.18 -271.08,-199.22 -271.33,-203.42 -271.70,-205.50 -272.12,-206.46 -275.96,-207.85"/>
    </edge>
    <edge id=":27_5" function="internal">
        <lane id=":27_5_0" index="0" disallow="pedestrian tram rail_urban rail rail_electric rail_fast ship" speed="36.11" length="17.48" width="3.50" shape="-270.66,-198.16 -270.04,-203.02 -268.77,-211.50 -268.37,-215.49"/>
        <lane id=":27_5_1" index="1" disallow="pedestrian tram rail_urban rail rail_electric rail_fast ship" speed="36.11" length="17.32" width="3.50" shape="-267.16,-198.06 -266.56,-202.67 -265.29,-211.21 -264.88,-215.23"/>
    </edge>
    <edge id=":27_7" function="internal">
        <lane id=":27_7_0" index="0" disallow="pedestrian tram rail_urban rail rail_electric rail_fast ship" speed="6.86" length="12.14" width="3.49" shape="-263.80,-197.95 -263.78,-198.30 -263.26,-202.18 -262.72,-204.36 -262.05,-205.89 -261.71,-206.34 -261.29,-206.69 -260.76,-206.88 -258.55,-206.31"/>
    </edge>
    <edge id=":28_0" function="internal">
        <lane id=":28_0_0" index="0" disallow="pedestrian tram rail_urban rail rail_electric rail_fast ship" speed="9.50" length="23.61" width="3.50" shape="-246.09,-199.09 -250.13,-200.09 -250.62,-199.84 -250.98,-199.43 -251.48,-198.45 -252.06,-196.33 -252.57,-192.51 -253.25,-181.33"/>
    </edge>
    <edge id=":28_1" function="internal">
        <lane id=":28_1_0" index="0" disallow="pedestrian tram rail_urban rail rail_electric rail_fast ship" speed="36.11" length="17.25" width="3.50" shape="-246.09,-199.09 -255.27,-201.73 -262.64,-203.96"/>
    </edge>
    <edge id=":28_2" function="internal">
        <lane id=":28_2_0" index="0" disallow="pedestrian tram rail_urban rail rail_electric rail_fast ship" speed="8.12" length="12.22" width="3.50" shape="-250.08,-211.71 -250.21,-207.78 -249.99,-205.62 -249.68,-204.58 -249.43,-204.10 -249.08,-203.69 -245.31,-202.51"/>
    </edge>
    <edge id=":28_3" function="internal">
        <lane id=":28_3_0" index="0" disallow="pedestrian tram rail_urban rail rail_electric rail_fast ship" speed="36.11" length="30.56" width="3.50" shape="-250.08,-211.71 -250.68,-205.70 -252.37,-194.01 -253.25,-181.33"/>
        <lane id=":28_3_1" index="1" disallow="pedestrian tram rail_urban rail rail_electric rail_fast ship" speed="36.11" length="30.61" width="3.50" shape="-253.57,-211.95 -254.16,-206.06 -255.86,-194.24 -256.75,-181.52"/>
    </edge>
    <edge id=":28_5" function="internal">
        <lane id=":28_5_0" index="0" disallow="pedestrian tram rail_urban rail rail_electric rail_fast ship" speed="6.97" length="12.46" width="3.50" shape="-257.07,-212.20 -257.52,-208.01 -258.08,-205.72 -258.56,-204.64 -258.88,-204.14 -259.29,-203.72 -259.79,-203.42 -260.37,-203.32 -262.64,-203.96"/>
    </edge>
    <edge id=":28_6" function="internal">
        <lane id=":28_6_0" index="0" disallow="pedestrian tram rail_urban rail rail_electric rail_fast ship" speed="36.11" length="13.58" width="3.50" shape="-258.36,-206.25 -254.29,-205.09 -245.31,-202.51"/>
    </edge>
    <edge id=":28_7" function="internal">
        <lane id=":28_7_0" index="0" disallow="pedestrian tram rail_urban rail rail_electric rail_fast ship" speed="12.01" length="27.05" width="3.50" shape="-258.36,-206.25 -259.48,-206.56 -258.65,-205.90 -258.04,-205.03 -257.40,-203.57 -256.86,-201.52 -256.42,-198.36 -256.21,-193.59 -256.75,-181.52"/>
    </edge>

    <edge id="21892" from="27" to="28" priority="3" type="highway.residential" spreadType="center" length="0.20" shape="-265.49,-207.50 -254.62,-203.89">
        <lane id="21892_0" index="0" disallow="pedestrian tram rail_urban rail rail_electric rail_fast ship" speed="36.11" length="0.20" width="3.49" customShape="1" shape="-258.55,-206.31 -258.36,-206.25"/>
    </edge>
    <edge id="21893" from="28" to="27" priority="3" type="highway.residential" spreadType="center" length="0.20" shape="-255.70,-200.61 -266.59,-204.18">
        <lane id="21893_0" index="0" disallow="pedestrian tram rail_urban rail rail_electric rail_fast ship" speed="36.11" length="0.20" width="3.50" customShape="1" shape="-262.64,-203.96 -262.83,-204.02"/>
    </edge>
    <edge id="21932" from="19" to="18" priority="3" type="highway.residential" spreadType="center" length="68.52">
        <lane id="21932_0" index="0" disallow="pedestrian tram rail_urban rail rail_electric rail_fast ship" speed="36.11" length="68.52" width="3.50" customShape="1" shape="-354.55,-232.83 -351.65,-231.93 -340.48,-228.90 -308.66,-221.23 -296.49,-218.00 -288.27,-215.52"/>
    </edge>
    <edge id="21933" from="14" to="15" priority="3" type="highway.residential" spreadType="center" length="68.51">
        <lane id="21933_0" index="0" disallow="pedestrian tram rail_urban rail rail_electric rail_fast ship" speed="36.11" length="68.51" width="3.50" customShape="1" shape="-289.34,-212.19 -297.52,-214.65 -309.65,-217.87 -341.52,-225.56 -352.76,-228.61 -355.61,-229.49"/>
    </edge>
    <edge id="21942" from="28" to="9" priority="3" type="highway.residential" spreadType="center" length="62.68">
        <lane id="21942_0" index="0" disallow="pedestrian tram rail_urban rail rail_electric rail_fast ship" speed="36.11" length="62.68" width="3.50" customShape="1" shape="-253.25,-181.33 -257.06,-118.77"/>
        <lane id="21942_1" index="1" disallow="pedestrian tram rail_urban rail rail_electric rail_fast ship" speed="36.11" length="62.68" width="3.50" customShape="1" shape="-256.75,-181.52 -260.55,-118.96"/>
    </edge>
    <edge id="21961" from="23" to="22" priority="3" type="highway.residential" spreadType="center" length="68.49">
        <lane id="21961_0" index="0" disallow="pedestrian tram rail_urban rail rail_electric rail_fast ship" speed="36.11" length="68.49" width="3.50" customShape="1" shape="-165.30,-177.14 -231.42,-195.01"/>
    </edge>
    <edge id="21962" from="12" to="13" priority="3" type="highway.residential" spreadType="center" length="68.49">
        <lane id="21962_0" index="0" disallow="pedestrian tram rail_urban rail rail_electric rail_fast ship" speed="36.11" length="68.49" width="3.50" customShape="1" shape="-230.50,-198.39 -164.38,-180.51"/>
    </edge>
    <edge id="22039" from="16" to="17" priority="3" type="highway.residential" spreadType="center" length="68.50">
        <lane id="22039_0" index="0" disallow="pedestrian tram rail_urban rail rail_electric rail_fast ship" speed="36.11" length="68.50" width="3.50" customShape="1" shape="-266.81,-239.05 -262.48,-307.41"/>
        <lane id="22039_1" index="1" disallow="pedestrian tram rail_urban rail rail_electric rail_fast ship" speed="36.11" length="68.50" width="3.50" customShape="1" shape="-263.32,-238.83 -258.99,-307.19"/>
    </edge>
    <edge id="22310" from="20" to="28" priority="3" type="highway.residential" spreadType="center" length="22.09">
        <lane id="22310_0" index="0" disallow="pedestrian tram rail_urban rail rail_electric rail_fast ship" speed="36.11" length="22.29" width="3.50" customShape="1" shape="-248.99,-233.97 -249.83,-215.68 -250.08,-211.71"/>
        <lane id="22310_1" index="1" disallow="pedestrian tram rail_urban rail rail_electric rail_fast ship" speed="36.11" length="22.19" width="3.50" customShape="1" shape="-252.49,-234.11 -253.32,-215.91 -253.57,-211.95"/>
        <lane id="22310_2" index="2" disallow="pedestrian tram rail_urban rail rail_electric rail_fast ship" speed="36.11" length="22.09" width="3.50" customShape="1" shape="-255.99,-234.26 -256.81,-216.13 -257.07,-212.20"/>
    </edge>
    <edge id="22412" from="21" to="20" priority="3" type="highway.residential" spreadType="center" length="22.36">
        <lane id="22412_0" index="0" disallow="pedestrian tram rail_urban rail rail_electric rail_fast ship" speed="36.11" length="22.37" width="3.50" customShape="1" shape="-248.03,-259.35 -248.48,-247.42 -248.87,-237.00"/>
        <lane id="22412_1" index="1" disallow="pedestrian tram rail_urban rail rail_electric rail_fast ship" speed="36.11" length="22.36" width="3.50" customShape="1" shape="-251.53,-259.48 -251.97,-247.55 -252.36,-237.14"/>
        <lane id="22412_2" index="2" disallow="pedestrian tram rail_urban rail rail_electric rail_fast ship" speed="36.11" length="22.37" width="3.50" customShape="1" shape="-255.02,-259.62 -255.47,-247.68 -255.86,-237.27"/>
    </edge>
    <edge id="22511" from="22" to="28" priority="3" type="highway.residential" spreadType="center" length="12.23" shape="-232.87,-195.40 -255.93,-200.67">
        <lane id="22511_0" index="0" disallow="pedestrian tram rail_urban rail rail_electric rail_fast ship" speed="36.11" length="12.23" width="3.49" customShape="1" shape="-234.31,-195.81 -241.10,-197.70 -246.09,-199.09"/>
    </edge>
    <edge id="22535" from="11" to="27" priority="3" type="highway.residential" spreadType="center" length="45.15">
        <lane id="22535_0" index="0" disallow="pedestrian tram rail_urban rail rail_electric rail_fast ship" speed="36.11" length="45.15" width="3.50" customShape="1" shape="-272.36,-153.04 -271.75,-172.70 -270.95,-198.17"/>
        <lane id="22535_1" index="1" disallow="pedestrian tram rail_urban rail rail_electric rail_fast ship" speed="36.11" length="45.15" width="3.50" customShape="1" shape="-268.86,-152.93 -268.25,-172.59 -267.46,-198.06"/>
        <lane id="22535_2" index="2" disallow="pedestrian tram rail_urban rail rail_electric rail_fast ship" speed="36.11" length="45.17" width="3.50" customShape="1" shape="-265.36,-152.81 -264.75,-172.49 -263.96,-197.96"/>
    </edge>
    <edge id="22537" from="18" to="27" priority="3" type="highway.residential" spreadType="center" length="10.76" shape="-286.85,-215.09 -265.33,-207.44">
        <lane id="22537_0" index="0" disallow="pedestrian tram rail_urban rail rail_electric rail_fast ship" speed="36.11" length="10.76" width="3.50" customShape="1" shape="-285.44,-214.63 -275.21,-211.29"/>
    </edge>
    <edge id="24561" from="27" to="14" priority="3" type="highway.residential" spreadType="center" length="11.09" shape="-266.49,-204.17 -287.91,-211.76">
        <lane id="24561_0" index="0" disallow="pedestrian tram rail_urban rail rail_electric rail_fast ship" speed="36.11" length="11.09" width="3.45" customShape="1" shape="-275.96,-207.85 -286.50,-211.30"/>
    </edge>
    <edge id="24688" from="27" to="16" priority="3" type="highway.residential" spreadType="center" length="20.60">
        <lane id="24688_0" index="0" disallow="pedestrian tram rail_urban rail rail_electric rail_fast ship" speed="36.11" length="20.60" width="3.50" customShape="1" shape="-268.37,-215.49 -268.34,-215.89 -268.33,-216.01 -267.62,-226.78 -267.01,-236.05"/>
        <lane id="24688_1" index="1" disallow="pedestrian tram rail_urban rail rail_electric rail_fast ship" speed="36.11" length="20.65" width="3.50" customShape="1" shape="-264.88,-215.23 -264.85,-215.64 -264.84,-215.77 -264.13,-226.55 -263.51,-235.83"/>
    </edge>
    <edge id="24807" from="28" to="12" priority="3" type="highway.residential" spreadType="center" length="12.38" shape="-255.15,-204.07 -231.95,-198.78">
        <lane id="24807_0" index="0" disallow="pedestrian tram rail_urban rail rail_electric rail_fast ship" speed="36.11" length="12.38" width="3.50" customShape="1" shape="-245.31,-202.51 -240.16,-201.07 -233.39,-199.18"/>
    </edge>

    <junction id="11" type="dead_end" x="-268.86" y="-152.93" incLanes="" intLanes="" shape="-263.61,-152.77 -274.11,-153.09" rightOfWay="edgePriority"/>
    <junction id="12" type="priority" x="-231.95" y="-198.78" incLanes="24807_0" intLanes=":12_0_0" shape="-230.96,-196.70 -230.05,-200.08 -232.92,-200.87 -233.86,-197.50" rightOfWay="edgePriority">
        <request index="0" response="0" foes="0" cont="0"/>
    </junction>
    <junction id="13" type="dead_end" x="-164.38" y="-180.51" incLanes="21962_0" intLanes="" shape="-163.92,-182.20 -164.83,-178.82" rightOfWay="edgePriority"/>
    <junction id="14" type="priority" x="-287.91" y="-211.76" incLanes="24561_0" intLanes=":14_0_0" shape="-287.04,-209.66 -285.96,-212.94 -288.83,-213.86 -289.84,-210.51" rightOfWay="edgePriority">
        <request index="0" response="0" foes="0" cont="0"/>
    </junction>
    <junction id="15" type="dead_end" x="-355.61" y="-229.49" incLanes="21933_0" intLanes="" shape="-356.13,-227.82 -355.09,-231.16" rightOfWay="edgePriority"/>
    <junction id="16" type="priority" x="-265.16" y="-237.44" incLanes="24688_0 24688_1" intLanes=":16_0_0 :16_0_1" shape="-261.57,-238.72 -268.56,-239.16 -268.75,-236.17 -261.77,-235.72" rightOfWay="edgePriority">
        <request index="0" response="00" foes="00" cont="0"/>
        <request index="1" response="00" foes="00" cont="0"/>
    </junction>
    <junction id="17" type="dead_end" x="-260.74" y="-307.30" incLanes="22039_0 22039_1" intLanes="" shape="-264.23,-307.52 -257.24,-307.08" rightOfWay="edgePriority"/>
    <junction id="18" type="priority" x="-286.85" y="-215.09" incLanes="21932_0" intLanes=":18_0_0" shape="-285.98,-212.97 -284.89,-216.30 -287.77,-217.20 -288.78,-213.85" rightOfWay="edgePriority">
        <request index="0" response="0" foes="0" cont="0"/>
    </junction>
    <junction id="19" type="dead_end" x="-354.55" y="-232.83" incLanes="" intLanes="" shape="-355.07,-231.16 -354.03,-234.50" rightOfWay="edgePriority"/>
    <junction id="20" type="priority" x="-252.42" y="-235.64" incLanes="22412_0 22412_1 22412_2" intLanes=":20_0_0 :20_0_1 :20_0_2" shape="-247.12,-236.94 -257.61,-237.34 -257.73,-234.33 -247.24,-233.90" rightOfWay="edgePriority">
        <request index="0" response="000" foes="000" cont="0"/>
        <request index="1" response="000" foes="000" cont="0"/>
        <request index="2" response="000" foes="000" cont="0"/>
    </junction>
    <junction id="21" type="dead_end" x="-251.53" y="-259.48" incLanes="" intLanes="" shape="-256.77,-259.67 -246.28,-259.28" rightOfWay="edgePriority"/>
    <junction id="22" type="priority" x="-232.87" y="-195.40" incLanes="21961_0" intLanes=":22_0_0" shape="-231.88,-193.32 -230.97,-196.70 -233.85,-197.49 -234.78,-194.13" rightOfWay="edgePriority">
        <request index="0" response="0" foes="0" cont="0"/>
    </junction>
    <junction id="23" type="dead_end" x="-165.30" y="-177.14" incLanes="" intLanes="" shape="-164.84,-178.82 -165.75,-175.45" rightOfWay="edgePriority"/>
    <junction id="27" type="priority" x="-266.04" y="-205.84" incLanes="21893_0 22537_0 22535_0 22535_1 22535_2" intLanes=":27_0_0 :27_1_0 :27_2_0 :27_3_0 :27_4_0 :27_5_0 :27_5_1 :27_7_0" shape="-258.23,-200.84 -256.49,-207.51 -263.13,-215.10 -270.11,-215.62 -270.76,-213.53 -271.44,-212.94 -272.34,-212.65 -273.47,-212.68 -274.84,-213.01 -276.33,-206.16 -274.22,-204.72 -273.51,-203.55 -273.01,-202.07 -272.75,-200.30 -272.70,-198.23 -262.21,-197.90">
        <request index="0" response="11110000" foes="11110000" cont="0"/>
        <request index="1" response="11101000" foes="11101000" cont="0"/>
        <request index="2" response="01100000" foes="01100000" cont="0"/>
        <request index="3" response="11100000" foes="11100010" cont="0"/>
        <request index="4" response="00000000" foes="00000001" cont="0"/>
        <request index="5" response="00000000" foes="00001111" cont="0"/>
        <request index="6" response="00000000" foes="00001111" cont="0"/>
        <request index="7" response="00000000" foes="00001011" cont="0"/>
    </junction>
    <junction id="28" type="priority" x="-255.42" y="-202.34" incLanes="22511_0 22310_0 22310_1 22310_2 21892_0" intLanes=":28_0_0 :28_1_0 :28_2_0 :28_3_0 :28_3_1 :28_5_0 :28_6_0 :28_7_0" shape="-246.48,-197.39 -244.92,-204.21 -247.00,-205.50 -247.69,-206.59 -248.14,-207.96 -248.36,-209.63 -248.34,-211.59 -258.81,-212.32 -262.95,-209.34 -264.76,-202.80 -258.49,-181.62 -251.50,-181.23 -251.07,-186.48 -250.48,-190.70 -249.72,-193.90 -248.80,-196.08 -247.72,-197.25">
        <request index="0" response="00011000" foes="00011000" cont="0"/>
        <request index="1" response="00111000" foes="10111000" cont="0"/>
        <request index="2" response="00000000" foes="01000000" cont="0"/>
        <request index="3" response="00000000" foes="11000011" cont="0"/>
        <request index="4" response="00000000" foes="11000011" cont="0"/>
        <request index="5" response="00000000" foes="11000010" cont="0"/>
        <request index="6" response="00111100" foes="00111100" cont="0"/>
        <request index="7" response="00111010" foes="00111010" cont="0"/>
    </junction>
    <junction id="9" type="dead_end" x="-258.80" y="-118.88" incLanes="21942_0 21942_1" intLanes="" shape="-255.31,-118.66 -262.30,-119.09" rightOfWay="edgePriority"/>

    <connection from="21892" to="24807" fromLane="0" toLane="0" contPos="-4.00" shape="-259.97,-206.76 -254.29,-205.09 -248.60,-203.42" via=":28_6_0" dir="s" state="m"/>
    <connection from="21892" to="21942" fromLane="0" toLane="1" contPos="-4.00" shape="-259.97,-206.76 -259.48,-206.56 -258.65,-205.90 -258.04,-205.03 -257.40,-203.57 -256.86,-201.52 -256.42,-198.36 -256.21,-193.59 -256.30,-188.83" via=":28_7_0" dir="l" state="m"/>
    <connection from="21893" to="24561" fromLane="0" toLane="0" contPos="-4.00" shape="-261.19,-203.47 -266.86,-205.13 -272.56,-206.82" via=":27_0_0" dir="s" state="m"/>
    <connection from="21893" to="24688" fromLane="0" toLane="1" contPos="-4.00" shape="-261.19,-203.47 -262.21,-203.94 -263.05,-204.68 -263.69,-205.60 -264.33,-207.15 -264.78,-209.35 -264.97,-212.15 -264.86,-215.50" via=":27_1_0" dir="l" state="m"/>
    <connection from="21932" to="22537" fromLane="0" toLane="0" contPos="-4.00" via=":18_0_0" dir="s" state="M"/>
    <connection from="21961" to="22511" fromLane="0" toLane="0" contPos="-4.00" via=":22_0_0" dir="s" state="M"/>
    <connection from="22310" to="24807" fromLane="0" toLane="0" contPos="-4.00" shape="-250.13,-211.04 -250.21,-207.78 -249.99,-205.62 -249.68,-204.58 -249.43,-204.10 -249.08,-203.69 -248.60,-203.42" via=":28_2_0" dir="r" state="M"/>
    <connection from="22310" to="21942" fromLane="0" toLane="0" contPos="-4.00" shape="-250.13,-211.04 -250.68,-205.70 -252.37,-194.01 -252.81,-188.66" via=":28_3_0" dir="s" state="M"/>
    <connection from="22310" to="21942" fromLane="1" toLane="1" contPos="-4.00" shape="-253.62,-211.28 -254.16,-206.06 -255.86,-194.24 -256.30,-188.83" via=":28_3_1" dir="s" state="M"/>
    <connection from="22310" to="21893" fromLane="2" toLane="0" contPos="-4.00" shape="-257.11,-211.54 -257.52,-208.01 -258.08,-205.72 -258.56,-204.64 -258.88,-204.14 -259.29,-203.72 -259.79,-203.42 -260.37,-203.32 -260.94,-203.40" via=":28_5_0" dir="l" state="M"/>
    <connection from="22412" to="22310" fromLane="0" toLane="0" contPos="-4.00" via=":20_0_0" dir="s" state="M"/>
    <connection from="22412" to="22310" fromLane="1" toLane="1" contPos="-4.00" via=":20_0_1" dir="s" state="M"/>
    <connection from="22412" to="22310" fromLane="2" toLane="2" contPos="-4.00" via=":20_0_2" dir="s" state="M"/>
    <connection from="22511" to="21942" fromLane="0" toLane="0" contPos="-4.00" shape="-249.57,-200.07 -250.13,-200.09 -250.62,-199.84 -250.98,-199.43 -251.48,-198.45 -252.06,-196.33 -252.57,-192.51 -252.81,-188.66" via=":28_0_0" dir="r" state="m"/>
    <connection from="22511" to="21893" fromLane="0" toLane="0" contPos="-4.00" shape="-249.57,-200.07 -255.27,-201.73 -260.94,-203.40" via=":28_1_0" dir="s" state="m"/>
    <connection from="22535" to="24561" fromLane="0" toLane="0" contPos="-4.00" shape="-271.14,-192.35 -271.08,-199.22 -271.33,-203.42 -271.70,-205.50 -272.12,-206.46 -272.56,-206.82" via=":27_4_0" dir="r" state="M"/>
    <connection from="22535" to="24688" fromLane="0" toLane="0" contPos="-4.00" shape="-271.14,-192.35 -270.86,-196.64 -270.04,-203.02 -268.77,-211.50 -268.35,-215.76" via=":27_5_0" dir="s" state="M"/>
    <connection from="22535" to="24688" fromLane="1" toLane="1" contPos="-4.00" shape="-267.64,-192.25 -267.38,-196.35 -266.56,-202.67 -265.29,-211.21 -264.86,-215.50" via=":27_5_1" dir="s" state="M"/>
    <connection from="22535" to="21892" fromLane="2" toLane="0" contPos="-4.00" shape="-264.14,-192.14 -263.78,-198.30 -263.26,-202.18 -262.72,-204.36 -262.05,-205.89 -261.71,-206.34 -261.29,-206.69 -260.76,-206.88 -260.22,-206.83" via=":27_7_0" dir="l" state="M"/>
    <connection from="22537" to="24688" fromLane="0" toLane="0" contPos="-4.00" shape="-271.51,-210.13 -270.93,-210.07 -270.33,-210.20 -269.83,-210.55 -269.46,-211.03 -268.95,-212.14 -268.55,-213.94 -268.35,-215.76" via=":27_2_0" dir="r" state="m"/>
    <connection from="22537" to="21892" fromLane="0" toLane="0" contPos="-4.00" shape="-271.51,-210.13 -265.87,-208.49 -260.22,-206.83" via=":27_3_0" dir="s" state="m"/>