<routes>
	<vehicle depart="0.1" departLane="0" departPos="69.76277478405052" departSpeed="0.43045487" id="316" type="bicycle">
		<route edges="3596 3599"/>
	</vehicle>
	<vehicle depart="0.1" departLane="0" departPos="32.33949482847073" departSpeed="0.0" id="345" type="bus">
		<route edges="3538 3535"/>
	</vehicle>
	<vehicle depart="0.1" departLane="0" departPos="19.492773329069472" departSpeed="1.7451146" id="3100" type="bus">
		<route edges="3541 3595"/>
	</vehicle>
	<vehicle depart="0.1" departLane="0" departPos="58.103896133966025" departSpeed="1.2283838" id="317" type="passenger">
		<route edges="3596 3538"/>
	</vehicle>
	<vehicle depart="0.1" departLane="0" departPos="48.61266509815143" departSpeed="0.64121036" id="327" type="passenger">
		<route edges="3596 3538"/>
	</vehicle>
	<vehicle depart="0.1" departLane="0" departPos="16.943237672536622" departSpeed="0.54949999" id="351" type="passenger">
		<route edges="3538 3535"/>
	</vehicle>
	<vehicle depart="0.1" departLane="0" departPos="6.728263519239235" departSpeed="2.4340747" id="370" type="passenger">
		<route edges="3538 3535"/>
	</vehicle>
	<vehicle depart="0.1" departLane="0" departPos="10.480569895556236" departSpeed="6.3994253" id="384" type="passenger">
		<route edges=":121_5 3538"/>
	</vehicle>
	<vehicle depart="0.1" departLane="0" departPos="89.7905389132009" departSpeed="0.23345747" id="339" type="motorcycle">
		<route edges="3598 3595"/>
	</vehicle>
	<vehicle depart="0.1" departLane="0" departPos="23.446972429104203" departSpeed="1.0247255" id="376" type="motorcycle">
		<route edges="3539 3595"/>
	</vehicle>
</routes>
