<!-- generated on 2020-12-18 15:57:59.404359 by ipykernel_launcher.py v1_2_0+5214-53edc58fcd
-->
<edges>
	<edge from="1" function="normal" id="3431" length="7.746632106922343" numLanes="5" priority="1" speed="36.11111111111111" spreadType="center" to="2">
		<lane allow="moped bicycle pedestrian custom1 trailer evehicle rail_urban ship private truck vip custom2 authority delivery rail_electric taxi tram army hov coach motorcycle passenger bus rail emergency" index="0" length="7.746632106922343" shape="15.09205,65.2894 11.549949999999999,58.2789" speed="36.11111111111111" width="2.841755522559954"/>
		<lane allow="moped bicycle pedestrian custom1 trailer evehicle rail_urban ship private truck vip custom2 authority delivery rail_electric taxi tram army hov coach motorcycle passenger bus rail emergency" index="1" length="7.746632106922343" shape="17.7193,63.94070000000001 14.23645,56.9328" speed="36.11111111111111" width="3.0646593807469027"/>
		<lane allow="moped bicycle pedestrian custom1 trailer evehicle rail_urban ship private truck vip custom2 authority delivery rail_electric taxi tram army hov coach motorcycle passenger bus rail emergency" index="2" length="7.746632106922343" shape="20.430349999999997,62.548950000000005 16.9827,55.5743" speed="36.11111111111111" width="3.0301778330652485"/>
		<lane allow="moped bicycle pedestrian custom1 trailer evehicle rail_urban ship private truck vip custom2 authority delivery rail_electric taxi tram army hov coach motorcycle passenger bus rail emergency" index="3" length="7.746632106922343" shape="23.1486,61.1535 19.7172,54.208299999999994" speed="36.11111111111111" width="3.0528378404363354"/>
		<lane allow="moped bicycle pedestrian custom1 trailer evehicle rail_urban ship private truck vip custom2 authority delivery rail_electric taxi tram army hov coach motorcycle passenger bus rail emergency" index="4" length="7.746632106922343" shape="25.8739,59.754450000000006 22.44295,52.7655" speed="36.11111111111111" width="3.046009725854468"/>
	</edge>
	<edge from="2" function="normal" id="3438" length="8.438893355322135" numLanes="6" priority="1" speed="36.11111111111111" spreadType="center" to="3">
		<lane allow="moped bicycle pedestrian custom1 trailer evehicle rail_urban ship private truck vip custom2 authority delivery rail_electric taxi tram army hov coach motorcycle passenger bus rail emergency" index="0" length="8.438893355322135" shape="11.549949999999999,58.2789 4.8751,52.00215" speed="36.11111111111111" width="2.9435128146485137"/>
		<lane allow="moped bicycle pedestrian custom1 trailer evehicle rail_urban ship private truck vip custom2 authority delivery rail_electric taxi tram army hov coach motorcycle passenger bus rail emergency" index="1" length="8.438893355322135" shape="11.549949999999999,58.2789 7.7164,50.669250000000005" speed="36.11111111111111" width="2.9435128146485137"/>
		<lane allow="moped bicycle pedestrian custom1 trailer evehicle rail_urban ship private truck vip custom2 authority delivery rail_electric taxi tram army hov coach motorcycle passenger bus rail emergency" index="2" length="8.438893355322135" shape="14.23645,56.9328 10.46495,49.3377" speed="36.11111111111111" width="3.0546153096584847"/>
		<lane allow="moped bicycle pedestrian custom1 trailer evehicle rail_urban ship private truck vip custom2 authority delivery rail_electric taxi tram army hov coach motorcycle passenger bus rail emergency" index="3" length="8.438893355322135" shape="16.9827,55.5743 13.196,47.99485" speed="36.11111111111111" width="3.032458014548595"/>
		<lane allow="moped bicycle pedestrian custom1 trailer evehicle rail_urban ship private truck vip custom2 authority delivery rail_electric taxi tram army hov coach motorcycle passenger bus rail emergency" index="4" length="8.438893355322135" shape="19.7172,54.208299999999994 15.9149,46.61365" speed="36.11111111111111" width="3.0528378404363354"/>
		<lane allow="moped bicycle pedestrian custom1 trailer evehicle rail_urban ship private truck vip custom2 authority delivery rail_electric taxi tram army hov coach motorcycle passenger bus rail emergency" index="5" length="8.438893355322135" shape="22.44295,52.7655 18.7028,45.2007" speed="36.11111111111111" width="3.1152791608457813"/>
	</edge>
	<edge from="3" function="normal" id="3450" length="24.49487124148037" numLanes="6" priority="1" speed="36.11111111111111" spreadType="center" to="4">
		<lane allow="moped bicycle pedestrian custom1 trailer evehicle rail_urban ship private truck vip custom2 authority delivery rail_electric taxi tram army hov coach motorcycle passenger bus rail emergency" index="0" length="24.49487124148037" shape="4.8751,52.00215 1.7104000000000001,45.768100000000004 -2.0779,38.08095 -6.163600000000001,30.13635" speed="36.11111111111111" width="3.2241062653082633"/>
		<lane allow="moped bicycle pedestrian custom1 trailer evehicle rail_urban ship private truck vip custom2 authority delivery rail_electric taxi tram army hov coach motorcycle passenger bus rail emergency" index="1" length="24.49487124148037" shape="7.7164,50.669250000000005 4.7089,44.61765 0.8859499999999999,36.669399999999996 -3.2179,28.53265" speed="36.11111111111111" width="2.8665619215359706"/>
		<lane allow="moped bicycle pedestrian custom1 trailer evehicle rail_urban ship private truck vip custom2 authority delivery rail_electric taxi tram army hov coach motorcycle passenger bus rail emergency" index="2" length="24.49487124148037" shape="10.46495,49.3377 7.44195,43.286249999999995 3.5881499999999997,35.33845 -0.5753999999999999,27.214100000000002" speed="36.11111111111111" width="3.0042210737560575"/>
		<lane allow="moped bicycle pedestrian custom1 trailer evehicle rail_urban ship private truck vip custom2 authority delivery rail_electric taxi tram army hov coach motorcycle passenger bus rail emergency" index="3" length="24.49487124148037" shape="13.196,47.99485 10.1096,41.8366 6.2249,33.8892 2.20925,25.8397" speed="36.11111111111111" width="3.0189875720181423"/>
		<lane allow="moped bicycle pedestrian custom1 trailer evehicle rail_urban ship private truck vip custom2 authority delivery rail_electric taxi tram army hov coach motorcycle passenger bus rail emergency" index="4" length="24.49487124148037" shape="15.9149,46.61365 12.79645,40.37895 8.91175,32.43155 4.9723500000000005,24.446399999999997" speed="36.11111111111111" width="3.018395509206837"/>
		<lane allow="moped bicycle pedestrian custom1 trailer evehicle rail_urban ship private truck vip custom2 authority delivery rail_electric taxi tram army hov coach motorcycle passenger bus rail emergency" index="5" length="24.49487124148037" shape="18.7028,45.2007 15.49035,38.87505 11.60565,30.92765 7.66815,23.07325" speed="36.11111111111111" width="3.0323687935341885"/>
	</edge>
	<edge from="4" function="normal" id="3664" length="45.621593371778964" numLanes="2" priority="1" speed="36.11111111111111" spreadType="center" to="5">
		<lane allow="moped bicycle pedestrian custom1 trailer evehicle rail_urban ship private vip custom2 authority delivery rail_electric taxi tram army hov coach motorcycle passenger rail emergency" index="0" length="45.621593371778964" shape="4.9723500000000005,24.446399999999997 1.2140000000000002,17.065 -0.9214,12.65705 -1.9863,10.12515 -2.45975,8.077300000000001 -2.58755,5.7119 -2.1461,2.9252 -1.411,0.359 -0.34455,-1.57975 1.0682999999999998,-3.72615 4.188549999999999,-6.7011 10.23315,-10.183800000000002 19.2459,-14.898499999999999" speed="36.11111111111111" width="2.934935747167219"/>
		<lane allow="moped bicycle pedestrian custom1 trailer evehicle rail_urban ship private vip custom2 authority delivery rail_electric taxi tram army hov coach motorcycle passenger rail emergency" index="1" length="45.621593371778964" shape="7.66815,23.07325 4.31675,16.29705 2.70885,12.25165 2.04505,9.860399999999998 1.7687,8.079049999999999 1.6006999999999998,6.046250000000001 1.8299499999999997,3.9385 2.4782,2.17265 3.44455,0.5915999999999999 4.77055,-1.0276500000000002 7.243399999999999,-3.59605 12.508,-7.3544 20.790750000000003,-11.806899999999999" speed="36.11111111111111" width="3.0323687935341885"/>
	</edge>
	<edge from="5" function="normal" id="3495" length="15.184501575044735" numLanes="3" priority="1" speed="36.11111111111111" spreadType="center" to="6">
		<lane allow="moped bicycle pedestrian custom1 trailer evehicle rail_urban ship private truck vip custom2 authority delivery rail_electric taxi tram army hov coach motorcycle passenger bus rail emergency" index="0" length="15.184501575044735" shape="17.62285,-18.226599999999998 26.35015,-22.52165 31.257949999999997,-24.93695" speed="36.11111111111111" width="3.8765859644795713"/>
		<lane allow="moped bicycle pedestrian custom1 trailer evehicle rail_urban ship private truck vip custom2 authority delivery rail_electric taxi tram army hov coach motorcycle passenger bus rail emergency" index="1" length="15.184501575044735" shape="19.2459,-14.898499999999999 27.97305,-19.192050000000002 32.89165,-21.611849999999997" speed="36.11111111111111" width="3.511789538113011"/>
		<lane allow="moped bicycle pedestrian custom1 trailer evehicle rail_urban ship private truck vip custom2 authority delivery rail_electric taxi tram army hov coach motorcycle passenger bus rail emergency" index="2" length="15.184501575044735" shape="20.790750000000003,-11.806899999999999 29.469549999999998,-16.075499999999998 34.41635,-18.50855" speed="36.11111111111111" width="3.382313814535842"/>
	</edge>
	<edge from="4" function="normal" id="3610" length="13.553882434287969" numLanes="3" priority="1" speed="36.11111111111111" spreadType="center" to="7">
		<lane allow="moped bicycle pedestrian custom1 trailer evehicle rail_urban ship private truck vip custom2 authority delivery rail_electric taxi tram army hov coach motorcycle passenger bus rail emergency" index="0" length="13.553882434287969" shape="-3.2179,28.53265 -9.2546,16.356749999999998" speed="36.11111111111111" width="2.8665619215359706"/>
		<lane allow="moped bicycle pedestrian custom1 trailer evehicle rail_urban ship private truck vip custom2 authority delivery rail_electric taxi tram army hov coach motorcycle passenger bus rail emergency" index="1" length="13.553882434287969" shape="-0.5753999999999999,27.214100000000002 -6.525650000000001,15.0229" speed="36.11111111111111" width="3.0173836033888692"/>
		<lane allow="moped bicycle pedestrian custom1 trailer evehicle rail_urban ship private truck vip custom2 authority delivery rail_electric taxi tram army hov coach motorcycle passenger bus rail emergency" index="2" length="13.553882434287969" shape="2.20925,25.8397 -3.76955,13.67575" speed="36.11111111111111" width="3.118054550517037"/>
	</edge>
	<edge from="7" function="normal" id="3646" length="16.50963275573512" numLanes="3" priority="1" speed="36.11111111111111" spreadType="center" to="8">
		<lane allow="moped bicycle pedestrian custom1 trailer evehicle rail_urban ship private truck vip custom2 authority delivery rail_electric taxi tram army hov coach motorcycle passenger bus rail emergency" index="0" length="16.50963275573512" shape="-9.2546,16.356749999999998 -10.688600000000001,13.46435 -12.32185,10.1698 -13.726949999999999,7.3359000000000005 -15.11235,4.5415 -16.58795,1.5652" speed="36.11111111111111" width="3.057589293871889"/>
		<lane allow="moped bicycle pedestrian custom1 trailer evehicle rail_urban ship private truck vip custom2 authority delivery rail_electric taxi tram army hov coach motorcycle passenger bus rail emergency" index="1" length="16.50963275573512" shape="-6.525650000000001,15.0229 -7.9549,12.0947 -9.56915,8.7872 -10.9602,5.9391 -12.3401,3.11365 -13.8089,0.1064" speed="36.11111111111111" width="2.9903827313573093"/>
		<lane allow="moped bicycle pedestrian custom1 trailer evehicle rail_urban ship private truck vip custom2 authority delivery rail_electric taxi tram army hov coach motorcycle passenger bus rail emergency" index="2" length="16.50963275573512" shape="-3.76955,13.67575 -5.22015,10.724499999999999 -6.8453,7.4181 -8.2463,4.569 -9.6447,1.72535 -11.13185,-1.29875" speed="36.11111111111111" width="3.0564489100915777"/>
	</edge>
	<edge from="8" function="normal" id="3626" length="12.19057411086533" numLanes="3" priority="1" speed="36.11111111111111" spreadType="center" to="9">
		<lane allow="moped bicycle pedestrian custom1 trailer evehicle rail_urban ship private truck vip custom2 authority delivery rail_electric taxi tram army hov coach motorcycle passenger bus rail emergency" index="0" length="12.19057411086533" shape="-16.58795,1.5652 -22.00325,-9.35655" speed="36.11111111111111" width="3.286946748884137"/>
		<lane allow="moped bicycle pedestrian custom1 trailer evehicle rail_urban ship private truck vip custom2 authority delivery rail_electric taxi tram army hov coach motorcycle passenger bus rail emergency" index="1" length="12.19057411086533" shape="-13.8089,0.1064 -19.159599999999998,-10.8492" speed="36.11111111111111" width="2.969358961122754"/>
		<lane allow="moped bicycle pedestrian custom1 trailer evehicle rail_urban ship private truck vip custom2 authority delivery rail_electric taxi tram army hov coach motorcycle passenger bus rail emergency" index="2" length="12.19057411086533" shape="-11.13185,-1.29875 -16.51155,-12.239149999999999" speed="36.11111111111111" width="3.0119886487169887"/>
	</edge>
	<edge from="9" function="normal" id="3542" length="42.04503365774769" numLanes="3" priority="1" speed="36.11111111111111" spreadType="center" to="10">
		<lane allow="moped bicycle pedestrian custom1 trailer evehicle rail_urban ship private truck vip custom2 authority delivery rail_electric taxi tram army hov coach motorcycle passenger rail emergency" index="0" length="42.04503365774769" shape="-22.00325,-9.35655 -26.16455,-17.89525 -30.2178,-26.82525 -33.989850000000004,-35.54375 -37.614599999999996,-44.7877 -38.93235,-48.00085" speed="36.11111111111111" width="2.8481341330773025"/>
		<lane allow="moped bicycle pedestrian custom1 trailer evehicle rail_urban ship private truck vip custom2 authority delivery rail_electric taxi tram army hov coach motorcycle passenger bus rail emergency" index="1" length="42.04503365774769" shape="-19.159599999999998,-10.8492 -23.403,-19.404 -27.485149999999997,-28.1874 -31.2258,-36.875600000000006 -34.8798,-45.995900000000006 -36.22585,-49.334450000000004" speed="36.11111111111111" width="2.969358961122754"/>
		<lane allow="moped bicycle pedestrian custom1 trailer evehicle rail_urban ship private truck vip custom2 authority delivery rail_electric taxi tram army hov coach motorcycle passenger bus rail emergency" index="2" length="42.04503365774769" shape="-16.51155,-12.239149999999999 -20.73435,-20.9191 -24.7847,-29.6414 -28.55625,-38.3292 -32.0511,-47.128550000000004 -33.463800000000006,-50.6954" speed="36.11111111111111" width="2.9622015478356594"/>
	</edge>
	<edge from="4" function="normal" id="3604" length="15.837809304392046" numLanes="1" priority="1" speed="36.11111111111111" spreadType="center" to="11">
		<lane allow="moped bicycle pedestrian custom1 trailer evehicle rail_urban ship private vip custom2 authority delivery rail_electric taxi tram army hov coach motorcycle passenger rail emergency" index="0" length="15.837809304392046" shape="-6.163600000000001,30.13635 -7.20585,28.86225 -8.4646,27.3104 -9.852599999999999,25.91415 -11.733,24.678849999999997 -13.4342,24.09505 -15.2304,23.89735 -17.152099999999997,24.11685 -19.4681,24.86905" speed="36.11111111111111" width="3.843390931196046"/>
	</edge>
	<edge from="11" function="normal" id="3487" length="21.428343053831988" numLanes="3" priority="1" speed="36.11111111111111" spreadType="center" to="12">
		<lane allow="moped bicycle pedestrian custom1 trailer evehicle rail_urban ship private truck vip custom2 authority delivery rail_electric taxi tram army hov coach motorcycle passenger bus rail emergency" index="0" length="21.428343053831988" shape="-19.4681,24.86905 -28.681600000000003,29.30845 -37.5185,34.12715 -38.514849999999996,34.672349999999994" speed="36.11111111111111" width="4.576431161942677"/>
		<lane allow="moped bicycle pedestrian custom1 trailer evehicle rail_urban ship private truck vip custom2 authority delivery rail_electric taxi tram army hov coach motorcycle passenger bus rail emergency" index="1" length="21.428343053831988" shape="-21.1854,20.415100000000002 -30.575850000000003,25.45715 -39.222300000000004,30.62715 -40.24925,31.2436" speed="36.11111111111111" width="3.1084813092569807"/>
		<lane allow="moped bicycle pedestrian custom1 trailer evehicle rail_urban ship private truck vip custom2 authority delivery rail_electric taxi tram army hov coach motorcycle passenger bus rail emergency" index="2" length="21.428343053831988" shape="-22.3211,17.184 -32.1028,22.431649999999998 -40.74925,27.60165 -41.778850000000006,28.219749999999998" speed="36.11111111111111" width="3.664585112942528"/>
	</edge>
	<edge from="13" function="normal" id="3479" length="22.651817425696017" numLanes="3" priority="1" speed="36.11111111111111" spreadType="center" to="14">
		<lane allow="moped bicycle pedestrian custom1 trailer evehicle rail_urban ship private truck vip custom2 authority delivery rail_electric taxi tram army hov coach motorcycle passenger bus rail emergency" index="0" length="22.651817425696017" shape="-46.64215,18.605449999999998 -45.4996,18.027549999999998 -35.9196,13.2752 -26.309150000000002,8.49165" speed="36.11111111111111" width="3.231198096681789"/>
		<lane allow="moped bicycle pedestrian custom1 trailer evehicle rail_urban ship private truck vip custom2 authority delivery rail_electric taxi tram army hov coach motorcycle passenger rail emergency" index="1" length="22.651817425696017" shape="-45.23065,21.39585 -44.06885,20.80815 -34.48885,16.055799999999998 -24.878349999999998,11.27225" speed="36.11111111111111" width="3.022973122606284"/>
		<lane allow="moped bicycle pedestrian custom1 trailer evehicle rail_urban ship private truck vip custom2 authority delivery rail_electric taxi tram army hov coach motorcycle passenger rail emergency" index="2" length="22.651817425696017" shape="-43.8581,24.10925 -42.662499999999994,23.50445 -33.082499999999996,18.7521 -23.5716,14.031500000000001" speed="36.11111111111111" width="3.058616492795397"/>
	</edge>
	<edge from="14" function="normal" id="3672" length="43.42964317851892" numLanes="1" priority="1" speed="36.11111111111111" spreadType="center" to="15">
		<lane allow="moped bicycle pedestrian custom1 trailer evehicle rail_urban ship private vip custom2 authority delivery rail_electric taxi tram army hov coach motorcycle passenger rail emergency" index="0" length="43.42964317851892" shape="-23.5716,14.031500000000001 -18.4144,11.491150000000001 -14.8316,10.00665 -10.98575,8.648 -8.20505,7.6777 -5.7191,7.18085 -3.48425,6.968450000000001 -1.14805,7.08545 0.49645000000000006,7.21985 1.6059,7.4761 2.54565,8.0591 3.4649,9.4093 4.6206,11.33765 7.28805,15.575099999999999 8.8618,18.626849999999997 10.333549999999999,21.739" speed="36.11111111111111" width="2.91718217634758"/>
	</edge>
	<edge from="15" function="normal" id="3456" length="24.710920579823167" numLanes="3" priority="1" speed="36.11111111111111" spreadType="center" to="16">
		<lane allow="moped bicycle pedestrian custom1 trailer evehicle rail_urban ship private truck vip custom2 authority delivery rail_electric taxi tram army hov coach motorcycle passenger bus rail emergency" index="0" length="24.710920579823167" shape="15.860199999999999,18.9793 19.456,26.1729 23.309350000000002,34.09 26.671999999999997,41.1984" speed="36.11111111111111" width="3.0476685974692166"/>
		<lane allow="moped bicycle pedestrian custom1 trailer evehicle rail_urban ship private truck vip custom2 authority delivery rail_electric taxi tram army hov coach motorcycle passenger bus rail emergency" index="1" length="24.710920579823167" shape="13.03135,20.37355 16.89145,27.94045 20.569699999999997,35.50605 24.00855,42.536500000000004" speed="36.11111111111111" width="2.9148241130469628"/>
		<lane allow="moped bicycle pedestrian custom1 trailer evehicle rail_urban ship private truck vip custom2 authority delivery rail_electric taxi tram army hov coach motorcycle passenger bus rail emergency" index="2" length="24.710920579823167" shape="10.333549999999999,21.739 14.26205,29.501199999999997 18.0505,37.20375 21.42205,43.850350000000006" speed="36.11111111111111" width="2.888004380190582"/>
	</edge>
	<edge from="16" function="normal" id="3462" length="8.466645302154799" numLanes="3" priority="1" speed="36.11111111111111" spreadType="center" to="17">
		<lane allow="moped bicycle pedestrian custom1 trailer evehicle rail_urban ship private truck vip custom2 authority delivery rail_electric taxi tram army hov coach motorcycle passenger bus rail emergency" index="0" length="8.466645302154799" shape="26.671999999999997,41.1984 30.551299999999998,48.76115" speed="36.11111111111111" width="3.0476685974692166"/>
		<lane allow="moped bicycle pedestrian custom1 trailer evehicle rail_urban ship private truck vip custom2 authority delivery rail_electric taxi tram army hov coach motorcycle passenger bus rail emergency" index="1" length="8.466645302154799" shape="24.00855,42.536500000000004 27.82665,50.1462" speed="36.11111111111111" width="2.9148241130469628"/>
		<lane allow="moped bicycle pedestrian custom1 trailer evehicle rail_urban ship private truck vip custom2 authority delivery rail_electric taxi tram army hov coach motorcycle passenger bus rail emergency" index="2" length="8.466645302154799" shape="21.42205,43.850350000000006 25.1627,51.44585" speed="36.11111111111111" width="2.888004380190582"/>
	</edge>
	<edge from="17" function="normal" id="3470" length="7.644506528383637" numLanes="3" priority="1" speed="36.11111111111111" spreadType="center" to="18">
		<lane allow="moped bicycle pedestrian custom1 trailer evehicle rail_urban ship private truck vip custom2 authority delivery rail_electric taxi tram army hov coach motorcycle passenger bus rail emergency" index="0" length="7.644506528383637" shape="30.551299999999998,48.76115 33.9427,55.6122" speed="36.11111111111111" width="3.0549991620293495"/>
		<lane allow="moped bicycle pedestrian custom1 trailer evehicle rail_urban ship private truck vip custom2 authority delivery rail_electric taxi tram army hov coach motorcycle passenger bus rail emergency" index="1" length="7.644506528383637" shape="27.82665,50.1462 31.24215,56.99855" speed="36.11111111111111" width="2.998011102381041"/>
		<lane allow="moped bicycle pedestrian custom1 trailer evehicle rail_urban ship private truck vip custom2 authority delivery rail_electric taxi tram army hov coach motorcycle passenger bus rail emergency" index="2" length="7.644506528383637" shape="25.1627,51.44585 28.56465,58.3731" speed="36.11111111111111" width="2.9350875710956243"/>
	</edge>
	<edge from="14" function="normal" id="3636" length="10.130444963203736" numLanes="2" priority="1" speed="36.11111111111111" spreadType="center" to="19">
		<lane allow="moped bicycle pedestrian custom1 trailer evehicle rail_urban ship private truck vip custom2 authority delivery rail_electric taxi tram army hov coach motorcycle passenger bus rail emergency" index="0" length="10.130444963203736" shape="-26.309150000000002,8.49165 -17.29805,3.8063000000000002" speed="36.11111111111111" width="3.2321866189934023"/>
		<lane allow="moped bicycle pedestrian custom1 trailer evehicle rail_urban ship private truck vip custom2 authority delivery rail_electric taxi tram army hov coach motorcycle passenger bus rail emergency" index="1" length="10.130444963203736" shape="-24.878349999999998,11.27225 -15.85365,6.67" speed="36.11111111111111" width="3.0254656269738063"/>
	</edge>
	<edge from="19" function="normal" id="3658" length="24.834013362889845" numLanes="2" priority="1" speed="36.11111111111111" spreadType="center" to="20">
		<lane allow="moped bicycle pedestrian custom1 trailer evehicle rail_urban ship private truck vip custom2 authority delivery rail_electric taxi tram army hov coach motorcycle passenger bus rail emergency" index="0" length="24.834013362889845" shape="-17.29805,3.8063000000000002 -14.402249999999999,2.3004000000000002 -11.746749999999999,0.91965 -9.029800000000002,-0.49305 -6.041499999999999,-2.04695 -3.3398499999999998,-3.45185 -0.6951499999999999,-4.827 2.0204,-6.239 4.7921499999999995,-7.68025" speed="36.11111111111111" width="3.3089087884074404"/>
		<lane allow="moped bicycle pedestrian custom1 trailer evehicle rail_urban ship private truck vip custom2 authority delivery rail_electric taxi tram army hov coach motorcycle passenger bus rail emergency" index="1" length="24.834013362889845" shape="-15.85365,6.67 -12.98565,5.2074 -10.31465,3.84535 -7.576350000000001,2.449 -4.61175,0.93725 -1.9013,-0.44499999999999995 0.74865,-1.79625 3.4831000000000003,-3.19055 6.2699,-4.6117" speed="36.11111111111111" width="3.1057834261261688"/>
	</edge>
	<edge from="20" function="normal" id="3676" length="16.155928389455166" numLanes="2" priority="1" speed="36.11111111111111" spreadType="center" to="5">
		<lane allow="moped bicycle pedestrian custom1 trailer evehicle rail_urban ship private truck vip custom2 authority delivery rail_electric taxi tram army hov coach motorcycle passenger bus rail emergency" index="0" length="16.155928389455166" shape="4.7921499999999995,-7.68025 10.81185,-10.686499999999999 19.2459,-14.898499999999999" speed="36.11111111111111" width="3.5034549033775213"/>
		<lane allow="moped bicycle pedestrian custom1 trailer evehicle rail_urban ship private truck vip custom2 authority delivery rail_electric taxi tram army hov coach motorcycle passenger bus rail emergency" index="1" length="16.155928389455166" shape="6.2699,-4.6117 12.29455,-7.5969999999999995 20.790750000000003,-11.806899999999999" speed="36.11111111111111" width="3.3082245268421553"/>
	</edge>
	<edge from="14" function="normal" id="3600" length="24.197467511365538" numLanes="1" priority="1" speed="36.11111111111111" spreadType="center" to="9">
		<lane allow="moped bicycle pedestrian custom1 trailer evehicle rail_urban ship private vip custom2 authority delivery rail_electric taxi tram army hov coach motorcycle passenger rail emergency" index="0" length="24.197467511365538" shape="-26.309150000000002,8.49165 -21.82085,6.0967 -19.827849999999998,4.9066 -18.224800000000002,3.996 -17.4817,3.51605 -17.0576,2.9284499999999998 -17.0218,2.1215 -17.429000000000002,0.7099 -18.2299,-1.25625 -19.21035,-3.3546 -22.00325,-9.35655" speed="36.11111111111111" width="3.2321866189934023"/>
	</edge>
	<edge from="21" function="normal" id="3502" length="11.539017429977406" numLanes="2" priority="1" speed="36.11111111111111" spreadType="center" to="22">
		<lane allow="moped bicycle pedestrian custom1 trailer evehicle rail_urban ship private truck vip custom2 authority delivery rail_electric taxi tram army hov coach motorcycle passenger bus rail emergency" index="0" length="11.539017429977406" shape="38.95985,-9.2613 33.91015,-6.7929 28.56575,-4.180350000000001" speed="36.11111111111111" width="3.607231317783766"/>
		<lane allow="moped bicycle pedestrian custom1 trailer evehicle rail_urban ship private truck vip custom2 authority delivery rail_electric taxi tram army hov coach motorcycle passenger bus rail emergency" index="1" length="11.539017429977406" shape="37.35525,-12.527149999999999 32.37965,-10.0945 26.988799999999998,-7.4590499999999995" speed="36.11111111111111" width="3.63079149773159"/>
	</edge>
	<edge from="22" function="normal" id="3528" length="6.57557739613032" numLanes="3" priority="1" speed="36.11111111111111" spreadType="center" to="23">
		<lane allow="moped bicycle pedestrian custom1 trailer evehicle rail_urban ship private truck vip custom2 authority delivery rail_electric taxi tram army hov coach motorcycle passenger bus rail emergency" index="0" length="6.57557739613032" shape="28.56575,-4.180350000000001 24.1429,1.8415" speed="36.11111111111111" width="3.245737241367514"/>
		<lane allow="moped bicycle pedestrian custom1 trailer evehicle rail_urban ship private truck vip custom2 authority delivery rail_electric taxi tram army hov coach motorcycle passenger bus rail emergency" index="1" length="6.57557739613032" shape="28.56575,-4.180350000000001 22.653750000000002,-1.24035" speed="36.11111111111111" width="3.6024336135451547"/>
		<lane allow="moped bicycle pedestrian custom1 trailer evehicle rail_urban ship private truck vip custom2 authority delivery rail_electric taxi tram army hov coach motorcycle passenger bus rail emergency" index="2" length="6.57557739613032" shape="26.988799999999998,-7.4590499999999995 21.100749999999998,-4.531750000000001" speed="36.11111111111111" width="3.671307975367906"/>
	</edge>
	<edge from="23" function="normal" id="3534" length="6.6083636571393365" numLanes="3" priority="1" speed="36.11111111111111" spreadType="center" to="24">
		<lane allow="moped bicycle pedestrian custom1 trailer evehicle rail_urban ship private truck vip custom2 authority delivery rail_electric taxi tram army hov coach motorcycle passenger bus rail emergency" index="0" length="6.6083636571393365" shape="24.1429,1.8415 18.16335,4.73095" speed="36.11111111111111" width="3.190167196245363"/>
		<lane allow="moped bicycle pedestrian custom1 trailer evehicle rail_urban ship private truck vip custom2 authority delivery rail_electric taxi tram army hov coach motorcycle passenger bus rail emergency" index="1" length="6.6083636571393365" shape="22.653750000000002,-1.24035 16.7136,1.7044" speed="36.11111111111111" width="3.521568769738851"/>
		<lane allow="moped bicycle pedestrian custom1 trailer evehicle rail_urban ship private truck vip custom2 authority delivery rail_electric taxi tram army hov coach motorcycle passenger bus rail emergency" index="2" length="6.6083636571393365" shape="21.100749999999998,-4.531750000000001 15.1907,-1.5751000000000002" speed="36.11111111111111" width="3.6773714878973003"/>
	</edge>