<!-- generated on 2020-12-18 15:57:59.499730 by ipykernel_launcher.py v1_2_0+5214-53edc58fcd
-->
<nodes>
	<node id="1" type="from" x="20.45284" y="62.537400000000005"/>
	<node id="2" type="to" x="16.98585" y="55.55196000000001"/>
	<node id="3" type="to" x="11.811691666666666" y="48.63638333333333"/>
	<node id="4" type="to" x="0.8154749999999998" y="26.540408333333332"/>
	<node id="5" type="to" x="20.018325" y="-13.352699999999999"/>
	<node id="6" type="to" x="32.85531666666666" y="-21.685783333333333"/>
	<node id="7" type="to" x="-6.5166" y="15.018466666666667"/>
	<node id="8" type="to" x="-13.8429" y="0.1242833333333333"/>
	<node id="9" type="to" x="-19.2248" y="-10.814966666666669"/>
	<node id="10" type="to" x="-36.20733333333333" y="-49.34356666666667"/>
	<node id="11" type="to" x="-19.4681" y="24.86905"/>
	<node id="12" type="to" x="-40.18098333333334" y="31.37856666666666"/>
	<node id="13" type="from" x="-45.24363333333333" y="21.370183333333333"/>
	<node id="14" type="to" x="-24.919700000000002" y="11.265133333333333"/>
	<node id="15" type="to" x="10.333549999999999" y="21.739"/>
	<node id="16" type="to" x="24.0342" y="42.52841666666667"/>
	<node id="17" type="to" x="27.846883333333334" y="50.11773333333334"/>
	<node id="18" type="to" x="31.24983333333333" y="56.994616666666666"/>
	<node id="19" type="to" x="-16.57585" y="5.23815"/>
	<node id="20" type="to" x="5.531025" y="-6.145975"/>
	<node id="21" type="from" x="38.15755" y="-10.894224999999999"/>
	<node id="22" type="to" x="27.777275" y="-5.8197"/>
	<node id="23" type="to" x="22.63246666666667" y="-1.3102000000000003"/>
	<node id="24" type="to" x="16.689216666666667" y="1.6200833333333333"/>
	<node id="25" type="to" x="9.959675" y="3.05025"/>
	<node id="26" type="to" x="-12.1277" y="14.056149999999999"/>
	<node id="27" type="from" x="-23.82776" y="-55.44334"/>
	<node id="28" type="to" x="-5.2143999999999995" y="-18.181859999999997"/>
	<node id="29" type="to" x="-0.06491666666666651" y="-7.1079333333333325"/>
	<node id="30" type="to" x="7.295099999999999" y="8.267566666666665"/>
</nodes>
