<?xml version="1.0" encoding="UTF-8"?>

<!-- generated on Fri Dec 18 15:57:59 2020 by Eclipse SUMO netconvert Version 1.8.0
<configuration xmlns:xsi="http://www.w3.org/2001/XMLSchema-instance" xsi:noNamespaceSchemaLocation="http://sumo.dlr.de/xsd/netconvertConfiguration.xsd">

    <input>
        <node-files value="./converted_scenarios/NGSIM/Lankershim/USA_Lanker-1_12_I-1-1/nodes.net.xml"/>
        <edge-files value="./converted_scenarios/NGSIM/Lankershim/USA_Lanker-1_12_I-1-1/edges.net.xml"/>
        <connection-files value="./converted_scenarios/NGSIM/Lankershim/USA_Lanker-1_12_I-1-1/_connections.net.xml"/>
        <tllogic-files value="./converted_scenarios/NGSIM/Lankershim/USA_Lanker-1_12_I-1-1/_tll.net.xml"/>
    </input>

    <output>
        <output-file value="./converted_scenarios/NGSIM/Lankershim/USA_Lanker-1_12_I-1-1/USA_Lanker-1_12_I-1-1.net.xml"/>
    </output>

    <processing>
        <plain.extend-edge-shape value="true"/>
        <geometry.remove.keep-edges.explicit value="true"/>
        <geometry.avoid-overlap value="true"/>
        <offset.disable-normalization value="true"/>
    </processing>

    <junctions>
        <no-turnarounds value="true"/>
        <junctions.internal-link-detail value="20"/>
    </junctions>

    <report>
        <aggregate-warnings value="5"/>
    </report>

    <random_number>
        <seed value="1234"/>
    </random_number>

</configuration>
-->

<net version="1.6" junctionCornerDetail="5" junctionLinkDetail="20" limitTurnSpeed="5.50" xmlns:xsi="http://www.w3.org/2001/XMLSchema-instance" xsi:noNamespaceSchemaLocation="http://sumo.dlr.de/xsd/net_file.xsd">

    <location netOffset="0.00,0.00" convBoundary="-45.24,-55.44,38.16,62.54" origBoundary="-46.64,-58.17,38.96,65.29" projParameter="!"/>

    <edge id=":11_0" function="internal">
        <lane id=":11_0_0" index="0" disallow="bus truck rail_fast" speed="36.11" length="8.30" width="4.58" shape="-26.58,27.18 -18.72,24.51"/>
    </edge>
    <edge id=":11_1" function="internal">
        <lane id=":11_1_0" index="0" disallow="rail_fast" speed="36.11" length="1.01" width="3.11" shape="-19.63,19.65 -20.56,20.08"/>
        <lane id=":11_1_1" index="1" disallow="rail_fast" speed="36.11" length="1.01" width="3.66" shape="-20.96,16.51 -21.87,16.94"/>
    </edge>
    <edge id=":14_0" function="internal">
        <lane id=":14_0_0" index="0" disallow="bus truck rail_fast" speed="7.94" length="13.70" width="3.23" shape="-27.98,9.33 -26.76,8.71 -25.61,8.13 -24.53,7.56 -23.52,7.03 -22.58,6.52 -21.71,6.03 -20.90,5.57 -20.17,5.14 -19.51,4.73 -18.91,4.34 -18.39,3.99 -17.93,3.65 -17.55,3.34 -17.23,3.06 -16.98,2.80 -16.81,2.57 -16.70,2.37 -16.66,2.18 -16.70,2.03"/>
    </edge>
    <edge id=":14_1" function="internal">
        <lane id=":14_1_0" index="0" disallow="rail_fast" speed="36.11" length="13.45" width="3.23" shape="-27.98,9.33 -16.05,3.16"/>
        <lane id=":14_1_1" index="1" disallow="bus rail_fast" speed="36.11" length="13.45" width="3.03" shape="-26.60,12.13 -14.59,6.02"/>
    </edge>
    <edge id=":14_3" function="internal">
        <lane id=":14_3_0" index="0" disallow="bus truck rail_fast" speed="36.11" length="2.11" width="2.92" shape="-25.24,14.86 -27.14,15.79"/>
    </edge>
    <edge id=":15_0" function="internal">
        <lane id=":15_0_0" index="0" disallow="bus truck rail_fast" speed="9.12" length="13.80" width="3.05" shape="15.49,6.89 15.12,7.31 14.80,7.77 14.52,8.25 14.29,8.77 14.10,9.31 13.96,9.87 13.87,10.47 13.82,11.10 13.82,11.75 13.86,12.43 13.95,13.14 14.08,13.88 14.26,14.65 14.48,15.44 14.75,16.26 15.07,17.12 15.43,17.99 15.84,18.90 16.29,19.84"/>
    </edge>
    <edge id=":15_1" function="internal">
        <lane id=":15_1_0" index="0" disallow="rail_fast" speed="36.11" length="13.06" width="3.05" shape="10.65,8.11 16.29,19.84"/>
        <lane id=":15_1_1" index="1" disallow="rail_fast" speed="36.11" length="13.06" width="2.91" shape="7.83,9.46 13.48,21.25"/>
        <lane id=":15_1_2" index="2" disallow="rail_fast" speed="36.11" length="13.06" width="2.89" shape="5.10,10.78 10.77,22.60"/>
    </edge>
    <edge id=":15_4" function="internal">
        <lane id=":15_4_0" index="0" disallow="bus truck rail_fast" speed="36.11" length="13.55" width="2.89" shape="4.25,10.72 10.77,22.60"/>
    </edge>
    <edge id=":16_0" function="internal">
        <lane id=":16_0_0" index="0" disallow="rail_fast" speed="36.11" length="0.24" width="3.05" shape="26.62,41.09 26.73,41.30"/>
        <lane id=":16_0_1" index="1" disallow="rail_fast" speed="36.11" length="0.24" width="2.91" shape="23.96,42.43 24.06,42.64"/>
        <lane id=":16_0_2" index="2" disallow="rail_fast" speed="36.11" length="0.24" width="2.89" shape="21.36,43.73 21.47,43.95"/>
    </edge>
    <edge id=":17_0" function="internal">
        <lane id=":17_0_0" index="0" disallow="rail_fast" speed="36.11" length="3.05" width="3.05" shape="29.84,47.38 31.22,50.11"/>
        <lane id=":17_0_1" index="1" disallow="rail_fast" speed="36.11" length="3.05" width="3.00" shape="27.12,48.74 28.48,51.46"/>
        <lane id=":17_0_2" index="2" disallow="rail_fast" speed="36.11" length="3.05" width="2.94" shape="24.48,50.06 25.82,52.78"/>
    </edge>
    <edge id=":19_0" function="internal">
        <lane id=":19_0_0" index="0" disallow="rail_fast" speed="36.11" length="0.12" width="3.31" shape="-15.88,3.07 -15.98,3.12"/>
        <lane id=":19_0_1" index="1" disallow="rail_fast" speed="36.11" length="0.12" width="3.11" shape="-14.41,5.93 -14.52,5.99"/>
    </edge>
    <edge id=":2_0" function="internal">
        <lane id=":2_0_0" index="0" disallow="rail_fast" speed="21.97" length="7.43" width="2.94" shape="12.74,60.63 12.48,60.13 12.24,59.68 12.02,59.29 11.81,58.93 11.61,58.61 11.42,58.32 11.23,58.06 11.03,57.81 10.84,57.58 10.63,57.36 10.42,57.15 10.19,56.93 9.95,56.71 9.68,56.47 9.40,56.21 9.08,55.93 8.74,55.63 8.37,55.28 7.96,54.90"/>
        <lane id=":2_0_1" index="1" disallow="rail_fast" speed="36.11" length="7.43" width="2.94" shape="12.74,60.63 9.43,54.07"/>
        <lane id=":2_0_2" index="2" disallow="rail_fast" speed="36.11" length="7.43" width="3.05" shape="15.40,59.28 12.07,52.57"/>
        <lane id=":2_0_3" index="3" disallow="rail_fast" speed="36.11" length="7.43" width="3.03" shape="18.13,57.90 14.73,51.06"/>
        <lane id=":2_0_4" index="4" disallow="rail_fast" speed="36.11" length="7.43" width="3.05" shape="20.86,56.53 17.39,49.55"/>
        <lane id=":2_0_5" index="5" disallow="rail_fast" speed="36.11" length="7.43" width="3.12" shape="23.61,55.14 20.62,49.07"/>
    </edge>
    <edge id=":20_0" function="internal">
        <lane id=":20_0_0" index="0" disallow="rail_fast" speed="36.11" length="3.06" width="3.50" shape="3.39,-6.95 6.13,-8.35"/>
        <lane id=":20_0_1" index="1" disallow="rail_fast" speed="36.11" length="3.06" width="3.31" shape="4.90,-3.91 7.63,-5.28"/>
    </edge>
    <edge id=":22_0" function="internal">
        <lane id=":22_0_0" index="0" disallow="rail_fast" speed="14.45" length="8.28" width="3.25" shape="32.21,-5.96 31.67,-5.70 31.18,-5.45 30.74,-5.23 30.34,-5.02 29.98,-4.82 29.65,-4.62 29.35,-4.43 29.07,-4.23 28.81,-4.03 28.56,-3.82 28.32,-3.59 28.08,-3.35 27.84,-3.08 27.59,-2.79 27.33,-2.47 27.06,-2.11 26.76,-1.71 26.43,-1.27 26.07,-0.79"/>
        <lane id=":22_0_1" index="1" disallow="rail_fast" speed="36.11" length="8.28" width="3.60" shape="32.21,-5.96 24.98,-2.40"/>
        <lane id=":22_0_2" index="2" disallow="rail_fast" speed="36.11" length="8.28" width="3.67" shape="30.63,-9.24 22.92,-5.44"/>
    </edge>
    <edge id=":23_0" function="internal">
        <lane id=":23_0_0" index="0" disallow="rail_fast" speed="9.74" length="3.41" width="3.19" shape="24.74,1.03 24.57,1.25 24.42,1.44 24.28,1.61 24.14,1.75 24.01,1.88 23.88,1.99 23.75,2.09 23.62,2.17 23.49,2.25 23.36,2.31 23.22,2.38 23.08,2.44 22.92,2.50 22.76,2.57 22.58,2.64 22.39,2.72 22.18,2.80 21.95,2.90 21.70,3.02"/>
        <lane id=":23_0_1" index="1" disallow="rail_fast" speed="36.11" length="3.41" width="3.52" shape="23.26,-1.54 20.23,-0.04"/>
        <lane id=":23_0_2" index="2" disallow="rail_fast" speed="36.11" length="3.41" width="3.68" shape="21.45,-4.71 18.65,-3.31"/>
    </edge>
    <edge id=":24_0" function="internal">
        <lane id=":24_0_0" index="0" disallow="bus truck rail_fast" speed="14.27" length="3.68" width="2.93" shape="19.08,4.29 18.83,4.41 18.61,4.51 18.40,4.61 18.22,4.69 18.05,4.77 17.89,4.84 17.74,4.92 17.61,4.99 17.48,5.06 17.35,5.13 17.23,5.21 17.11,5.30 16.98,5.40 16.85,5.51 16.71,5.63 16.56,5.77 16.40,5.93 16.23,6.10 16.04,6.30"/>
    </edge>
    <edge id=":24_1" function="internal">
        <lane id=":24_1_0" index="0" disallow="rail_fast" speed="36.11" length="11.27" width="3.46" shape="17.63,1.25 7.54,6.25"/>
        <lane id=":24_1_1" index="1" disallow="rail_fast" speed="36.11" length="11.27" width="3.70" shape="16.06,-2.01 5.98,3.04"/>
    </edge>
    <edge id=":24_3" function="internal">
        <lane id=":24_3_0" index="0" disallow="bus truck rail_fast" speed="17.55" length="16.88" width="3.01" shape="16.06,-2.01 14.92,-1.46 13.83,-0.96 12.80,-0.51 11.81,-0.12 10.86,0.23 9.95,0.52 9.08,0.78 8.23,0.99 7.42,1.16 6.62,1.29 5.85,1.40 5.08,1.47 4.33,1.51 3.59,1.52 2.84,1.52 2.10,1.49 1.34,1.44 0.58,1.38 -0.20,1.30"/>
    </edge>
    <edge id=":25_0" function="internal">
        <lane id=":25_0_0" index="0" disallow="rail_fast" speed="36.11" length="2.24" width="3.21" shape="7.36,6.33 9.37,5.34"/>
        <lane id=":25_0_1" index="1" disallow="rail_fast" speed="36.11" length="2.24" width="3.68" shape="5.80,3.13 7.80,2.13"/>
    </edge>
    <edge id=":26_0" function="internal">
        <lane id=":26_0_0" index="0" disallow="rail_fast" speed="36.11" length="14.96" width="3.17" shape="-0.30,10.13 -13.72,16.75"/>
        <lane id=":26_0_1" index="1" disallow="rail_fast" speed="36.11" length="14.96" width="3.68" shape="-1.88,6.98 -15.25,13.68"/>
    </edge>
    <edge id=":26_2" function="internal">
        <lane id=":26_2_0" index="0" disallow="bus truck rail_fast" speed="11.28" length="15.17" width="3.68" shape="-6.41,2.10 -6.57,2.92 -6.76,3.71 -6.99,4.48 -7.26,5.23 -7.55,5.96 -7.88,6.66 -8.25,7.34 -8.65,8.00 -9.08,8.63 -9.54,9.24 -10.04,9.82 -10.57,10.39 -11.14,10.93 -11.74,11.44 -12.37,11.94 -13.04,12.41 -13.74,12.86 -14.48,13.28 -15.25,13.68"/>
    </edge>
    <edge id=":28_0" function="internal">
        <lane id=":28_0_0" index="0" disallow="bus truck rail_fast" speed="10.22" length="10.24" width="3.11" shape="-0.42,-22.97 -0.18,-22.57 0.08,-22.18 0.36,-21.80 0.66,-21.44 0.99,-21.09 1.33,-20.75 1.71,-20.43 2.10,-20.11 2.51,-19.81 2.95,-19.53 3.41,-19.26 3.90,-18.99 4.40,-18.75 4.93,-18.51 5.48,-18.29 6.05,-18.08 6.65,-17.89 7.27,-17.70 7.91,-17.54"/>
    </edge>
    <edge id=":28_1" function="internal">
        <lane id=":28_1_0" index="0" disallow="bus truck rail_fast" speed="11.58" length="11.05" width="3.13" shape="-3.47,-21.37 -3.11,-20.66 -2.76,-20.02 -2.44,-19.45 -2.12,-18.94 -1.80,-18.49 -1.48,-18.09 -1.16,-17.73 -0.83,-17.41 -0.48,-17.13 -0.12,-16.86 0.27,-16.62 0.68,-16.40 1.13,-16.18 1.62,-15.96 2.15,-15.74 2.73,-15.51 3.36,-15.26 4.04,-14.99 4.79,-14.70"/>
    </edge>
    <edge id=":28_2" function="internal">
        <lane id=":28_2_0" index="0" disallow="rail_fast" speed="36.11" length="10.45" width="3.12" shape="-3.47,-21.37 1.10,-11.81"/>
        <lane id=":28_2_1" index="1" disallow="rail_fast" speed="36.11" length="10.45" width="3.06" shape="-6.20,-19.93 -1.70,-10.50"/>
        <lane id=":28_2_2" index="2" disallow="rail_fast" speed="36.11" length="10.45" width="2.98" shape="-8.90,-18.51 -4.44,-9.21"/>
    </edge>
    <edge id=":28_5" function="internal">
        <lane id=":28_5_0" index="0" disallow="bus truck rail_fast" speed="36.11" length="10.20" width="2.87" shape="-11.58,-17.10 -11.25,-16.42 -10.94,-15.80 -10.66,-15.24 -10.41,-14.73 -10.18,-14.26 -9.96,-13.83 -9.77,-13.43 -9.58,-13.04 -9.41,-12.67 -9.24,-12.30 -9.08,-11.92 -8.91,-11.53 -8.75,-11.12 -8.58,-10.68 -8.40,-10.20 -8.20,-9.68 -8.00,-9.10 -7.77,-8.46 -7.52,-7.76"/>
    </edge>
    <edge id=":29_0" function="internal">
        <lane id=":29_0_0" index="0" disallow="rail_fast" speed="36.11" length="3.22" width="3.12" shape="1.98,-9.95 3.36,-7.05"/>
        <lane id=":29_0_1" index="1" disallow="rail_fast" speed="36.11" length="3.22" width="3.06" shape="-0.78,-8.55 0.61,-5.65"/>
        <lane id=":29_0_2" index="2" disallow="rail_fast" speed="36.11" length="3.22" width="2.95" shape="-3.47,-7.19 -2.08,-4.28"/>
    </edge>
    <edge id=":3_0" function="internal">
        <lane id=":3_0_0" index="0" disallow="rail_fast" speed="15.71" length="3.50" width="3.22" shape="7.58,54.54 7.37,54.36 7.18,54.19 7.00,54.05 6.83,53.93 6.67,53.82 6.52,53.73 6.37,53.64 6.24,53.55 6.11,53.47 5.98,53.39 5.86,53.30 5.74,53.20 5.62,53.09 5.50,52.97 5.38,52.83 5.26,52.67 5.14,52.49 5.02,52.27 4.89,52.03"/>
        <lane id=":3_0_1" index="1" disallow="rail_fast" speed="36.11" length="3.50" width="2.87" shape="9.24,53.69 7.72,50.67"/>
        <lane id=":3_0_2" index="2" disallow="rail_fast" speed="36.11" length="3.50" width="3.00" shape="11.93,52.30 10.46,49.34"/>
        <lane id=":3_0_3" index="3" disallow="rail_fast" speed="36.11" length="3.50" width="3.02" shape="14.65,50.90 13.20,47.99"/>
        <lane id=":3_0_4" index="4" disallow="rail_fast" speed="36.11" length="3.50" width="3.02" shape="17.34,49.46 15.91,46.61"/>
        <lane id=":3_0_5" index="5" disallow="rail_fast" speed="36.11" length="3.50" width="3.03" shape="20.53,48.89 18.70,45.20"/>
    </edge>
    <edge id=":30_0" function="internal">
        <lane id=":30_0_0" index="0" disallow="rail_fast" speed="36.11" length="2.64" width="3.14" shape="9.41,5.54 10.56,7.93"/>
        <lane id=":30_0_1" index="1" disallow="rail_fast" speed="36.11" length="2.64" width="3.10" shape="6.61,6.90 7.74,9.28"/>
        <lane id=":30_0_2" index="2" disallow="rail_fast" speed="36.11" length="2.64" width="2.93" shape="3.88,8.22 5.02,10.60"/>
    </edge>
    <edge id=":4_0" function="internal">
        <lane id=":4_0_0" index="0" disallow="bus truck rail_fast" speed="36.11" length="5.96" width="3.84" shape="-4.37,33.62 -4.58,33.22 -4.76,32.86 -4.92,32.53 -5.07,32.24 -5.20,31.97 -5.32,31.72 -5.44,31.49 -5.55,31.27 -5.67,31.06 -5.79,30.85 -5.91,30.65 -6.04,30.44 -6.18,30.23 -6.34,30.00 -6.52,29.76 -6.71,29.49 -6.93,29.21 -7.18,28.89 -7.46,28.55"/>
    </edge>
    <edge id=":4_1" function="internal">
        <lane id=":4_1_0" index="0" disallow="rail_fast" speed="36.11" length="6.33" width="2.87" shape="-1.42,32.11 -4.27,26.42"/>
        <lane id=":4_1_1" index="1" disallow="rail_fast" speed="36.11" length="6.33" width="3.02" shape="1.24,30.75 -1.61,25.10"/>
        <lane id=":4_1_2" index="2" disallow="rail_fast" speed="36.11" length="6.33" width="3.12" shape="3.97,29.36 1.17,23.72"/>
    </edge>
    <edge id=":4_4" function="internal">
        <lane id=":4_4_0" index="0" disallow="bus truck rail_fast" speed="36.11" length="6.26" width="2.93" shape="6.71,27.96 3.91,22.36"/>
    </edge>
    <edge id=":4_5" function="internal">
        <lane id=":4_5_0" index="0" disallow="bus truck rail_fast" speed="36.11" length="6.22" width="3.03" shape="9.42,26.58 6.65,21.01"/>
    </edge>
    <edge id=":5_0" function="internal">
        <lane id=":5_0_0" index="0" disallow="bus truck rail_fast" speed="10.83" length="9.96" width="3.88" shape="8.76,-17.32 9.40,-17.16 9.99,-17.02 10.52,-16.90 11.01,-16.80 11.46,-16.71 11.89,-16.65 12.29,-16.61 12.67,-16.59 13.04,-16.60 13.40,-16.63 13.77,-16.69 14.14,-16.77 14.52,-16.88 14.93,-17.01 15.36,-17.18 15.82,-17.37 16.31,-17.60 16.85,-17.85 17.44,-18.14"/>
        <lane id=":5_0_1" index="1" disallow="bus truck rail_fast" speed="12.01" length="9.96" width="3.51" shape="8.64,-13.76 9.41,-13.58 10.11,-13.42 10.76,-13.28 11.35,-13.16 11.89,-13.07 12.40,-13.00 12.89,-12.96 13.34,-12.94 13.79,-12.95 14.23,-12.99 14.66,-13.06 15.11,-13.16 15.57,-13.29 16.05,-13.46 16.57,-13.66 17.12,-13.89 17.72,-14.16 18.37,-14.47 19.08,-14.82"/>
    </edge>
    <edge id=":5_2" function="internal">
        <lane id=":5_2_0" index="0" disallow="bus truck rail_fast" speed="36.11" length="10.89" width="3.51" shape="9.42,-9.72 19.08,-14.82"/>
        <lane id=":5_2_1" index="1" disallow="bus truck rail_fast" speed="36.11" length="10.89" width="3.38" shape="11.16,-6.39 11.83,-6.86 12.43,-7.28 12.97,-7.66 13.47,-7.99 13.93,-8.29 14.35,-8.56 14.76,-8.80 15.15,-9.03 15.53,-9.24 15.91,-9.44 16.29,-9.64 16.70,-9.84 17.12,-10.04 17.58,-10.26 18.08,-10.50 18.62,-10.76 19.22,-11.04 19.88,-11.36 20.61,-11.72"/>
    </edge>
    <edge id=":5_4" function="internal">
        <lane id=":5_4_0" index="0" disallow="rail_fast" speed="36.11" length="13.99" width="3.51" shape="6.56,-8.56 19.08,-14.82"/>
        <lane id=":5_4_1" index="1" disallow="rail_fast" speed="36.11" length="13.99" width="3.38" shape="8.08,-5.51 20.61,-11.72"/>
    </edge>
    <edge id=":7_0" function="internal">
        <lane id=":7_0_0" index="0" disallow="rail_fast" speed="36.11" length="3.02" width="3.06" shape="-8.58,17.72 -9.92,15.02"/>
        <lane id=":7_0_1" index="1" disallow="rail_fast" speed="36.11" length="3.02" width="2.99" shape="-5.86,16.39 -7.18,13.67"/>
        <lane id=":7_0_2" index="2" disallow="rail_fast" speed="36.11" length="3.02" width="3.06" shape="-3.10,15.04 -4.43,12.32"/>
    </edge>
    <edge id=":8_0" function="internal">
        <lane id=":8_0_0" index="0" disallow="rail_fast" speed="36.11" length="0.10" width="3.29" shape="-15.89,2.96 -15.91,2.93"/>
        <lane id=":8_0_1" index="1" disallow="rail_fast" speed="36.11" length="0.10" width="2.97" shape="-13.11,1.53 -13.13,1.50"/>
        <lane id=":8_0_2" index="2" disallow="rail_fast" speed="36.11" length="0.10" width="3.01" shape="-10.42,0.15 -10.43,0.12"/>
    </edge>
    <edge id=":9_0" function="internal">
        <lane id=":9_0_0" index="0" disallow="bus rail_fast" speed="36.11" length="15.32" width="2.85" shape="-16.00,2.76 -22.79,-10.98"/>
        <lane id=":9_0_1" index="1" disallow="rail_fast" speed="36.11" length="15.32" width="2.97" shape="-13.21,1.32 -19.95,-12.44"/>
        <lane id=":9_0_2" index="2" disallow="rail_fast" speed="36.11" length="15.32" width="2.96" shape="-10.52,-0.06 -17.27,-13.81"/>
    </edge>
    <edge id=":9_3" function="internal">
        <lane id=":9_3_0" index="0" disallow="bus truck rail_fast" speed="14.99" length="18.43" width="2.96" shape="-5.99,0.24 -6.70,-0.08 -7.39,-0.44 -8.04,-0.84 -8.68,-1.27 -9.29,-1.75 -9.89,-2.27 -10.47,-2.84 -11.04,-3.45 -11.60,-4.12 -12.16,-4.83 -12.71,-5.60 -13.25,-6.41 -13.80,-7.29 -14.36,-8.22 -14.92,-9.21 -15.48,-10.27 -16.07,-11.38 -16.66,-12.56 -17.27,-13.81"/>
    </edge>
    <edge id=":9_4" function="internal">
        <lane id=":9_4_0" index="0" disallow="bus truck rail_fast" speed="36.11" length="14.16" width="2.85" shape="-16.78,1.85 -22.79,-10.98"/>
    </edge>

    <edge id="3431" from="1" to="2" priority="1" spreadType="center" length="7.75">
        <lane id="3431_0" index="0" disallow="rail_fast" speed="36.11" length="7.75" width="2.84" customShape="1" shape="15.04,65.19 12.74,60.63"/>
        <lane id="3431_1" index="1" disallow="rail_fast" speed="36.11" length="7.75" width="3.06" customShape="1" shape="17.72,63.94 15.40,59.28"/>
        <lane id="3431_2" index="2" disallow="rail_fast" speed="36.11" length="7.75" width="3.03" customShape="1" shape="20.43,62.55 18.13,57.90"/>
        <lane id="3431_3" index="3" disallow="rail_fast" speed="36.11" length="7.75" width="3.05" customShape="1" shape="23.17,61.20 20.86,56.53"/>
        <lane id="3431_4" index="4" disallow="rail_fast" speed="36.11" length="7.75" width="3.05" customShape="1" shape="25.92,59.85 23.61,55.14"/>
    </edge>
    <edge id="3438" from="2" to="3" priority="1" spreadType="center" length="8.44">
        <lane id="3438_0" index="0" disallow="rail_fast" speed="36.11" length="8.44" width="2.94" customShape="1" shape="7.96,54.90 7.58,54.54"/>
        <lane id="3438_1" index="1" disallow="rail_fast" speed="36.11" length="8.44" width="2.94" customShape="1" shape="9.43,54.07 9.24,53.69"/>
        <lane id="3438_2" index="2" disallow="rail_fast" speed="36.11" length="8.44" width="3.05" customShape="1" shape="12.07,52.57 11.93,52.30"/>
        <lane id="3438_3" index="3" disallow="rail_fast" speed="36.11" length="8.44" width="3.03" customShape="1" shape="14.73,51.06 14.65,50.90"/>
        <lane id="3438_4" index="4" disallow="rail_fast" speed="36.11" length="8.44" width="3.05" customShape="1" shape="17.39,49.55 17.34,49.46"/>
        <lane id="3438_5" index="5" disallow="rail_fast" speed="36.11" length="8.44" width="3.12" customShape="1" shape="20.62,49.07 20.53,48.89"/>
    </edge>
    <edge id="3450" from="3" to="4" priority="1" spreadType="center" length="24.49">
        <lane id="3450_0" index="0" disallow="rail_fast" speed="36.11" length="24.49" width="3.22" customShape="1" shape="4.89,52.03 1.71,45.77 -2.08,38.08 -4.37,33.62"/>
        <lane id="3450_1" index="1" disallow="rail_fast" speed="36.11" length="24.49" width="2.87" customShape="1" shape="7.72,50.67 4.71,44.62 0.89,36.67 -1.42,32.11"/>
        <lane id="3450_2" index="2" disallow="rail_fast" speed="36.11" length="24.49" width="3.00" customShape="1" shape="10.46,49.34 7.44,43.29 3.59,35.34 1.24,30.75"/>
        <lane id="3450_3" index="3" disallow="rail_fast" speed="36.11" length="24.49" width="3.02" customShape="1" shape="13.20,47.99 10.11,41.84 6.22,33.89 3.97,29.36"/>
        <lane id="3450_4" index="4" disallow="rail_fast" speed="36.11" length="24.49" width="3.02" customShape="1" shape="15.91,46.61 12.80,40.38 8.91,32.43 6.71,27.96"/>
        <lane id="3450_5" index="5" disallow="rail_fast" speed="36.11" length="24.49" width="3.03" customShape="1" shape="18.70,45.20 15.49,38.88 11.61,30.93 9.42,26.58"/>
    </edge>
    <edge id="3456" from="15" to="16" priority="1" spreadType="center" length="24.71">
        <lane id="3456_0" index="0" disallow="rail_fast" speed="36.11" length="24.71" width="3.05" customShape="1" shape="16.29,19.84 19.46,26.17 23.31,34.09 26.62,41.09"/>
        <lane id="3456_1" index="1" disallow="rail_fast" speed="36.11" length="24.71" width="2.91" customShape="1" shape="13.48,21.25 16.89,27.94 20.57,35.51 23.96,42.43"/>
        <lane id="3456_2" index="2" disallow="rail_fast" speed="36.11" length="24.71" width="2.89" customShape="1" shape="10.77,22.60 14.26,29.50 18.05,37.20 21.36,43.73"/>
    </edge>
    <edge id="3462" from="16" to="17" priority="1" spreadType="center" length="8.47">
        <lane id="3462_0" index="0" disallow="rail_fast" speed="36.11" length="8.47" width="3.05" customShape="1" shape="26.73,41.30 29.84,47.38"/>
        <lane id="3462_1" index="1" disallow="rail_fast" speed="36.11" length="8.47" width="2.91" customShape="1" shape="24.06,42.64 27.12,48.74"/>
        <lane id="3462_2" index="2" disallow="rail_fast" speed="36.11" length="8.47" width="2.89" customShape="1" shape="21.47,43.95 24.48,50.06"/>
    </edge>
    <edge id="3470" from="17" to="18" priority="1" spreadType="center" length="7.64">
        <lane id="3470_0" index="0" disallow="rail_fast" speed="36.11" length="7.64" width="3.05" customShape="1" shape="31.22,50.11 33.96,55.65"/>
        <lane id="3470_1" index="1" disallow="rail_fast" speed="36.11" length="7.64" width="3.00" customShape="1" shape="28.48,51.46 31.24,57.00"/>
        <lane id="3470_2" index="2" disallow="rail_fast" speed="36.11" length="7.64" width="2.94" customShape="1" shape="25.82,52.78 28.56,58.37"/>
    </edge>
    <edge id="3479" from="13" to="14" priority="1" spreadType="center" length="22.65">
        <lane id="3479_0" index="0" disallow="rail_fast" speed="36.11" length="22.65" width="3.23" customShape="1" shape="-46.64,18.61 -45.50,18.03 -35.92,13.28 -27.98,9.33"/>
        <lane id="3479_1" index="1" disallow="bus rail_fast" speed="36.11" length="22.65" width="3.02" customShape="1" shape="-45.23,21.40 -44.07,20.81 -34.49,16.06 -26.60,12.13"/>
        <lane id="3479_2" index="2" disallow="bus rail_fast" speed="36.11" length="22.65" width="3.06" customShape="1" shape="-43.86,24.11 -42.66,23.50 -33.08,18.75 -25.24,14.86"/>
    </edge>
    <edge id="3487" from="11" to="12" priority="1" spreadType="center" length="21.43">
        <lane id="3487_0" index="0" disallow="rail_fast" speed="36.11" length="21.43" width="4.58" acceleration="1" customShape="1" shape="-18.72,24.51 -28.68,29.31 -37.52,34.13 -38.41,34.61"/>
        <lane id="3487_1" index="1" disallow="rail_fast" speed="36.11" length="21.43" width="3.11" customShape="1" shape="-20.56,20.08 -30.58,25.46 -39.22,30.63 -40.25,31.25"/>
        <lane id="3487_2" index="2" disallow="rail_fast" speed="36.11" length="21.43" width="3.66" customShape="1" shape="-21.87,16.94 -32.10,22.43 -40.75,27.60 -41.88,28.28"/>
    </edge>
    <edge id="3495" from="5" to="6" priority="1" spreadType="center" length="15.18">
        <lane id="3495_0" index="0" disallow="rail_fast" speed="36.11" length="15.18" width="3.88" customShape="1" shape="17.44,-18.14 26.35,-22.52 31.26,-24.94"/>
        <lane id="3495_1" index="1" disallow="rail_fast" speed="36.11" length="15.18" width="3.51" customShape="1" shape="19.08,-14.82 27.97,-19.19 32.89,-21.61"/>
        <lane id="3495_2" index="2" disallow="rail_fast" speed="36.11" length="15.18" width="3.38" customShape="1" shape="20.61,-11.72 29.47,-16.08 34.42,-18.51"/>
    </edge>
    <edge id="3502" from="21" to="22" priority="1" spreadType="center" length="11.54">
        <lane id="3502_0" index="0" disallow="rail_fast" speed="36.11" length="11.54" width="3.61" customShape="1" shape="38.96,-9.26 33.91,-6.79 32.21,-5.96"/>
        <lane id="3502_1" index="1" disallow="rail_fast" speed="36.11" length="11.54" width="3.63" customShape="1" shape="37.36,-12.53 32.38,-10.09 30.63,-9.24"/>
    </edge>
    <edge id="3528" from="22" to="23" priority="1" spreadType="center" length="6.58">
        <lane id="3528_0" index="0" disallow="rail_fast" speed="36.11" length="6.58" width="3.25" customShape="1" shape="26.07,-0.79 24.74,1.03"/>
        <lane id="3528_1" index="1" disallow="rail_fast" speed="36.11" length="6.58" width="3.60" customShape="1" shape="24.98,-2.40 23.26,-1.54"/>
        <lane id="3528_2" index="2" disallow="rail_fast" speed="36.11" length="6.58" width="3.67" customShape="1" shape="22.92,-5.44 21.45,-4.71"/>
    </edge>
    <edge id="3534" from="23" to="24" priority="1" spreadType="center" length="6.61">
        <lane id="3534_0" index="0" disallow="rail_fast" speed="36.11" length="6.61" width="3.19" customShape="1" shape="21.70,3.02 19.08,4.29"/>
        <lane id="3534_1" index="1" disallow="rail_fast" speed="36.11" length="6.61" width="3.52" customShape="1" shape="20.23,-0.04 17.63,1.25"/>
        <lane id="3534_2" index="2" disallow="rail_fast" speed="36.11" length="6.61" width="3.68" customShape="1" shape="18.65,-3.31 16.06,-2.01"/>
    </edge>
    <edge id="3542" from="9" to="10" priority="1" spreadType="center" length="42.05">
        <lane id="3542_0" index="0" disallow="bus rail_fast" speed="36.11" length="42.05" width="2.85" customShape="1" shape="-22.79,-10.98 -26.16,-17.90 -30.22,-26.83 -33.99,-35.54 -37.61,-44.79 -39.01,-48.19"/>
        <lane id="3542_1" index="1" disallow="rail_fast" speed="36.11" length="42.05" width="2.97" customShape="1" shape="-19.95,-12.44 -23.40,-19.40 -27.49,-28.19 -31.23,-36.88 -34.88,-46.00 -36.23,-49.34"/>
        <lane id="3542_2" index="2" disallow="rail_fast" speed="36.11" length="42.05" width="2.96" customShape="1" shape="-17.27,-13.81 -20.73,-20.92 -24.78,-29.64 -28.56,-38.33 -32.05,-47.13 -33.39,-50.50"/>
    </edge>
    <edge id="3573" from="27" to="28" priority="1" spreadType="center" length="41.48">
        <lane id="3573_0" index="0" disallow="rail_fast" speed="36.11" length="41.48" width="3.35" customShape="1" shape="-18.29,-58.17 -16.63,-54.84 -12.38,-46.26 -7.94,-37.33 -3.64,-28.87 -0.42,-22.97"/>
        <lane id="3573_1" index="1" disallow="rail_fast" speed="36.11" length="41.48" width="2.88" customShape="1" shape="-21.15,-56.76 -19.40,-53.27 -15.21,-44.90 -10.67,-35.83 -6.45,-27.40 -3.47,-21.37"/>
        <lane id="3573_2" index="2" disallow="rail_fast" speed="36.11" length="41.48" width="3.08" customShape="1" shape="-23.87,-55.42 -22.09,-51.87 -17.90,-43.50 -13.36,-34.43 -9.14,-26.00 -6.20,-19.93"/>
        <lane id="3573_3" index="3" disallow="rail_fast" speed="36.11" length="41.48" width="2.82" customShape="1" shape="-26.56,-54.10 -24.76,-50.51 -20.57,-42.14 -16.03,-33.07 -11.86,-24.60 -8.90,-18.51"/>
        <lane id="3573_4" index="4" disallow="rail_fast" speed="36.11" length="41.48" width="3.05" customShape="1" shape="-29.27,-52.77 -27.46,-49.09 -23.27,-40.71 -18.73,-31.65 -14.56,-23.17 -11.58,-17.10"/>
    </edge>
    <edge id="3600" from="14" to="9" priority="1" spreadType="center" length="24.20">
        <lane id="3600_0" index="0" disallow="bus truck rail_fast" speed="36.11" length="24.20" width="3.23" customShape="1" shape="-16.70,2.03 -16.78,1.85"/>
    </edge>
    <edge id="3602" from="24" to="15" priority="1" spreadType="center" length="16.41">
        <lane id="3602_0" index="0" disallow="bus truck rail_fast" speed="36.11" length="16.41" width="2.93" customShape="1" shape="16.04,6.30 15.49,6.89"/>
    </edge>
    <edge id="3604" from="4" to="11" priority="1" spreadType="center" length="15.84">
        <lane id="3604_0" index="0" disallow="bus truck rail_fast" speed="36.11" length="15.84" width="3.84" customShape="1" shape="-7.46,28.55 -8.46,27.31 -9.85,25.91 -11.73,24.68 -13.43,24.10 -15.23,23.90 -17.15,24.12 -26.58,27.18"/>
    </edge>
    <edge id="3610" from="4" to="7" priority="1" spreadType="center" length="13.55">
        <lane id="3610_0" index="0" disallow="rail_fast" speed="36.11" length="13.55" width="2.87" customShape="1" shape="-4.27,26.42 -8.58,17.72"/>