<!-- generated on 2020-12-18 16:21:41.011995 by ipykernel_launcher.py v1_2_0+5214-53edc58fcd
-->
<tlLogics/>
