<?xml version="1.0" encoding="UTF-8"?>

<!-- generated on Fri Dec 18 16:21:41 2020 by Eclipse SUMO netconvert Version 1.8.0
<configuration xmlns:xsi="http://www.w3.org/2001/XMLSchema-instance" xsi:noNamespaceSchemaLocation="http://sumo.dlr.de/xsd/netconvertConfiguration.xsd">

    <input>
        <node-files value="./converted_scenarios/SUMO/DEU_Muc-8_2_I-1-1/nodes.net.xml"/>
        <edge-files value="./converted_scenarios/SUMO/DEU_Muc-8_2_I-1-1/edges.net.xml"/>
        <connection-files value="./converted_scenarios/SUMO/DEU_Muc-8_2_I-1-1/_connections.net.xml"/>
        <tllogic-files value="./converted_scenarios/SUMO/DEU_Muc-8_2_I-1-1/_tll.net.xml"/>
    </input>

    <output>
        <output-file value="./converted_scenarios/SUMO/DEU_Muc-8_2_I-1-1/DEU_Muc-8_2_I-1-1.net.xml"/>
    </output>

    <processing>
        <plain.extend-edge-shape value="true"/>
        <geometry.remove.keep-edges.explicit value="true"/>
        <geometry.avoid-overlap value="true"/>
        <offset.disable-normalization value="true"/>
    </processing>

    <junctions>
        <no-turnarounds value="true"/>
        <junctions.internal-link-detail value="20"/>
    </junctions>

    <report>
        <aggregate-warnings value="5"/>
    </report>

    <random_number>
        <seed value="1234"/>
    </random_number>

</configuration>
-->

<net version="1.6" junctionCornerDetail="5" junctionLinkDetail="20" limitTurnSpeed="5.50" xmlns:xsi="http://www.w3.org/2001/XMLSchema-instance" xsi:noNamespaceSchemaLocation="http://sumo.dlr.de/xsd/net_file.xsd">

    <location netOffset="0.00,0.00" convBoundary="-201.92,-55.27,23.85,71.31" origBoundary="-201.92,-55.27,23.85,71.31" projParameter="!"/>

    <edge id=":1_0" function="internal">
        <lane id=":1_0_0" index="0" disallow="rail_fast" speed="36.11" length="8.90" width="2.50" shape="-15.56,-39.16 -18.19,-47.66"/>
    </edge>
    <edge id=":1_1" function="internal">
        <lane id=":1_1_0" index="0" disallow="bus truck rail_fast" speed="24.11" length="6.67" width="2.50" shape="-17.39,-41.09 -17.37,-41.59 -17.36,-42.04 -17.35,-42.45 -17.34,-42.81 -17.34,-43.15 -17.34,-43.46 -17.34,-43.75 -17.36,-44.03 -17.38,-44.30 -17.41,-44.56 -17.45,-44.83 -17.50,-45.10 -17.56,-45.38 -17.63,-45.69 -17.72,-46.01 -17.81,-46.37 -17.92,-46.76 -18.05,-47.19 -18.19,-47.66"/>
    </edge>
    <edge id=":10_0" function="internal">
        <lane id=":10_0_0" index="0" disallow="bus truck rail_fast" speed="6.84" length="7.38" width="2.50" shape="-23.75,-37.46 -23.10,-37.69 -22.49,-37.92 -21.91,-38.14 -21.37,-38.35 -20.86,-38.56 -20.39,-38.76 -19.95,-38.96 -19.55,-39.15 -19.18,-39.34 -18.84,-39.52 -18.54,-39.70 -18.28,-39.87 -18.05,-40.03 -17.85,-40.19 -17.69,-40.34 -17.57,-40.49 -17.48,-40.63 -17.42,-40.76 -17.40,-40.89"/>
    </edge>
    <edge id=":10_1" function="internal">
        <lane id=":10_1_0" index="0" disallow="bus truck rail_fast" speed="9.36" length="8.12" width="2.50" shape="-23.75,-37.46 -23.12,-37.68 -22.52,-37.87 -21.95,-38.06 -21.39,-38.22 -20.86,-38.37 -20.36,-38.50 -19.87,-38.61 -19.41,-38.71 -18.97,-38.79 -18.56,-38.86 -18.16,-38.90 -17.79,-38.94 -17.45,-38.95 -17.13,-38.95 -16.83,-38.93 -16.55,-38.89 -16.30,-38.84 -16.06,-38.76 -15.86,-38.68"/>
    </edge>
    <edge id=":11_0" function="internal">
        <lane id=":11_0_0" index="0" disallow="bus truck rail_fast" speed="36.11" length="5.45" width="2.50" shape="-17.07,-36.65 -17.47,-36.58 -17.84,-36.52 -18.16,-36.46 -18.46,-36.40 -18.73,-36.35 -18.98,-36.30 -19.21,-36.26 -19.43,-36.21 -19.64,-36.16 -19.85,-36.11 -20.07,-36.05 -20.28,-35.99 -20.51,-35.93 -20.75,-35.85 -21.01,-35.76 -21.30,-35.67 -21.61,-35.56 -21.96,-35.44 -22.34,-35.31"/>
    </edge>
    <edge id=":11_1" function="internal">
        <lane id=":11_1_0" index="0" disallow="bus truck rail_fast" speed="21.73" length="7.05" width="2.50" shape="-16.24,-38.71 -16.65,-38.38 -17.01,-38.08 -17.35,-37.81 -17.66,-37.57 -17.94,-37.36 -18.21,-37.16 -18.46,-36.99 -18.71,-36.83 -18.95,-36.68 -19.19,-36.55 -19.45,-36.42 -19.71,-36.30 -19.99,-36.17 -20.30,-36.05 -20.63,-35.92 -21.00,-35.78 -21.40,-35.64 -21.85,-35.48 -22.34,-35.31"/>
    </edge>
    <edge id=":4_0" function="internal">
        <lane id=":4_0_0" index="0" disallow="rail_fast" speed="36.11" length="8.82" width="2.50" shape="-15.80,-48.37 -13.19,-39.94"/>
    </edge>
    <edge id=":4_1" function="internal">
        <lane id=":4_1_0" index="0" disallow="bus truck rail_fast" speed="7.97" length="10.02" width="2.50" shape="-15.80,-48.37 -15.57,-47.60 -15.38,-46.86 -15.21,-46.14 -15.06,-45.46 -14.95,-44.81 -14.86,-44.19 -14.79,-43.60 -14.76,-43.04 -14.74,-42.50 -14.76,-42.00 -14.80,-41.53 -14.87,-41.09 -14.96,-40.68 -15.08,-40.29 -15.23,-39.94 -15.41,-39.62 -15.61,-39.33 -15.83,-39.07 -16.08,-38.84"/>
    </edge>
    <edge id=":6_0" function="internal">
        <lane id=":6_0_0" index="0" disallow="bus truck rail_fast" speed="6.30" length="7.77" width="2.50" shape="-12.85,-30.53 -13.07,-31.19 -13.29,-31.82 -13.51,-32.41 -13.72,-32.96 -13.94,-33.48 -14.15,-33.96 -14.37,-34.39 -14.58,-34.79 -14.79,-35.16 -15.01,-35.48 -15.22,-35.77 -15.43,-36.02 -15.64,-36.23 -15.85,-36.40 -16.05,-36.53 -16.26,-36.63 -16.47,-36.69 -16.67,-36.71 -16.88,-36.69"/>
    </edge>
    <edge id=":6_1" function="internal">
        <lane id=":6_1_0" index="0" disallow="bus truck rail_fast" speed="36.11" length="8.85" width="2.50" shape="-12.85,-30.53 -15.50,-38.97"/>
    </edge>
    <edge id=":7_0" function="internal">
        <lane id=":7_0_0" index="0" disallow="bus truck rail_fast" speed="36.11" length="8.86" width="2.50" shape="-13.13,-39.75 -10.48,-31.30"/>
    </edge>
    <edge id=":7_1" function="internal">
        <lane id=":7_1_0" index="0" disallow="bus truck rail_fast" speed="9.81" length="9.20" width="2.50" shape="-15.68,-38.59 -15.32,-38.40 -14.98,-38.20 -14.64,-37.97 -14.32,-37.72 -14.00,-37.44 -13.69,-37.15 -13.39,-36.83 -13.10,-36.49 -12.81,-36.13 -12.54,-35.74 -12.28,-35.34 -12.02,-34.91 -11.77,-34.46 -11.53,-33.99 -11.31,-33.49 -11.08,-32.98 -10.87,-32.44 -10.67,-31.88 -10.48,-31.30"/>
    </edge>

    <edge id="23" from="1" to="2" priority="1" spreadType="center" length="8.81">
        <lane id="23_0" index="0" disallow="rail_fast" speed="36.11" length="8.81" width="2.50" customShape="1" shape="-18.19,-47.66 -18.99,-50.32 -20.25,-54.55"/>
    </edge>
    <edge id="24" from="3" to="4" priority="1" spreadType="center" length="8.83">
        <lane id="24_0" index="0" disallow="rail_fast" speed="36.11" length="8.83" width="2.50" customShape="1" shape="-17.86,-55.27 -16.59,-51.04 -15.80,-48.37"/>
    </edge>
    <edge id="25" from="5" to="6" priority="1" spreadType="center" length="109.21">
        <lane id="25_0" index="0" disallow="bus truck rail_fast" speed="36.11" length="109.21" width="2.50" customShape="1" shape="21.46,71.31 15.98,52.98 12.20,40.98 9.35,32.91 4.34,20.82 1.66,13.76 -3.25,-0.52 -12.85,-30.53"/>
    </edge>
    <edge id="26" from="7" to="8" priority="1" spreadType="center" length="109.27">
        <lane id="26_0" index="0" disallow="bus truck rail_fast" speed="36.11" length="109.27" width="2.50" customShape="1" shape="-10.48,-31.30 -0.88,-1.29 4.03,12.96 6.70,19.98 11.71,32.09 14.58,40.21 18.36,52.25 23.85,70.58"/>
    </edge>
    <edge id="27" from="9" to="10" priority="1" spreadType="center" length="182.80">
        <lane id="27_0" index="0" disallow="bus truck rail_fast" speed="36.11" length="182.80" width="2.50" customShape="1" shape="-201.92,-12.69 -195.40,-13.09 -158.78,-14.93 -142.23,-15.83 -124.19,-17.08 -108.69,-18.52 -100.21,-19.54 -87.34,-21.72 -71.95,-24.11 -64.54,-25.48 -54.76,-27.77 -44.59,-30.56 -34.51,-33.66 -23.75,-37.46"/>
    </edge>
    <edge id="28" from="11" to="12" priority="1" spreadType="center" length="183.51">
        <lane id="28_0" index="0" disallow="bus truck rail_fast" speed="36.11" length="183.51" width="2.50" customShape="1" shape="-22.34,-35.31 -33.72,-31.29 -43.86,-28.17 -54.09,-25.36 -63.94,-23.05 -71.41,-21.66 -86.84,-19.27 -99.76,-17.08 -108.30,-16.05 -123.86,-14.60 -141.96,-13.34 -158.55,-12.44 -195.24,-10.59 -201.76,-10.19"/>
    </edge>
    <edge id="29" from="4" to="7" priority="1" spreadType="center" length="14.54">
        <lane id="29_0" index="0" disallow="rail_fast" speed="36.11" length="14.54" width="2.50" customShape="1" shape="-13.19,-39.94 -13.13,-39.75"/>
    </edge>
    <edge id="30" from="10" to="7" priority="1" spreadType="center" length="13.81">
        <lane id="30_0" index="0" disallow="bus truck rail_fast" speed="36.11" length="13.81" width="2.50" customShape="1" shape="-15.86,-38.68 -15.68,-38.59"/>
    </edge>
    <edge id="31" from="6" to="1" priority="1" spreadType="center" length="14.63">
        <lane id="31_0" index="0" disallow="rail_fast" speed="36.11" length="14.63" width="2.50" customShape="1" shape="-15.50,-38.97 -15.56,-39.16"/>
    </edge>
    <edge id="32" from="4" to="11" priority="1" spreadType="center" length="13.95">
        <lane id="32_0" index="0" disallow="bus truck rail_fast" speed="36.11" length="13.95" width="2.50" customShape="1" shape="-16.08,-38.84 -16.24,-38.71"/>
    </edge>
    <edge id="33" from="6" to="11" priority="1" spreadType="center" length="9.76">
        <lane id="33_0" index="0" disallow="bus truck rail_fast" speed="36.11" length="9.76" width="2.50" customShape="1" shape="-16.88,-36.69 -17.07,-36.65"/>
    </edge>
    <edge id="34" from="10" to="1" priority="1" spreadType="center" length="10.14">
        <lane id="34_0" index="0" disallow="bus truck rail_fast" speed="36.11" length="10.14" width="2.50" customShape="1" shape="-17.40,-40.89 -17.39,-41.09"/>
    </edge>

    <junction id="1" type="priority" x="-17.73" y="-46.11" incLanes="31_0 34_0" intLanes=":1_0_0 :1_1_0" shape="-16.62,-38.38 -14.24,-39.12 -17.00,-48.02 -19.39,-47.30 -22.23,-39.32 -18.19,-38.74 -17.50,-39.11 -17.22,-39.11 -16.98,-38.99 -16.78,-38.74">
        <request index="0" response="10" foes="10" cont="0"/>
        <request index="1" response="00" foes="01" cont="0"/>
    </junction>
    <junction id="10" type="priority" x="-21.74" y="-38.17" incLanes="27_0" intLanes=":10_0_0 :10_1_0" shape="-14.44,-36.38 -14.93,-39.62 -15.81,-40.25 -16.07,-40.63 -16.23,-41.06 -16.27,-41.54 -16.20,-42.07 -18.74,-44.98 -18.90,-42.46 -19.60,-41.36 -20.71,-40.35 -22.23,-39.44 -24.16,-38.64 -23.33,-36.28 -21.31,-36.91 -19.51,-37.29 -17.92,-37.43 -16.55,-37.33 -15.39,-36.97">
        <request index="0" response="00" foes="00" cont="0"/>
        <request index="1" response="00" foes="00" cont="0"/>
    </junction>
    <junction id="11" type="priority" x="-20.90" y="-35.82" incLanes="33_0 32_0" intLanes=":11_0_0 :11_1_0" shape="-14.88,-32.61 -14.70,-36.54 -15.23,-37.18 -15.34,-37.50 -15.34,-37.81 -15.23,-38.13 -15.02,-38.44 -16.40,-41.10 -17.37,-39.46 -18.29,-38.66 -19.50,-37.90 -20.99,-37.18 -22.76,-36.48 -21.93,-34.13 -18.61,-34.85 -17.31,-34.76 -16.26,-34.35 -15.45,-33.63">
        <request index="0" response="00" foes="10" cont="0"/>
        <request index="1" response="01" foes="01" cont="0"/>
    </junction>
    <junction id="12" type="dead_end" x="-201.76" y="-10.19" incLanes="28_0" intLanes="" shape="-201.69,-8.95 -201.84,-11.44"/>
    <junction id="2" type="dead_end" x="-20.25" y="-54.55" incLanes="23_0" intLanes="" shape="-21.45,-54.19 -19.06,-54.91"/>
    <junction id="3" type="dead_end" x="-17.86" y="-55.27" incLanes="" intLanes="" shape="-19.06,-54.91 -16.66,-55.62"/>
    <junction id="4" type="priority" x="-15.33" y="-46.81" incLanes="24_0" intLanes=":4_0_0 :4_1_0" shape="-13.90,-38.05 -11.52,-38.79 -14.60,-48.73 -16.99,-48.01 -16.42,-45.66 -16.20,-43.60 -16.33,-41.83 -16.80,-40.34 -17.63,-39.14 -18.82,-38.22 -15.21,-38.22 -14.66,-38.68 -14.42,-38.72 -14.22,-38.62 -14.05,-38.40">
        <request index="0" response="00" foes="00" cont="0"/>
        <request index="1" response="00" foes="00" cont="0"/>
    </junction>
    <junction id="5" type="dead_end" x="21.46" y="71.31" incLanes="" intLanes="" shape="22.66,70.95 20.26,71.67"/>
    <junction id="6" type="priority" x="-13.37" y="-32.14" incLanes="25_0" intLanes=":6_0_0 :6_1_0" shape="-14.04,-30.15 -11.66,-30.91 -14.44,-39.75 -16.82,-39.01 -16.76,-38.26 -16.90,-37.99 -17.15,-37.80 -17.51,-37.68 -17.97,-37.63 -20.93,-34.50">
        <request index="0" response="00" foes="00" cont="0"/>
        <request index="1" response="00" foes="00" cont="0"/>
    </junction>
    <junction id="7" type="priority" x="-11.00" y="-32.92" incLanes="29_0 30_0" intLanes=":7_0_0 :7_1_0" shape="-11.67,-30.92 -9.29,-31.68 -12.41,-41.65 -14.79,-40.90 -14.73,-40.22 -14.86,-40.01 -15.08,-39.89 -15.41,-39.85 -15.84,-39.91 -18.85,-37.60 -15.93,-37.24 -14.67,-36.36 -13.53,-35.01 -12.53,-33.20">
        <request index="0" response="00" foes="10" cont="0"/>
        <request index="1" response="01" foes="01" cont="0"/>
    </junction>
    <junction id="8" type="dead_end" x="23.85" y="70.58" incLanes="26_0" intLanes="" shape="25.05,70.22 22.65,70.94"/>
    <junction id="9" type="dead_end" x="-201.92" y="-12.69" incLanes="" intLanes="" shape="-201.84,-11.44 -201.99,-13.94"/>

    <connection from="24" to="29" fromLane="0" toLane="0" contPos="-4.00" via=":4_0_0" dir="s" state="M"/>
    <connection from="24" to="32" fromLane="0" toLane="0" contPos="-4.00" via=":4_1_0" dir="L" state="M"/>
    <connection from="25" to="33" fromLane="0" toLane="0" contPos="-4.00" via=":6_0_0" dir="r" state="M"/>
    <connection from="25" to="31" fromLane="0" toLane="0" contPos="-4.00" via=":6_1_0" dir="s" state="M"/>
    <connection from="27" to="34" fromLane="0" toLane="0" contPos="-4.00" via=":10_0_0" dir="r" state="M"/>
    <connection from="27" to="30" fromLane="0" toLane="0" contPos="-4.00" via=":10_1_0" dir="s" state="M"/>
    <connection from="29" to="26" fromLane="0" toLane="0" contPos="-4.00" via=":7_0_0" dir="s" state="M"/>
    <connection from="30" to="26" fromLane="0" toLane="0" contPos="-4.00" via=":7_1_0" dir="l" state="m"/>
    <connection from="31" to="23" fromLane="0" toLane="0" contPos="-4.00" via=":1_0_0" dir="s" state="m"/>
    <connection from="32" to="28" fromLane="0" toLane="0" contPos="-4.00" via=":11_1_0" dir="l" state="m"/>
    <connection from="33" to="28" fromLane="0" toLane="0" contPos="-4.00" via=":11_0_0" dir="s" state="M"/>
    <connection from="34" to="23" fromLane="0" toLane="0" contPos="-4.00" via=":1_1_0" dir="s" state="M"/>

    <connection from=":1_0" to="23" fromLane="0" toLane="0" dir="s" state="M"/>
    <connection from=":1_1" to="23" fromLane="0" toLane="0" dir="s" state="M"/>
    <connection from=":10_0" to="34" fromLane="0" toLane="0" dir="r" state="M"/>
    <connection from=":10_1" to="30" fromLane="0" toLane="0" dir="s" state="M"/>
    <connection from=":11_0" to="28" fromLane="0" toLane="0" dir="s" state="M"/>
    <connection from=":11_1" to="28" fromLane="0" toLane="0" dir="l" state="M"/>
    <connection from=":4_0" to="29" fromLane="0" toLane="0" dir="s" state="M"/>
    <connection from=":4_1" to="32" fromLane="0" toLane="0" dir="L" state="M"/>
    <connection from=":6_0" to="33" fromLane="0" toLane="0" dir="r" state="M"/>
    <connection from=":6_1" to="31" fromLane="0" toLane="0" dir="s" state="M"/>
    <connection from=":7_0" to="26" fromLane="0" toLane="0" dir="s" state="M"/>
    <connection from=":7_1" to="26" fromLane="0" toLane="0" dir="l" state="M"/>

</net>
