<!-- generated on 2020-12-18 16:21:40.839592 by ipykernel_launcher.py v1_2_0+5214-53edc58fcd
-->
<nodes>
	<node id="1" type="from" x="-17.72705" y="-46.108850000000004"/>
	<node id="2" type="to" x="-20.25485" y="-54.549549999999996"/>
	<node id="3" type="from" x="-17.859900000000003" y="-55.2666"/>
	<node id="4" type="to" x="-15.3277" y="-46.809"/>
	<node id="5" type="from" x="21.45815" y="71.31075"/>
	<node id="6" type="to" x="-13.3701" y="-32.1434"/>
	<node id="7" type="from" x="-10.9959" y="-32.9249"/>
	<node id="8" type="to" x="23.849800000000002" y="70.58279999999999"/>
	<node id="9" type="from" x="-201.9177" y="-12.68885"/>
	<node id="10" type="to" x="-21.74355" y="-38.16685"/>
	<node id="11" type="from" x="-20.89665" y="-35.8159"/>
	<node id="12" type="to" x="-201.7619" y="-10.193750000000001"/>
</nodes>
