<!-- generated on 2020-12-18 15:56:53.263836 by ipykernel_launcher.py v1_2_0+5214-53edc58fcd
-->
<edges>
	<edge from="1" function="normal" id="43343" length="44.97262093823625" numLanes="3" priority="1" speed="36.11111111111111" spreadType="center" to="2">
		<lane allow="moped bicycle pedestrian custom1 trailer evehicle rail_urban ship private truck vip custom2 authority delivery rail_electric taxi tram army hov coach motorcycle passenger bus rail emergency" index="0" length="44.97262093823625" shape="-1.5304,74.61685 -2.3967,59.61985 -3.2651499999999998,44.5847 -4.1336,29.54935" speed="36.11111111111111" width="2.8867804713902303"/>
		<lane allow="moped bicycle pedestrian custom1 trailer evehicle rail_urban ship private truck vip custom2 authority delivery rail_electric taxi tram army hov coach motorcycle passenger bus rail emergency" index="1" length="44.97262093823625" shape="1.3756,74.446 0.5172999999999999,59.52825 -0.34765,44.4953 -1.2126000000000001,29.46215" speed="36.11111111111111" width="2.863676659471177"/>
		<lane allow="moped bicycle pedestrian custom1 trailer evehicle rail_urban ship private truck vip custom2 authority delivery rail_electric taxi tram army hov coach motorcycle passenger bus rail emergency" index="2" length="44.97262093823625" shape="4.22975,74.2782 3.39755,59.43775 2.6459,44.403549999999996 1.7721,29.37305" speed="36.11111111111111" width="2.7829012145600855"/>
	</edge>
	<edge from="2" function="normal" id="43594" length="10.990047443254944" numLanes="3" priority="1" speed="36.11111111111111" spreadType="center" to="3">
		<lane allow="moped bicycle pedestrian custom1 trailer evehicle rail_urban ship private truck vip custom2 authority delivery rail_electric taxi tram army hov coach motorcycle passenger bus rail emergency" index="0" length="10.990047443254944" shape="-4.1336,29.54935 -4.45865,24.0235 -4.7837,18.49755" speed="36.11111111111111" width="2.980925924943456"/>
		<lane allow="moped bicycle pedestrian custom1 trailer evehicle rail_urban ship private truck vip custom2 authority delivery rail_electric taxi tram army hov coach motorcycle passenger bus rail emergency" index="1" length="10.990047443254944" shape="-1.2126000000000001,29.46215 -1.49665,23.9544 -1.78075,18.4466" speed="36.11111111111111" width="2.863676659471177"/>
		<lane allow="moped bicycle pedestrian custom1 trailer evehicle rail_urban ship private truck vip custom2 authority delivery rail_electric taxi tram army hov coach motorcycle passenger bus rail emergency" index="2" length="10.990047443254944" shape="1.7721,29.37305 1.5149,23.884050000000002 1.25765,18.395049999999998" speed="36.11111111111111" width="3.05954023016531"/>
	</edge>
	<edge from="3" function="normal" id="43652" length="14.59998758340906" numLanes="1" priority="1" speed="36.11111111111111" spreadType="center" to="4">
		<lane allow="moped bicycle pedestrian custom1 trailer evehicle rail_urban ship private vip custom2 authority delivery rail_electric taxi tram army hov coach motorcycle passenger rail emergency" index="0" length="14.59998758340906" shape="1.25765,18.395049999999998 1.17575,15.025500000000001 1.5231499999999998,13.105 2.0335,11.49795 2.67755,10.13405 3.5577,8.953949999999999 4.9096,7.8554 6.34545,7.4318 7.71705,7.39315" speed="36.11111111111111" width="2.9750851702094177"/>
	</edge>
	<edge from="4" function="normal" id="43602" length="9.339869187790512" numLanes="2" priority="1" speed="36.11111111111111" spreadType="center" to="5">
		<lane allow="moped bicycle pedestrian custom1 trailer evehicle rail_urban ship private truck vip custom2 authority delivery rail_electric taxi tram army hov coach motorcycle passenger bus rail emergency" index="0" length="9.339869187790512" shape="7.5375,3.9974499999999997 12.407499999999999,4.03255 17.27745,4.0676" speed="36.11111111111111" width="3.461631194971526"/>
		<lane allow="moped bicycle pedestrian custom1 trailer evehicle rail_urban ship private truck vip custom2 authority delivery rail_electric taxi tram army hov coach motorcycle passenger bus rail emergency" index="1" length="9.339869187790512" shape="7.71705,7.39315 12.387,7.411099999999999 17.05685,7.4291" speed="36.11111111111111" width="3.275830229117498"/>
	</edge>
	<edge from="5" function="normal" id="43488" length="37.317824293303275" numLanes="2" priority="1" speed="36.11111111111111" spreadType="center" to="6">
		<lane allow="moped bicycle pedestrian custom1 trailer evehicle rail_urban ship private truck vip custom2 authority delivery rail_electric taxi tram army hov coach motorcycle passenger bus rail emergency" index="0" length="37.317824293303275" shape="17.27745,4.0676 35.82365,5.2776 54.516099999999994,6.497199999999999" speed="36.11111111111111" width="3.4616246474740717"/>
		<lane allow="moped bicycle pedestrian custom1 trailer evehicle rail_urban ship private truck vip custom2 authority delivery rail_electric taxi tram army hov coach motorcycle passenger bus rail emergency" index="1" length="37.317824293303275" shape="17.05685,7.4291 35.64175,8.6416 54.29555,9.858699999999999" speed="36.11111111111111" width="3.275830229117498"/>
	</edge>
	<edge from="3" function="normal" id="43632" length="16.314607196005703" numLanes="2" priority="1" speed="36.11111111111111" spreadType="center" to="7">
		<lane allow="moped bicycle pedestrian custom1 trailer evehicle rail_urban ship private truck vip custom2 authority delivery rail_electric taxi tram army hov coach motorcycle passenger bus rail emergency" index="0" length="16.314607196005703" shape="-4.7837,18.49755 -4.9689499999999995,15.34835 -5.1647,12.021 -5.34215,9.0037 -5.537599999999999,5.681749999999999 -5.7468,2.12445" speed="36.11111111111111" width="2.988630075803963"/>
		<lane allow="moped bicycle pedestrian custom1 trailer evehicle rail_urban ship private truck vip custom2 authority delivery rail_electric taxi tram army hov coach motorcycle passenger bus rail emergency" index="1" length="16.314607196005703" shape="-1.78075,18.4466 -1.94215,15.3165 -2.11175,12.030999999999999 -2.2674000000000003,9.011949999999999 -2.43835,5.69715 -2.6210999999999998,2.15365" speed="36.11111111111111" width="3.018134312783313"/>
	</edge>
	<edge from="7" function="normal" id="43832" length="7.908935571062977" numLanes="2" priority="1" speed="36.11111111111111" spreadType="center" to="8">
		<lane allow="moped bicycle pedestrian custom1 trailer evehicle rail_urban ship private truck vip custom2 authority delivery rail_electric taxi tram army hov coach motorcycle passenger bus rail emergency" index="0" length="7.908935571062977" shape="-5.7468,2.12445 -5.964449999999999,-1.82405 -6.18205,-5.7725" speed="36.11111111111111" width="2.9417814279786327"/>
		<lane allow="moped bicycle pedestrian custom1 trailer evehicle rail_urban ship private truck vip custom2 authority delivery rail_electric taxi tram army hov coach motorcycle passenger bus rail emergency" index="1" length="7.908935571062977" shape="-2.6210999999999998,2.15365 -2.8297499999999998,-1.9001000000000001 -3.0384499999999997,-5.953749999999999" speed="36.11111111111111" width="3.2491412850167043"/>
	</edge>
	<edge from="8" function="normal" id="43382" length="24.84192312988693" numLanes="2" priority="1" speed="36.11111111111111" spreadType="center" to="9">
		<lane allow="moped bicycle pedestrian custom1 trailer evehicle rail_urban ship private truck vip custom2 authority delivery rail_electric taxi tram army hov coach motorcycle passenger bus rail emergency" index="0" length="24.84192312988693" shape="-6.18205,-5.7725 -6.74615,-18.2637 -7.0200499999999995,-30.7099" speed="36.11111111111111" width="2.5239618321202872"/>
		<lane allow="moped bicycle pedestrian custom1 trailer evehicle rail_urban ship private truck vip custom2 authority delivery rail_electric taxi tram army hov coach motorcycle passenger bus rail emergency" index="1" length="24.84192312988693" shape="-3.0384499999999997,-5.953749999999999 -3.7248,-18.272750000000002 -4.3374500000000005,-30.76155" speed="36.11111111111111" width="2.842597139940868"/>
	</edge>
	<edge from="9" function="normal" id="43386" length="19.690046078976316" numLanes="2" priority="1" speed="36.11111111111111" spreadType="center" to="10">
		<lane allow="moped bicycle pedestrian custom1 trailer evehicle rail_urban ship private vip custom2 authority delivery rail_electric taxi tram army hov coach motorcycle passenger rail emergency" index="0" length="19.690046078976316" shape="-7.0200499999999995,-30.7099 -6.58465,-40.592349999999996 -6.41555,-50.3889" speed="36.11111111111111" width="2.5079225925055986"/>
		<lane allow="moped bicycle pedestrian custom1 trailer evehicle rail_urban ship private truck vip custom2 authority delivery rail_electric taxi tram army hov coach motorcycle passenger bus rail emergency" index="1" length="19.690046078976316" shape="-4.3374500000000005,-30.76155 -3.59065,-40.641000000000005 -3.27075,-50.5115" speed="36.11111111111111" width="2.842597139940868"/>
	</edge>
	<edge from="10" function="normal" id="43390" length="7.330307574653017" numLanes="2" priority="1" speed="36.11111111111111" spreadType="center" to="11">
		<lane allow="moped bicycle pedestrian custom1 trailer evehicle rail_urban ship private truck vip custom2 authority delivery rail_electric taxi tram army hov coach motorcycle passenger bus rail emergency" index="0" length="7.330307574653017" shape="-6.41555,-50.3889 -6.38715,-54.06245 -6.35875,-57.7364" speed="36.11111111111111" width="2.371174192251594"/>
		<lane allow="moped bicycle pedestrian custom1 trailer evehicle rail_urban ship private truck vip custom2 authority delivery rail_electric taxi tram army hov coach motorcycle passenger bus rail emergency" index="1" length="7.330307574653017" shape="-3.27075,-50.5115 -3.33715,-54.173649999999995 -3.4038,-57.840599999999995" speed="36.11111111111111" width="3.5423990571362785"/>
	</edge>
	<edge from="2" function="normal" id="43640" length="19.17017469173639" numLanes="1" priority="1" speed="36.11111111111111" spreadType="center" to="12">
		<lane allow="moped bicycle pedestrian custom1 trailer evehicle rail_urban ship private vip custom2 authority delivery rail_electric taxi tram army hov coach motorcycle passenger rail emergency" index="0" length="19.17017469173639" shape="-4.1336,29.54935 -4.4816,24.0595 -5.0235,21.9206 -5.7245,20.543149999999997 -6.4951,19.4578 -7.3648,18.60185 -8.643550000000001,17.64275 -10.5831,17.00705 -14.3092,17.05285" speed="36.11111111111111" width="2.693027627039872"/>
	</edge>
	<edge from="12" function="normal" id="43476" length="12.648755104554654" numLanes="2" priority="1" speed="36.11111111111111" spreadType="center" to="13">
		<lane allow="moped bicycle pedestrian custom1 trailer evehicle rail_urban ship private truck vip custom2 authority delivery rail_electric taxi tram army hov coach motorcycle passenger bus rail emergency" index="0" length="12.648755104554654" shape="-14.3092,17.05285 -20.7203,16.7667 -27.13145,16.48055" speed="36.11111111111111" width="3.095757694006429"/>
		<lane allow="moped bicycle pedestrian custom1 trailer evehicle rail_urban ship private truck vip custom2 authority delivery rail_electric taxi tram army hov coach motorcycle passenger bus rail emergency" index="1" length="12.648755104554654" shape="-14.21595,13.718350000000001 -20.537100000000002,13.516300000000001 -26.858249999999998,13.3143" speed="36.11111111111111" width="3.2602716650610564"/>
	</edge>
	<edge from="13" function="normal" id="43480" length="28.066793631489972" numLanes="2" priority="1" speed="36.11111111111111" spreadType="center" to="14">
		<lane allow="moped bicycle pedestrian custom1 trailer evehicle rail_urban ship private truck vip custom2 authority delivery rail_electric taxi tram army hov coach motorcycle passenger bus rail emergency" index="0" length="28.066793631489972" shape="-27.13145,16.48055 -34.2255,16.0607 -41.4106,14.895249999999999 -48.55455,13.328700000000001 -55.491150000000005,11.086649999999999" speed="36.11111111111111" width="3.095757694006429"/>
		<lane allow="moped bicycle pedestrian custom1 trailer evehicle rail_urban ship private truck vip custom2 authority delivery rail_electric taxi tram army hov coach motorcycle passenger rail emergency" index="1" length="28.066793631489972" shape="-26.858249999999998,13.3143 -33.769400000000005,12.792200000000001 -40.820949999999996,11.70805 -47.5192,10.1689 -54.295199999999994,7.95425" speed="36.11111111111111" width="2.981545803773607"/>
	</edge>
	<edge from="14" function="normal" id="43484" length="13.76572701930414" numLanes="2" priority="1" speed="36.11111111111111" spreadType="center" to="15">
		<lane allow="moped bicycle pedestrian custom1 trailer evehicle rail_urban ship private truck vip custom2 authority delivery rail_electric taxi tram army hov coach motorcycle passenger bus rail emergency" index="0" length="13.76572701930414" shape="-55.491150000000005,11.086649999999999 -62.0067,8.5368 -68.52225,5.987" speed="36.11111111111111" width="3.1855224704905103"/>
		<lane allow="moped bicycle pedestrian custom1 trailer evehicle rail_urban ship private truck vip custom2 authority delivery rail_electric taxi tram army hov coach motorcycle passenger bus rail emergency" index="1" length="13.76572701930414" shape="-54.295199999999994,7.95425 -60.7259,5.5007 -67.1566,3.0471500000000002" speed="36.11111111111111" width="3.2975996012251105"/>
	</edge>
	<edge from="16" function="normal" id="43394" length="7.3144598106089145" numLanes="2" priority="1" speed="36.11111111111111" spreadType="center" to="17">
		<lane allow="moped bicycle pedestrian custom1 trailer evehicle rail_urban ship private truck vip custom2 authority delivery rail_electric taxi tram army hov coach motorcycle passenger bus rail emergency" index="0" length="7.3144598106089145" shape="3.0599999999999996,-58.0686 3.2455,-54.416 3.4309000000000003,-50.763549999999995" speed="36.11111111111111" width="2.929753069799569"/>
		<lane allow="moped bicycle pedestrian custom1 trailer evehicle rail_urban ship private truck vip custom2 authority delivery rail_electric taxi tram army hov coach motorcycle passenger bus rail emergency" index="1" length="7.3144598106089145" shape="-0.03815000000000002,-57.9593 0.12805,-54.3013 0.29400000000000004,-50.6482" speed="36.11111111111111" width="3.19308596345291"/>
	</edge>
	<edge from="17" function="normal" id="43400" length="19.771763646549594" numLanes="3" priority="1" speed="36.11111111111111" spreadType="center" to="18">
		<lane allow="moped bicycle pedestrian custom1 trailer evehicle rail_urban ship private truck vip custom2 authority delivery rail_electric taxi tram army hov coach motorcycle passenger bus rail emergency" index="0" length="19.771763646549594" shape="3.4309000000000003,-50.763549999999995 3.89845,-40.8838 4.3660499999999995,-31.00365" speed="36.11111111111111" width="2.914355644048955"/>
		<lane allow="moped bicycle pedestrian custom1 trailer evehicle rail_urban ship private truck vip custom2 authority delivery rail_electric taxi tram army hov coach motorcycle passenger bus rail emergency" index="1" length="19.771763646549594" shape="0.29400000000000004,-50.6482 0.9781,-40.782 1.4531500000000002,-30.91155" speed="36.11111111111111" width="2.914355644048955"/>
		<lane allow="moped bicycle pedestrian custom1 trailer evehicle rail_urban ship private truck vip custom2 authority delivery rail_electric taxi tram army hov coach motorcycle passenger bus rail emergency" index="2" length="19.771763646549594" shape="0.29400000000000004,-50.6482 -0.47834999999999994,-40.7312 -1.4597499999999999,-30.8194" speed="36.11111111111111" width="2.9143588059811716"/>
	</edge>
	<edge from="18" function="normal" id="43406" length="24.582552466773606" numLanes="3" priority="1" speed="36.11111111111111" spreadType="center" to="19">
		<lane allow="moped bicycle pedestrian custom1 trailer evehicle rail_urban ship private truck vip custom2 authority delivery rail_electric taxi tram army hov coach motorcycle passenger bus rail emergency" index="0" length="24.582552466773606" shape="4.3660499999999995,-31.00365 5.0043500000000005,-18.7104 5.64135,-6.4542" speed="36.11111111111111" width="2.683345779060165"/>
		<lane allow="moped bicycle pedestrian custom1 trailer evehicle rail_urban ship private truck vip custom2 authority delivery rail_electric taxi tram army hov coach motorcycle passenger bus rail emergency" index="1" length="24.582552466773606" shape="1.4531500000000002,-30.91155 2.19885,-18.549349999999997 2.94035,-6.2985" speed="36.11111111111111" width="2.7276221530849902"/>
		<lane allow="moped bicycle pedestrian custom1 trailer evehicle rail_urban ship private truck vip custom2 authority delivery rail_electric taxi tram army hov coach motorcycle passenger bus rail emergency" index="2" length="24.582552466773606" shape="-1.4597499999999999,-30.8194 -0.67245,-18.3841 0.10775000000000001,-6.135149999999999" speed="36.11111111111111" width="2.9143588059811716"/>
	</edge>
	<edge from="19" function="normal" id="43838" length="8.327047283399923" numLanes="3" priority="1" speed="36.11111111111111" spreadType="center" to="20">
		<lane allow="moped bicycle pedestrian custom1 trailer evehicle rail_urban ship private truck vip custom2 authority delivery rail_electric taxi tram army hov coach motorcycle passenger bus rail emergency" index="0" length="8.327047283399923" shape="5.64135,-6.4542 5.8754,-2.1095 6.109500000000001,2.23515" speed="36.11111111111111" width="2.671116060750637"/>
		<lane allow="moped bicycle pedestrian custom1 trailer evehicle rail_urban ship private truck vip custom2 authority delivery rail_electric taxi tram army hov coach motorcycle passenger bus rail emergency" index="1" length="8.327047283399923" shape="2.94035,-6.2985 3.1618,-2.04435 3.38325,2.2096999999999998" speed="36.11111111111111" width="2.7276221530849902"/>
		<lane allow="moped bicycle pedestrian custom1 trailer evehicle rail_urban ship private truck vip custom2 authority delivery rail_electric taxi tram army hov coach motorcycle passenger bus rail emergency" index="2" length="8.327047283399923" shape="0.10775000000000001,-6.135149999999999 0.30290000000000006,-1.9762 0.49794999999999995,2.18275" speed="36.11111111111111" width="2.9469900746354747"/>
	</edge>
	<edge from="20" function="normal" id="43638" length="16.086200504447287" numLanes="3" priority="1" speed="36.11111111111111" spreadType="center" to="21">
		<lane allow="moped bicycle pedestrian custom1 trailer evehicle rail_urban ship private truck vip custom2 authority delivery rail_electric taxi tram army hov coach motorcycle passenger bus rail emergency" index="0" length="16.086200504447287" shape="6.109500000000001,2.23515 6.29835,5.7406500000000005 6.4759,9.0354 6.63885,12.05955 6.8094,15.224499999999999 6.9750000000000005,18.29805" speed="36.11111111111111" width="2.635179145712868"/>
		<lane allow="moped bicycle pedestrian custom1 trailer evehicle rail_urban ship private truck vip custom2 authority delivery rail_electric taxi tram army hov coach motorcycle passenger bus rail emergency" index="1" length="16.086200504447287" shape="3.38325,2.2096999999999998 3.5661500000000004,5.72705 3.73785,9.02805 3.8951000000000002,12.0506 4.0616,15.2534 4.2224,18.344749999999998" speed="36.11111111111111" width="2.7816215145127137"/>
		<lane allow="moped bicycle pedestrian custom1 trailer evehicle rail_urban ship private truck vip custom2 authority delivery rail_electric taxi tram army hov coach motorcycle passenger bus rail emergency" index="2" length="16.086200504447287" shape="0.49794999999999995,2.18275 0.66335,5.7126 0.8183499999999999,9.02025 0.9599500000000001,12.041049999999998 1.1118999999999999,15.2844 1.25765,18.395049999999998" speed="36.11111111111111" width="2.98923020525352"/>
	</edge>
	<edge from="20" function="normal" id="43648" length="15.647527078539017" numLanes="1" priority="1" speed="36.11111111111111" spreadType="center" to="22">
		<lane allow="moped bicycle pedestrian custom1 trailer evehicle rail_urban ship private vip custom2 authority delivery rail_electric taxi tram army hov coach motorcycle passenger rail emergency" index="0" length="15.647527078539017" shape="0.49794999999999995,2.18275 0.5517500000000001,3.45165 0.37285,7.1541999999999994 -0.06525000000000003,9.13355 -0.6696,10.62545 -1.51435,11.7942 -2.8084,12.9129 -4.9943,13.6648 -6.563549999999999,13.690100000000001" speed="36.11111111111111" width="2.760169699493131"/>
	</edge>
	<edge from="22" function="normal" id="43618" length="7.652452144574311" numLanes="2" priority="1" speed="36.11111111111111" spreadType="center" to="12">
		<lane allow="moped bicycle pedestrian custom1 trailer evehicle rail_urban ship private truck vip custom2 authority delivery rail_electric taxi tram army hov coach motorcycle passenger bus rail emergency" index="0" length="7.652452144574311" shape="-6.3712,16.9435 -10.3402,16.9982 -14.3092,17.05285" speed="36.11111111111111" width="3.1643185174694404"/>
		<lane allow="moped bicycle pedestrian custom1 trailer evehicle rail_urban ship private truck vip custom2 authority delivery rail_electric taxi tram army hov coach motorcycle passenger bus rail emergency" index="1" length="7.652452144574311" shape="-6.563549999999999,13.690100000000001 -10.38975,13.70425 -14.21595,13.718350000000001" speed="36.11111111111111" width="3.3538438261195176"/>
	</edge>
	<edge from="21" function="normal" id="43598" length="10.917968257533417" numLanes="2" priority="1" speed="36.11111111111111" spreadType="center" to="23">
		<lane allow="moped bicycle pedestrian custom1 trailer evehicle rail_urban ship private truck vip custom2 authority delivery rail_electric taxi tram army hov coach motorcycle passenger bus rail emergency" index="0" length="10.917968257533417" shape="6.9750000000000005,18.29805 7.26875,23.74915 7.5625,29.200200000000002" speed="36.11111111111111" width="2.6121648110331788"/>
		<lane allow="moped bicycle pedestrian custom1 trailer evehicle rail_urban ship private truck vip custom2 authority delivery rail_electric taxi tram army hov coach motorcycle passenger bus rail emergency" index="1" length="10.917968257533417" shape="4.2224,18.344749999999998 4.50685,23.813850000000002 4.7913,29.28295" speed="36.11111111111111" width="2.870813099106245"/>
	</edge>
	<edge from="23" function="normal" id="43205" length="44.80469344761991" numLanes="2" priority="1" speed="36.11111111111111" spreadType="center" to="24">
		<lane allow="moped bicycle pedestrian custom1 trailer evehicle rail_urban ship private truck vip custom2 authority delivery rail_electric taxi tram army hov coach motorcycle passenger bus rail emergency" index="0" length="44.80469344761991" shape="7.5625,29.200200000000002 8.45535,44.2255 9.3482,59.25075 10.2202,73.926" speed="36.11111111111111" width="2.611098198076817"/>
		<lane allow="moped bicycle pedestrian custom1 trailer evehicle rail_urban ship private truck vip custom2 authority delivery rail_electric taxi tram army hov coach motorcycle passenger bus rail emergency" index="1" length="44.80469344761991" shape="4.7913,29.28295 5.67305,44.3108 6.4326,59.3424 7.26785,74.09955" speed="36.11111111111111" width="2.9327056125700715"/>
	</edge>
	<edge from="19" function="normal" id="43646" length="18.742624277463058" numLanes="1" priority="1" speed="36.11111111111111" spreadType="center" to="5">
		<lane allow="moped bicycle pedestrian custom1 trailer evehicle rail_urban ship private vip custom2 authority delivery rail_electric taxi tram army hov coach motorcycle passenger rail emergency" index="0" length="18.742624277463058" shape="5.64135,-6.4542 5.8488500000000005,-2.8341000000000003 6.5842,-0.42389999999999994 7.24325,1.0101 7.928850000000001,2.01175 8.7171,2.6449000000000003 10.572700000000001,3.4598 13.164750000000002,4.03045 17.27745,4.0676" speed="36.11111111111111" width="2.683345779060165"/>
	</edge>
	<edge from="25" function="normal" id="43456" length="13.037777576174815" numLanes="3" priority="1" speed="36.11111111111111" spreadType="center" to="26">
		<lane allow="moped bicycle pedestrian custom1 trailer evehicle rail_urban ship private truck vip custom2 authority delivery rail_electric taxi tram army hov coach motorcycle passenger bus rail emergency" index="0" length="13.037777576174815" shape="-62.77905,-6.37635 -56.70605,-4.00675 -50.6331,-1.6372" speed="36.11111111111111" width="3.2563922521711057"/>
		<lane allow="moped bicycle pedestrian custom1 trailer evehicle rail_urban ship private truck vip custom2 authority delivery rail_electric taxi tram army hov coach motorcycle passenger bus rail emergency" index="1" length="13.037777576174815" shape="-64.2814,-3.14225 -58.09635,-0.7158000000000001 -51.91135,1.71065" speed="36.11111111111111" width="3.7861493182387815"/>
		<lane allow="moped bicycle pedestrian custom1 trailer evehicle rail_urban ship private truck vip custom2 authority delivery rail_electric taxi tram army hov coach motorcycle passenger bus rail emergency" index="2" length="13.037777576174815" shape="-65.7799,0.08350000000000002 -59.460750000000004,2.50815 -53.1416,4.9328" speed="36.11111111111111" width="3.111898430219084"/>
	</edge>
	<edge from="26" function="normal" id="43464" length="25.046575335412292" numLanes="4" priority="1" speed="36.11111111111111" spreadType="center" to="27">
		<lane allow="moped bicycle pedestrian custom1 trailer evehicle rail_urban ship private truck vip custom2 authority delivery rail_electric taxi tram army hov coach motorcycle passenger rail emergency" index="0" length="25.046575335412292" shape="-50.6331,-1.6372 -44.42205,-0.7157 -38.1584,-0.29545 -31.853499999999997,-0.2763 -25.67095,-0.44595" speed="36.11111111111111" width="2.8851869714110383"/>
		<lane allow="moped bicycle pedestrian custom1 trailer evehicle rail_urban ship private truck vip custom2 authority delivery rail_electric taxi tram army hov coach motorcycle passenger bus rail emergency" index="1" length="25.046575335412292" shape="-50.6331,-1.6372 -44.55555,0.0867 -38.431700000000006,1.5566 -32.16945,2.47325 -25.96975,3.0166" speed="36.11111111111111" width="3.3044065200879875"/>
		<lane allow="moped bicycle pedestrian custom1 trailer evehicle rail_urban ship private truck vip custom2 authority delivery rail_electric taxi tram army hov coach motorcycle passenger bus rail emergency" index="2" length="25.046575335412292" shape="-51.91135,1.71065 -45.5864,3.4695 -39.2633,5.0184500000000005 -32.71105,6.10935 -26.28765,6.70105" speed="36.11111111111111" width="3.3306279558065333"/>
		<lane allow="moped bicycle pedestrian custom1 trailer evehicle rail_urban ship private truck vip custom2 authority delivery rail_electric taxi tram army hov coach motorcycle passenger bus rail emergency" index="3" length="25.046575335412292" shape="-53.1416,4.9328 -46.644149999999996,6.94405 -40.1258,8.5136 -33.25095,9.5046 -26.57445,10.025200000000002" speed="36.11111111111111" width="3.111898430219084"/>
	</edge>
	<edge from="27" function="normal" id="43472" length="11.85414435714534" numLanes="4" priority="1" speed="36.11111111111111" spreadType="center" to="28">
		<lane allow="moped bicycle pedestrian custom1 trailer evehicle rail_urban ship private truck vip custom2 authority delivery rail_electric taxi tram army hov coach motorcycle passenger bus rail emergency" index="0" length="11.85414435714534" shape="-25.67095,-0.44595 -19.756,-0.06784999999999997 -13.84095,0.3102499999999999" speed="36.11111111111111" width="2.8851869714110383"/>
		<lane allow="moped bicycle pedestrian custom1 trailer evehicle rail_urban ship private truck vip custom2 authority delivery rail_electric taxi tram army hov coach motorcycle passenger bus rail emergency" index="1" length="11.85414435714534" shape="-25.96975,3.0166 -19.95475,3.4297500000000003 -13.93975,3.84295" speed="36.11111111111111" width="3.5927059356423823"/>
		<lane allow="moped bicycle pedestrian custom1 trailer evehicle rail_urban ship private truck vip custom2 authority delivery rail_electric taxi tram army hov coach motorcycle passenger bus rail emergency" index="2" length="11.85414435714534" shape="-26.28765,6.70105 -20.16215,7.005000000000001 -14.0367,7.309" speed="36.11111111111111" width="3.3306279558065333"/>
		<lane allow="moped bicycle pedestrian custom1 trailer evehicle rail_urban ship private truck vip custom2 authority delivery rail_electric taxi tram army hov coach motorcycle passenger bus rail emergency" index="3" length="11.85414435714534" shape="-26.57445,10.025200000000002 -20.35,10.2552 -14.125499999999999,10.485199999999999" speed="36.11111111111111" width="3.012776825455214"/>
	</edge>
	<edge from="28" function="normal" id="43614" length="6.797229514483993" numLanes="3" priority="1" speed="36.11111111111111" spreadType="center" to="29">
		<lane allow="moped bicycle pedestrian custom1 trailer evehicle rail_urban ship private truck vip custom2 authority delivery rail_electric taxi tram army hov coach motorcycle passenger bus rail emergency" index="0" length="6.797229514483993" shape="-13.93975,3.84295 -10.54125,3.8677 -7.1427,3.8923499999999995" speed="36.11111111111111" width="3.5701170246926077"/>
		<lane allow="moped bicycle pedestrian custom1 trailer evehicle rail_urban ship private truck vip custom2 authority delivery rail_electric taxi tram army hov coach motorcycle passenger bus rail emergency" index="1" length="6.797229514483993" shape="-14.0367,7.309 -10.4879,7.323 -6.9391,7.337" speed="36.11111111111111" width="3.331206496151208"/>
		<lane allow="moped bicycle pedestrian custom1 trailer evehicle rail_urban ship private truck vip custom2 authority delivery rail_electric taxi tram army hov coach motorcycle passenger bus rail emergency" index="2" length="6.797229514483993" shape="-14.125499999999999,10.485199999999999 -10.438600000000001,10.49655 -6.75165,10.5079" speed="36.11111111111111" width="3.012776825455214"/>
	</edge>