<?xml version="1.0" encoding="UTF-8"?>

<!-- generated on Fri Dec 18 15:56:53 2020 by Eclipse SUMO netconvert Version 1.8.0
<configuration xmlns:xsi="http://www.w3.org/2001/XMLSchema-instance" xsi:noNamespaceSchemaLocation="http://sumo.dlr.de/xsd/netconvertConfiguration.xsd">

    <input>
        <node-files value="./converted_scenarios/NGSIM/Peachtree/USA_Peach-4_3_I-1-1/nodes.net.xml"/>
        <edge-files value="./converted_scenarios/NGSIM/Peachtree/USA_Peach-4_3_I-1-1/edges.net.xml"/>
        <connection-files value="./converted_scenarios/NGSIM/Peachtree/USA_Peach-4_3_I-1-1/_connections.net.xml"/>
        <tllogic-files value="./converted_scenarios/NGSIM/Peachtree/USA_Peach-4_3_I-1-1/_tll.net.xml"/>
    </input>

    <output>
        <output-file value="./converted_scenarios/NGSIM/Peachtree/USA_Peach-4_3_I-1-1/USA_Peach-4_3_I-1-1.net.xml"/>
    </output>

    <processing>
        <plain.extend-edge-shape value="true"/>
        <geometry.remove.keep-edges.explicit value="true"/>
        <geometry.avoid-overlap value="true"/>
        <offset.disable-normalization value="true"/>
    </processing>

    <junctions>
        <no-turnarounds value="true"/>
        <junctions.internal-link-detail value="20"/>
    </junctions>

    <report>
        <aggregate-warnings value="5"/>
    </report>

    <random_number>
        <seed value="1234"/>
    </random_number>

</configuration>
-->

<net version="1.6" junctionCornerDetail="5" junctionLinkDetail="20" limitTurnSpeed="5.50" xmlns:xsi="http://www.w3.org/2001/XMLSchema-instance" xsi:noNamespaceSchemaLocation="http://sumo.dlr.de/xsd/net_file.xsd">

    <location netOffset="0.00,0.00" convBoundary="-67.84,-58.01,54.41,74.45" origBoundary="-68.52,-58.07,54.52,74.62" projParameter="!"/>

    <edge id=":10_0" function="internal">
        <lane id=":10_0_0" index="0" disallow="bus truck rail_fast" speed="36.11" length="3.17" width="2.37" shape="-6.44,-48.86 -6.40,-52.01"/>
        <lane id=":10_0_1" index="1" disallow="rail_fast" speed="36.11" length="3.17" width="3.54" shape="-3.32,-48.89 -3.30,-52.08"/>
    </edge>
    <edge id=":12_0" function="internal">
        <lane id=":12_0_0" index="0" disallow="bus truck rail_fast" speed="36.11" length="10.39" width="3.10" shape="-6.92,18.21 -7.64,17.98 -8.29,17.78 -8.88,17.61 -9.42,17.47 -9.92,17.36 -10.39,17.26 -10.84,17.19 -11.26,17.13 -11.68,17.09 -12.10,17.05 -12.53,17.03 -12.97,17.02 -13.43,17.01 -13.93,17.01 -14.46,17.00 -15.05,16.99 -15.69,16.98 -16.39,16.96 -17.17,16.93"/>
    </edge>
    <edge id=":12_1" function="internal">
        <lane id=":12_1_0" index="0" disallow="rail_fast" speed="36.11" length="10.86" width="3.10" shape="-6.23,16.94 -17.17,16.93"/>
        <lane id=":12_1_1" index="1" disallow="rail_fast" speed="36.11" length="10.86" width="3.26" shape="-6.27,13.69 -17.06,13.63"/>
    </edge>
    <edge id=":13_0" function="internal">
        <lane id=":13_0_0" index="0" disallow="rail_fast" speed="36.11" length="3.01" width="3.10" shape="-25.55,16.55 -28.59,16.39"/>
        <lane id=":13_0_1" index="1" disallow="bus rail_fast" speed="36.11" length="3.01" width="2.98" shape="-25.35,13.36 -28.34,13.20"/>
    </edge>
    <edge id=":14_0" function="internal">
        <lane id=":14_0_0" index="0" disallow="rail_fast" speed="36.11" length="2.96" width="3.19" shape="-54.02,11.56 -56.84,10.56"/>
        <lane id=":14_0_1" index="1" disallow="bus rail_fast" speed="36.11" length="2.96" width="3.30" shape="-52.90,8.41 -55.64,7.44"/>
    </edge>
    <edge id=":17_0" function="internal">
        <lane id=":17_0_0" index="0" disallow="rail_fast" speed="36.11" length="7.89" width="2.91" shape="3.23,-54.63 3.62,-46.69"/>
        <lane id=":17_0_1" index="1" disallow="rail_fast" speed="36.11" length="7.89" width="2.91" shape="0.12,-54.50 0.57,-46.66"/>
        <lane id=":17_0_2" index="2" disallow="rail_fast" speed="36.11" length="7.89" width="2.91" shape="0.12,-54.50 0.15,-53.92 0.17,-53.39 0.19,-52.91 0.21,-52.47 0.22,-52.08 0.23,-51.71 0.23,-51.37 0.24,-51.05 0.23,-50.73 0.23,-50.42 0.22,-50.11 0.20,-49.78 0.19,-49.44 0.16,-49.08 0.14,-48.68 0.11,-48.25 0.07,-47.77 0.03,-47.24 -0.02,-46.66"/>
    </edge>
    <edge id=":18_0" function="internal">
        <lane id=":18_0_0" index="0" disallow="rail_fast" speed="36.11" length="3.18" width="2.68" shape="4.28,-32.91 4.43,-29.81"/>
        <lane id=":18_0_1" index="1" disallow="rail_fast" speed="36.11" length="3.18" width="2.73" shape="1.36,-32.87 1.53,-29.69"/>
        <lane id=":18_0_2" index="2" disallow="rail_fast" speed="36.11" length="3.18" width="2.91" shape="-1.26,-32.83 -1.29,-32.59 -1.31,-32.37 -1.33,-32.17 -1.35,-31.99 -1.37,-31.83 -1.38,-31.68 -1.39,-31.53 -1.41,-31.40 -1.42,-31.27 -1.42,-31.14 -1.43,-31.01 -1.43,-30.87 -1.43,-30.73 -1.43,-30.58 -1.42,-30.42 -1.42,-30.24 -1.41,-30.04 -1.40,-29.82 -1.38,-29.57"/>
    </edge>
    <edge id=":19_0" function="internal">
        <lane id=":19_0_0" index="0" disallow="bus truck rail_fast" speed="8.36" length="12.54" width="2.68" shape="5.50,-9.15 5.57,-7.96 5.64,-6.83 5.72,-5.76 5.81,-4.75 5.90,-3.81 6.00,-2.93 6.11,-2.11 6.22,-1.35 6.34,-0.65 6.47,-0.02 6.60,0.55 6.74,1.06 6.89,1.50 7.04,1.89 7.20,2.21 7.37,2.47 7.54,2.67 7.72,2.80 7.91,2.87"/>
    </edge>
    <edge id=":19_1" function="internal">
        <lane id=":19_1_0" index="0" disallow="rail_fast" speed="36.11" length="12.94" width="2.67" shape="5.50,-9.15 6.20,3.84"/>
        <lane id=":19_1_1" index="1" disallow="rail_fast" speed="36.11" length="12.94" width="2.73" shape="2.78,-8.99 3.47,3.93"/>
        <lane id=":19_1_2" index="2" disallow="rail_fast" speed="36.11" length="12.94" width="2.95" shape="-0.06,-8.83 0.58,4.03"/>
    </edge>
    <edge id=":2_0" function="internal">
        <lane id=":2_0_0" index="0" disallow="bus truck rail_fast" speed="12.44" length="25.62" width="2.69" shape="-3.33,43.45 -3.48,40.93 -3.64,38.55 -3.79,36.30 -3.95,34.18 -4.12,32.19 -4.28,30.34 -4.45,28.62 -4.62,27.03 -4.80,25.57 -4.98,24.24 -5.16,23.05 -5.35,21.99 -5.54,21.06 -5.73,20.27 -5.92,19.60 -6.12,19.07 -6.32,18.67 -6.52,18.40 -6.73,18.27"/>
    </edge>
    <edge id=":2_1" function="internal">
        <lane id=":2_1_0" index="0" disallow="rail_fast" speed="36.11" length="26.24" width="2.98" shape="-3.33,43.45 -4.86,17.24"/>
        <lane id=":2_1_1" index="1" disallow="rail_fast" speed="36.11" length="26.24" width="2.86" shape="-0.41,43.34 -1.85,17.14"/>
        <lane id=":2_1_2" index="2" disallow="rail_fast" speed="36.11" length="26.24" width="3.06" shape="2.58,43.22 1.19,17.04"/>
    </edge>
    <edge id=":20_0" function="internal">
        <lane id=":20_0_0" index="0" disallow="rail_fast" speed="36.11" length="5.88" width="2.64" shape="6.21,4.04 6.52,9.95"/>
        <lane id=":20_0_1" index="1" disallow="rail_fast" speed="36.11" length="5.88" width="2.78" shape="3.48,4.13 3.79,10.00"/>
        <lane id=":20_0_2" index="2" disallow="rail_fast" speed="36.11" length="5.88" width="2.99" shape="0.59,4.23 0.87,10.06"/>
    </edge>
    <edge id=":20_3" function="internal">
        <lane id=":20_3_0" index="0" disallow="bus truck rail_fast" speed="7.81" length="10.60" width="2.76" shape="0.59,4.23 0.62,4.99 0.61,5.72 0.58,6.42 0.53,7.08 0.44,7.71 0.33,8.31 0.20,8.88 0.04,9.42 -0.15,9.92 -0.37,10.39 -0.61,10.83 -0.88,11.23 -1.18,11.60 -1.50,11.94 -1.85,12.25 -2.23,12.52 -2.63,12.77 -3.06,12.98 -3.51,13.15"/>
    </edge>
    <edge id=":21_0" function="internal">
        <lane id=":21_0_0" index="0" disallow="rail_fast" speed="36.11" length="6.89" width="2.61" shape="6.54,10.15 6.90,17.00"/>
        <lane id=":21_0_1" index="1" disallow="rail_fast" speed="36.11" length="6.89" width="2.87" shape="3.80,10.20 4.16,17.10"/>
    </edge>
    <edge id=":21_2" function="internal">
        <lane id=":21_2_0" index="0" disallow="bus truck rail_fast" speed="36.11" length="1.24" width="2.87" shape="4.22,18.34 4.16,17.10"/>
    </edge>
    <edge id=":22_0" function="internal">
        <lane id=":22_0_0" index="0" disallow="rail_fast" speed="36.11" length="10.14" width="3.16" shape="4.14,16.80 -6.03,16.94"/>
        <lane id=":22_0_1" index="1" disallow="rail_fast" speed="36.11" length="10.14" width="3.35" shape="4.03,13.65 -6.07,13.69"/>
    </edge>
    <edge id=":22_2" function="internal">
        <lane id=":22_2_0" index="0" disallow="bus truck rail_fast" speed="36.11" length="0.49" width="3.35" shape="-6.56,13.69 -6.07,13.69"/>
    </edge>
    <edge id=":23_0" function="internal">
        <lane id=":23_0_0" index="0" disallow="bus truck rail_fast" speed="36.11" length="11.79" width="2.61" shape="7.54,18.93 7.65,30.72"/>
    </edge>
    <edge id=":23_1" function="internal">
        <lane id=":23_1_0" index="0" disallow="rail_fast" speed="36.11" length="13.55" width="2.61" shape="6.92,17.20 7.65,30.72"/>
        <lane id=":23_1_1" index="1" disallow="rail_fast" speed="36.11" length="13.55" width="2.93" shape="4.17,17.30 4.88,30.84"/>
    </edge>
    <edge id=":26_0" function="internal">
        <lane id=":26_0_0" index="0" disallow="bus rail_fast" speed="36.11" length="7.58" width="2.89" shape="-53.80,-2.87 -53.28,-2.67 -52.80,-2.49 -52.38,-2.33 -51.99,-2.19 -51.64,-2.06 -51.31,-1.95 -51.00,-1.85 -50.70,-1.76 -50.41,-1.69 -50.12,-1.62 -49.83,-1.55 -49.53,-1.49 -49.21,-1.43 -48.86,-1.38 -48.49,-1.32 -48.08,-1.26 -47.63,-1.19 -47.13,-1.12 -46.58,-1.04"/>
        <lane id=":26_0_1" index="1" disallow="rail_fast" speed="36.11" length="7.58" width="3.30" shape="-53.80,-2.87 -53.28,-2.67 -52.81,-2.49 -52.39,-2.32 -52.00,-2.18 -51.65,-2.05 -51.33,-1.93 -51.02,-1.82 -50.73,-1.72 -50.45,-1.62 -50.17,-1.53 -49.89,-1.44 -49.59,-1.35 -49.28,-1.26 -48.95,-1.16 -48.59,-1.06 -48.20,-0.95 -47.76,-0.82 -47.28,-0.69 -46.74,-0.53"/>
        <lane id=":26_0_2" index="2" disallow="rail_fast" speed="36.11" length="7.58" width="3.33" shape="-55.08,0.47 -54.55,0.68 -54.07,0.86 -53.63,1.03 -53.24,1.18 -52.88,1.31 -52.55,1.44 -52.24,1.55 -51.94,1.65 -51.65,1.75 -51.37,1.84 -51.08,1.93 -50.77,2.02 -50.46,2.11 -50.12,2.21 -49.75,2.31 -49.34,2.43 -48.89,2.55 -48.40,2.69 -47.85,2.84"/>
        <lane id=":26_0_3" index="3" disallow="rail_fast" speed="36.11" length="7.58" width="3.11" shape="-56.32,3.71 -48.96,6.23"/>
    </edge>
    <edge id=":27_0" function="internal">
        <lane id=":27_0_0" index="0" disallow="bus rail_fast" speed="36.11" length="3.87" width="2.89" shape="-27.93,-0.38 -27.63,-0.39 -27.37,-0.40 -27.13,-0.41 -26.92,-0.41 -26.72,-0.42 -26.54,-0.42 -26.37,-0.43 -26.21,-0.43 -26.05,-0.43 -25.90,-0.43 -25.74,-0.43 -25.58,-0.42 -25.41,-0.42 -25.23,-0.41 -25.04,-0.40 -24.82,-0.39 -24.58,-0.38 -24.32,-0.36 -24.03,-0.34"/>
        <lane id=":27_0_1" index="1" disallow="rail_fast" speed="36.11" length="3.87" width="3.59" shape="-28.16,2.82 -24.30,3.13"/>
        <lane id=":27_0_2" index="2" disallow="rail_fast" speed="36.11" length="3.87" width="3.33" shape="-28.44,6.50 -24.59,6.79"/>
        <lane id=":27_0_3" index="3" disallow="rail_fast" speed="36.11" length="3.87" width="3.01" shape="-28.68,9.86 -24.85,10.09"/>
    </edge>
    <edge id=":28_0" function="internal">
        <lane id=":28_0_0" index="0" disallow="bus truck rail_fast" speed="36.11" length="84.70" width="2.94" shape="-16.33,0.15 -101.03,-0.05"/>
    </edge>
    <edge id=":28_1" function="internal">
        <lane id=":28_1_0" index="0" disallow="rail_fast" speed="36.11" length="4.03" width="3.57" shape="-16.44,3.67 -12.46,3.85"/>
        <lane id=":28_1_1" index="1" disallow="rail_fast" speed="36.11" length="4.03" width="3.33" shape="-16.56,7.18 -12.53,7.31"/>
        <lane id=":28_1_2" index="2" disallow="rail_fast" speed="36.11" length="4.03" width="3.01" shape="-16.67,10.39 -12.60,10.49"/>
    </edge>
    <edge id=":29_0" function="internal">
        <lane id=":29_0_0" index="0" disallow="rail_fast" speed="36.11" length="7.10" width="3.50" shape="-5.75,3.90 1.36,3.95"/>
        <lane id=":29_0_1" index="1" disallow="rail_fast" speed="36.11" length="7.10" width="3.30" shape="-5.62,7.34 1.49,7.37"/>
        <lane id=":29_0_2" index="2" disallow="rail_fast" speed="36.11" length="7.10" width="3.02" shape="-5.50,10.51 1.60,10.53"/>
    </edge>
    <edge id=":29_3" function="internal">
        <lane id=":29_3_0" index="0" disallow="bus truck rail_fast" speed="7.90" length="13.13" width="2.17" shape="-5.50,10.51 -4.55,10.53 -3.66,10.59 -2.81,10.68 -2.01,10.82 -1.26,10.98 -0.56,11.19 0.09,11.43 0.70,11.70 1.25,12.01 1.76,12.36 2.22,12.75 2.63,13.17 2.99,13.63 3.30,14.13 3.57,14.66 3.78,15.22 3.95,15.83 4.07,16.47 4.14,17.15"/>
    </edge>
    <edge id=":3_0" function="internal">
        <lane id=":3_0_0" index="0" disallow="rail_fast" speed="36.11" length="1.56" width="2.99" shape="-4.87,17.04 -4.78,18.60"/>
        <lane id=":3_0_1" index="1" disallow="rail_fast" speed="36.11" length="1.56" width="3.02" shape="-1.86,16.94 -1.78,18.49"/>
    </edge>
    <edge id=":3_2" function="internal">
        <lane id=":3_2_0" index="0" disallow="bus truck rail_fast" speed="36.11" length="0.55" width="2.98" shape="1.18,16.84 0.94,16.35"/>
    </edge>
    <edge id=":31_0" function="internal">
        <lane id=":31_0_0" index="0" disallow="bus truck rail_fast" speed="6.60" length="9.65" width="2.61" shape="16.26,16.62 15.38,16.57 14.54,16.54 13.75,16.52 13.00,16.52 12.30,16.55 11.66,16.58 11.05,16.64 10.50,16.72 9.99,16.81 9.54,16.92 9.12,17.05 8.76,17.20 8.44,17.36 8.18,17.55 7.96,17.75 7.78,17.97 7.66,18.20 7.58,18.46 7.55,18.73"/>
    </edge>
    <edge id=":31_1" function="internal">
        <lane id=":31_1_0" index="0" disallow="rail_fast" speed="36.11" length="11.28" width="3.02" shape="16.26,16.62 5.20,16.78"/>
        <lane id=":31_1_1" index="1" disallow="rail_fast" speed="36.11" length="11.28" width="3.04" shape="16.46,13.59 5.21,13.65"/>
        <lane id=":31_1_2" index="2" disallow="rail_fast" speed="5.16" length="11.28" width="3.03" shape="16.66,10.57 5.13,10.54"/>
    </edge>
    <edge id=":32_0" function="internal">
        <lane id=":32_0_0" index="0" disallow="rail_fast" speed="36.11" length="21.63" width="3.07" shape="5.00,16.79 26.67,16.49"/>
        <lane id=":32_0_1" index="1" disallow="rail_fast" speed="36.11" length="21.63" width="3.15" shape="5.00,13.65 26.58,13.57"/>
    </edge>
    <edge id=":32_2" function="internal">
        <lane id=":32_2_0" index="0" disallow="bus truck rail_fast" speed="36.11" length="21.46" width="2.34" shape="5.09,10.54 26.55,10.80"/>
    </edge>
    <edge id=":4_0" function="internal">
        <lane id=":4_0_0" index="0" disallow="rail_fast" speed="36.11" length="5.76" width="3.46" shape="1.56,3.95 7.40,4.00"/>
        <lane id=":4_0_1" index="1" disallow="rail_fast" speed="36.11" length="5.76" width="3.28" shape="1.69,7.37 7.38,7.39"/>
    </edge>
    <edge id=":4_2" function="internal">
        <lane id=":4_2_0" index="0" disallow="bus truck rail_fast" speed="7.83" length="11.81" width="3.28" shape="0.97,16.15 1.15,15.25 1.34,14.40 1.55,13.60 1.78,12.85 2.03,12.14 2.30,11.48 2.58,10.88 2.88,10.32 3.20,9.81 3.54,9.35 3.89,8.94 4.27,8.57 4.66,8.26 5.07,7.99 5.49,7.77 5.94,7.61 6.40,7.49 6.88,7.41 7.38,7.39"/>
    </edge>
    <edge id=":5_0" function="internal">
        <lane id=":5_0_0" index="0" disallow="bus truck rail_fast" speed="36.11" length="10.81" width="3.46" shape="8.10,2.92 8.84,3.08 9.51,3.22 10.12,3.34 10.69,3.45 11.21,3.54 11.70,3.62 12.16,3.68 12.61,3.74 13.05,3.79 13.50,3.83 13.95,3.87 14.41,3.91 14.90,3.94 15.43,3.97 15.99,4.00 16.61,4.03 17.28,4.07 18.01,4.12 18.82,4.17"/>
    </edge>
    <edge id=":5_1" function="internal">
        <lane id=":5_1_0" index="0" disallow="rail_fast" speed="36.11" length="11.13" width="3.46" shape="7.60,4.00 18.82,4.17"/>
        <lane id=":5_1_1" index="1" disallow="rail_fast" speed="36.11" length="11.13" width="3.28" shape="7.58,7.39 18.60,7.53"/>
    </edge>
    <edge id=":7_0" function="internal">
        <lane id=":7_0_0" index="0" disallow="rail_fast" speed="36.11" length="7.30" width="2.94" shape="-5.20,11.36 -5.64,4.07"/>
        <lane id=":7_0_1" index="1" disallow="rail_fast" speed="36.11" length="7.30" width="3.25" shape="-2.15,11.29 -2.53,4.01"/>
    </edge>
    <edge id=":7_2" function="internal">
        <lane id=":7_2_0" index="0" disallow="bus truck rail_fast" speed="7.33" length="7.97" width="3.25" shape="2.17,9.86 1.71,9.66 1.27,9.45 0.86,9.23 0.47,8.99 0.10,8.74 -0.24,8.48 -0.56,8.21 -0.85,7.93 -1.12,7.63 -1.37,7.32 -1.59,7.00 -1.79,6.67 -1.97,6.33 -2.12,5.97 -2.25,5.60 -2.35,5.22 -2.43,4.83 -2.49,4.42 -2.53,4.01"/>
    </edge>
    <edge id=":8_0" function="internal">
        <lane id=":8_0_0" index="0" disallow="rail_fast" speed="36.11" length="8.73" width="2.52" shape="-5.79,1.40 -6.25,-7.32"/>
        <lane id=":8_0_1" index="1" disallow="rail_fast" speed="36.11" length="8.73" width="2.84" shape="-2.67,1.23 -3.12,-7.49"/>
    </edge>
    <edge id=":8_2" function="internal">
        <lane id=":8_2_0" index="0" disallow="bus truck rail_fast" speed="6.95" length="9.35" width="2.52" shape="-10.54,-0.04 -10.07,-0.15 -9.63,-0.29 -9.22,-0.46 -8.83,-0.66 -8.47,-0.89 -8.14,-1.15 -7.83,-1.44 -7.55,-1.77 -7.30,-2.12 -7.07,-2.50 -6.87,-2.92 -6.70,-3.36 -6.55,-3.83 -6.44,-4.34 -6.35,-4.87 -6.28,-5.44 -6.25,-6.04 -6.24,-6.66 -6.25,-7.32"/>
    </edge>
    <edge id=":9_0" function="internal">
        <lane id=":9_0_0" index="0" disallow="bus truck rail_fast" speed="36.11" length="2.73" width="2.51" shape="-6.99,-29.37 -6.96,-32.17"/>
        <lane id=":9_0_1" index="1" disallow="rail_fast" speed="36.11" length="2.73" width="2.84" shape="-4.27,-29.45 -4.28,-29.65 -4.29,-29.83 -4.30,-29.99 -4.30,-30.14 -4.31,-30.27 -4.31,-30.40 -4.32,-30.51 -4.32,-30.62 -4.32,-30.73 -4.32,-30.84 -4.31,-30.94 -4.31,-31.05 -4.30,-31.17 -4.29,-31.29 -4.29,-31.43 -4.28,-31.57 -4.26,-31.74 -4.25,-31.92 -4.24,-32.12"/>
    </edge>

    <edge id="43205" from="23" to="24" priority="1" spreadType="center" length="44.80">
        <lane id="43205_0" index="0" disallow="rail_fast" speed="36.11" length="44.80" width="2.61" customShape="1" shape="7.65,30.72 8.46,44.23 9.35,59.25 10.22,73.93"/>
        <lane id="43205_1" index="1" disallow="rail_fast" speed="36.11" length="44.80" width="2.93" customShape="1" shape="4.88,30.84 5.67,44.31 6.43,59.34 7.27,74.10"/>
    </edge>
    <edge id="43343" from="1" to="2" priority="1" spreadType="center" length="44.97">
        <lane id="43343_0" index="0" disallow="rail_fast" speed="36.11" length="44.97" width="2.89" customShape="1" shape="-1.53,74.62 -2.40,59.62 -3.27,44.58 -3.33,43.45"/>
        <lane id="43343_1" index="1" disallow="rail_fast" speed="36.11" length="44.97" width="2.86" customShape="1" shape="1.38,74.45 0.52,59.53 -0.35,44.50 -0.41,43.34"/>
        <lane id="43343_2" index="2" disallow="rail_fast" speed="36.11" length="44.97" width="2.78" customShape="1" shape="4.23,74.29 3.40,59.44 2.65,44.40 2.58,43.22"/>
    </edge>
    <edge id="43382" from="8" to="9" priority="1" spreadType="center" length="24.84">
        <lane id="43382_0" index="0" disallow="rail_fast" speed="36.11" length="24.84" width="2.52" customShape="1" shape="-6.25,-7.32 -6.75,-18.26 -6.99,-29.37"/>
        <lane id="43382_1" index="1" disallow="rail_fast" speed="36.11" length="24.84" width="2.84" customShape="1" shape="-3.12,-7.49 -3.72,-18.27 -4.27,-29.45"/>
    </edge>
    <edge id="43386" from="9" to="10" priority="1" spreadType="center" length="19.69">
        <lane id="43386_0" index="0" disallow="bus truck rail_fast" speed="36.11" length="19.69" width="2.51" customShape="1" shape="-6.96,-32.17 -6.58,-40.59 -6.44,-48.86"/>
        <lane id="43386_1" index="1" disallow="rail_fast" speed="36.11" length="19.69" width="2.84" customShape="1" shape="-4.24,-32.12 -3.59,-40.64 -3.32,-48.89"/>
    </edge>
    <edge id="43390" from="10" to="11" priority="1" spreadType="center" length="7.33">
        <lane id="43390_0" index="0" disallow="rail_fast" speed="36.11" length="7.33" width="2.37" customShape="1" shape="-6.40,-52.01 -6.39,-54.06 -6.36,-57.80"/>
        <lane id="43390_1" index="1" disallow="rail_fast" speed="36.11" length="7.33" width="3.54" customShape="1" shape="-3.30,-52.08 -3.34,-54.17 -3.40,-57.84"/>
    </edge>
    <edge id="43394" from="16" to="17" priority="1" spreadType="center" length="7.31">
        <lane id="43394_0" index="0" disallow="rail_fast" speed="36.11" length="7.31" width="2.93" customShape="1" shape="3.06,-58.08 3.23,-54.63"/>
        <lane id="43394_1" index="1" disallow="rail_fast" speed="36.11" length="7.31" width="3.19" customShape="1" shape="-0.04,-57.96 0.12,-54.50"/>
    </edge>
    <edge id="43400" from="17" to="18" priority="1" spreadType="center" length="19.77">
        <lane id="43400_0" index="0" disallow="rail_fast" speed="36.11" length="19.77" width="2.91" customShape="1" shape="3.62,-46.69 3.90,-40.88 4.28,-32.91"/>
        <lane id="43400_1" index="1" disallow="rail_fast" speed="36.11" length="19.77" width="2.91" customShape="1" shape="0.57,-46.66 0.98,-40.78 1.36,-32.87"/>
        <lane id="43400_2" index="2" disallow="rail_fast" speed="36.11" length="19.77" width="2.91" customShape="1" shape="-0.02,-46.66 -0.48,-40.73 -1.26,-32.83"/>
    </edge>
    <edge id="43406" from="18" to="19" priority="1" spreadType="center" length="24.58">
        <lane id="43406_0" index="0" disallow="rail_fast" speed="36.11" length="24.58" width="2.68" customShape="1" shape="4.43,-29.81 5.00,-18.71 5.50,-9.15"/>
        <lane id="43406_1" index="1" disallow="rail_fast" speed="36.11" length="24.58" width="2.73" customShape="1" shape="1.53,-29.69 2.20,-18.55 2.78,-8.99"/>
        <lane id="43406_2" index="2" disallow="rail_fast" speed="36.11" length="24.58" width="2.91" customShape="1" shape="-1.38,-29.57 -0.67,-18.38 -0.06,-8.83"/>
    </edge>
    <edge id="43456" from="25" to="26" priority="1" spreadType="center" length="13.04">
        <lane id="43456_0" index="0" disallow="rail_fast" speed="36.11" length="13.04" width="3.26" customShape="1" shape="-63.01,-6.47 -56.71,-4.01 -53.80,-2.87"/>
        <lane id="43456_1" index="1" disallow="rail_fast" speed="36.11" length="13.04" width="3.79" customShape="1" shape="-64.28,-3.14 -58.10,-0.72 -55.08,0.47"/>
        <lane id="43456_2" index="2" disallow="rail_fast" speed="36.11" length="13.04" width="3.11" customShape="1" shape="-65.55,0.17 -59.46,2.51 -56.32,3.71"/>
    </edge>
    <edge id="43464" from="26" to="27" priority="1" spreadType="center" length="25.05">
        <lane id="43464_0" index="0" disallow="bus rail_fast" speed="36.11" length="25.05" width="2.89" customShape="1" shape="-46.58,-1.04 -44.42,-0.72 -38.16,-0.30 -31.85,-0.28 -27.93,-0.38"/>
        <lane id="43464_1" index="1" disallow="rail_fast" speed="36.11" length="25.05" width="3.30" customShape="1" shape="-46.74,-0.53 -44.56,0.09 -38.43,1.56 -32.17,2.47 -28.16,2.82"/>
        <lane id="43464_2" index="2" disallow="rail_fast" speed="36.11" length="25.05" width="3.33" customShape="1" shape="-47.85,2.84 -45.59,3.47 -39.26,5.02 -32.71,6.11 -28.44,6.50"/>
        <lane id="43464_3" index="3" disallow="rail_fast" speed="36.11" length="25.05" width="3.11" customShape="1" shape="-48.96,6.23 -46.64,6.94 -40.13,8.51 -33.25,9.50 -28.68,9.86"/>
    </edge>
    <edge id="43472" from="27" to="28" priority="1" spreadType="center" length="11.85">
        <lane id="43472_0" index="0" disallow="rail_fast" speed="36.11" length="11.85" width="2.89" customShape="1" shape="-24.03,-0.34 -19.76,-0.07 -16.33,0.15"/>
        <lane id="43472_1" index="1" disallow="rail_fast" speed="36.11" length="11.85" width="3.59" customShape="1" shape="-24.30,3.13 -19.95,3.43 -16.44,3.67"/>
        <lane id="43472_2" index="2" disallow="rail_fast" speed="36.11" length="11.85" width="3.33" customShape="1" shape="-24.59,6.79 -20.16,7.01 -16.56,7.18"/>
        <lane id="43472_3" index="3" disallow="rail_fast" speed="36.11" length="11.85" width="3.01" customShape="1" shape="-24.85,10.09 -20.35,10.26 -16.67,10.39"/>
    </edge>
    <edge id="43476" from="12" to="13" priority="1" spreadType="center" length="12.65">
        <lane id="43476_0" index="0" disallow="rail_fast" speed="36.11" length="12.65" width="3.10" customShape="1" shape="-17.17,16.93 -20.72,16.77 -25.55,16.55"/>
        <lane id="43476_1" index="1" disallow="rail_fast" speed="36.11" length="12.65" width="3.26" customShape="1" shape="-17.06,13.63 -20.54,13.52 -25.35,13.36"/>
    </edge>
    <edge id="43480" from="13" to="14" priority="1" spreadType="center" length="28.07">
        <lane id="43480_0" index="0" disallow="rail_fast" speed="36.11" length="28.07" width="3.10" customShape="1" shape="-28.59,16.39 -34.23,16.06 -41.41,14.90 -48.55,13.33 -54.02,11.56"/>
        <lane id="43480_1" index="1" disallow="bus rail_fast" speed="36.11" length="28.07" width="2.98" customShape="1" shape="-28.34,13.20 -33.77,12.79 -40.82,11.71 -47.52,10.17 -52.90,8.41"/>
    </edge>
    <edge id="43484" from="14" to="15" priority="1" spreadType="center" length="13.77">
        <lane id="43484_0" index="0" disallow="rail_fast" speed="36.11" length="13.77" width="3.19" customShape="1" shape="-56.84,10.56 -62.01,8.54 -68.43,6.02"/>
        <lane id="43484_1" index="1" disallow="rail_fast" speed="36.11" length="13.77" width="3.30" customShape="1" shape="-55.64,7.44 -60.73,5.50 -67.25,3.01"/>
    </edge>
    <edge id="43488" from="5" to="6" priority="1" spreadType="center" length="37.32">
        <lane id="43488_0" index="0" disallow="rail_fast" speed="36.11" length="37.32" width="3.46" customShape="1" shape="18.82,4.17 35.82,5.28 54.52,6.50"/>
        <lane id="43488_1" index="1" disallow="rail_fast" speed="36.11" length="37.32" width="3.28" customShape="1" shape="18.60,7.53 35.64,8.64 54.30,9.86"/>
    </edge>
    <edge id="43494" from="30" to="31" priority="1" spreadType="center" length="37.32">
        <lane id="43494_0" index="0" disallow="rail_fast" speed="36.11" length="37.32" width="3.02" customShape="1" shape="53.69,19.06 35.14,17.85 16.26,16.62"/>
        <lane id="43494_1" index="1" disallow="rail_fast" speed="36.11" length="37.32" width="3.04" customShape="1" shape="53.89,16.04 35.31,14.82 16.46,13.59"/>
        <lane id="43494_2" index="2" disallow="rail_fast" speed="36.11" length="37.32" width="3.04" customShape="1" shape="54.09,13.01 35.47,11.79 16.66,10.57"/>
    </edge>
    <edge id="43594" from="2" to="3" priority="1" spreadType="center" length="10.99">
        <lane id="43594_0" index="0" disallow="rail_fast" speed="36.11" length="10.99" width="2.98" customShape="1" shape="-4.86,17.24 -4.87,17.04"/>
        <lane id="43594_1" index="1" disallow="rail_fast" speed="36.11" length="10.99" width="2.86" customShape="1" shape="-1.85,17.14 -1.86,16.94"/>
        <lane id="43594_2" index="2" disallow="rail_fast" speed="36.11" length="10.99" width="3.06" customShape="1" shape="1.19,17.04 1.18,16.84"/>
    </edge>
    <edge id="43598" from="21" to="23" priority="1" spreadType="center" length="10.92">
        <lane id="43598_0" index="0" disallow="rail_fast" speed="36.11" length="10.92" width="2.61" acceleration="1" customShape="1" shape="6.90,17.00 6.92,17.20"/>
        <lane id="43598_1" index="1" disallow="rail_fast" speed="36.11" length="10.92" width="2.87" customShape="1" shape="4.16,17.10 4.17,17.30"/>
    </edge>
    <edge id="43602" from="4" to="5" priority="1" spreadType="center" length="9.34">
        <lane id="43602_0" index="0" disallow="rail_fast" speed="36.11" length="9.34" width="3.46" acceleration="1" customShape="1" shape="7.40,4.00 7.60,4.00"/>
        <lane id="43602_1" index="1" disallow="rail_fast" speed="36.11" length="9.34" width="3.28" customShape="1" shape="7.38,7.39 7.58,7.39"/>
    </edge>
    <edge id="43608" from="31" to="32" priority="1" spreadType="center" length="8.24">
        <lane id="43608_0" index="0" disallow="rail_fast" speed="36.11" length="8.24" width="3.02" customShape="1" shape="5.20,16.78 5.00,16.79"/>
        <lane id="43608_1" index="1" disallow="rail_fast" speed="36.11" length="8.24" width="3.04" customShape="1" shape="5.21,13.65 5.00,13.65"/>
        <lane id="43608_2" index="2" disallow="rail_fast" speed="36.11" length="8.24" width="3.03" customShape="1" shape="5.13,10.54 12.37,10.56 5.09,10.54"/>
    </edge>
    <edge id="43614" from="28" to="29" priority="1" spreadType="center" length="6.80">
        <lane id="43614_0" index="0" disallow="rail_fast" speed="36.11" length="6.80" width="3.57" customShape="1" shape="-12.46,3.85 -10.54,3.87 -5.75,3.90"/>
        <lane id="43614_1" index="1" disallow="rail_fast" speed="36.11" length="6.80" width="3.33" customShape="1" shape="-12.53,7.31 -10.49,7.32 -5.62,7.34"/>
        <lane id="43614_2" index="2" disallow="rail_fast" speed="36.11" length="6.80" width="3.01" customShape="1" shape="-12.60,10.49 -10.44,10.50 -5.50,10.51"/>
    </edge>
    <edge id="43618" from="22" to="12" priority="1" spreadType="center" length="7.65">
        <lane id="43618_0" index="0" disallow="rail_fast" speed="36.11" length="7.65" width="3.16" acceleration="1" customShape="1" shape="-6.03,16.94 -6.23,16.94"/>
        <lane id="43618_1" index="1" disallow="rail_fast" speed="36.11" length="7.65" width="3.35" customShape="1" shape="-6.07,13.69 -6.27,13.69"/>
    </edge>
    <edge id="43624" from="29" to="4" priority="1" spreadType="center" length="14.64">
        <lane id="43624_0" index="0" disallow="rail_fast" speed="36.11" length="14.64" width="3.50" customShape="1" shape="1.36,3.95 1.56,3.95"/>
        <lane id="43624_1" index="1" disallow="rail_fast" speed="36.11" length="14.64" width="3.30" customShape="1" shape="1.49,7.37 1.69,7.37"/>
        <lane id="43624_2" index="2" disallow="rail_fast" speed="36.11" length="14.64" width="3.02" customShape="1" shape="1.60,10.53 1.80,10.53"/>
    </edge>
    <edge id="43628" from="32" to="22" priority="1" spreadType="center" length="14.58">
        <lane id="43628_0" index="0" disallow="rail_fast" speed="36.11" length="14.58" width="3.07" customShape="1" shape="26.67,16.49 5.57,16.78 4.14,16.80"/>