<!-- generated on Wed Feb 10 12:29:49 2021 by Eclipse SUMO netconvert Version 1.8.0
<configuration xmlns:xsi="http://www.w3.org/2001/XMLSchema-instance" xsi:noNamespaceSchemaLocation="http://sumo.dlr.de/xsd/netconvertConfiguration.xsd">

    <input>
        <node-files value="./converted_scenarios/SUMO/DEU_Flensburg-86_1_I-1-1/DEU_Flensburg-86_1_I-1-1.nod.xml"/>
        <edge-files value="./converted_scenarios/SUMO/DEU_Flensburg-86_1_I-1-1/DEU_Flensburg-86_1_I-1-1.edg.xml"/>
        <connection-files value="./converted_scenarios/SUMO/DEU_Flensburg-86_1_I-1-1/DEU_Flensburg-86_1_I-1-1.con.xml"/>
        <tllogic-files value="./converted_scenarios/SUMO/DEU_Flensburg-86_1_I-1-1/DEU_Flensburg-86_1_I-1-1.tll.xml"/>
        <type-files value="/home/zen/commonroad-interactive-benchmarks/install/commonroad-map-tool/crmapconverter/sumo_map/templates/DEU.typ.xml"/>
    </input>

    <output>
        <output-file value="./converted_scenarios/SUMO/DEU_Flensburg-86_1_I-1-1/DEU_Flensburg-86_1_I-1-1.net.xml"/>
    </output>

    <processing>
        <geometry.remove.keep-edges.explicit value="true"/>
        <geometry.avoid-overlap value="true"/>
        <offset.disable-normalization value="true"/>
    </processing>

    <junctions>
        <no-turnarounds value="true"/>
        <junctions.internal-link-detail value="20"/>
    </junctions>

    <report>
        <aggregate-warnings value="5"/>
    </report>

    <random_number>
        <seed value="1234"/>
    </random_number>

</configuration>
--><net xmlns:xsi="http://www.w3.org/2001/XMLSchema-instance" version="1.6" junctionCornerDetail="5" junctionLinkDetail="20" limitTurnSpeed="5.50" xsi:noNamespaceSchemaLocation="http://sumo.dlr.de/xsd/net_file.xsd">

    <location netOffset="0.00,0.00" convBoundary="-197.77,-76.45,127.52,363.32" origBoundary="-197.77,-76.45,127.52,363.32" projParameter="!"/>

    <type id="highway.bridleway" priority="1" speed="2.78" allow="pedestrian" oneway="1" width="2.00"/>
    <type id="highway.bus_guideway" priority="1" speed="27.78" allow="bus" oneway="1"/>
    <type id="highway.cycleway" priority="1" speed="8.33" allow="bicycle" oneway="0" width="1.00"/>
    <type id="highway.footway" priority="1" speed="2.78" allow="pedestrian" oneway="1" width="2.00"/>
    <type id="highway.ford" priority="1" speed="2.78" allow="army" oneway="0"/>
    <type id="highway.living_street" priority="2" speed="2.78" disallow="tram rail_urban rail rail_electric rail_fast ship" oneway="0"/>
    <type id="highway.motorway" priority="14" speed="39.44" allow="private emergency authority army vip passenger hov taxi bus coach delivery truck trailer motorcycle evehicle custom1 custom2" oneway="1"/>
    <type id="highway.motorway_link" priority="9" speed="22.22" allow="private emergency authority army vip passenger hov taxi bus coach delivery truck trailer motorcycle evehicle custom1 custom2" oneway="1"/>
    <type id="highway.path" priority="1" speed="2.78" allow="pedestrian bicycle" oneway="0" width="2.00"/>
    <type id="highway.pedestrian" priority="1" speed="2.78" allow="pedestrian" oneway="1" width="2.00"/>
    <type id="highway.primary" priority="12" speed="27.78" disallow="pedestrian tram rail_urban rail rail_electric rail_fast ship" oneway="0"/>
    <type id="highway.primary_link" priority="7" speed="22.22" disallow="pedestrian tram rail_urban rail rail_electric rail_fast ship" oneway="0"/>
    <type id="highway.raceway" priority="15" speed="83.33" allow="vip" oneway="0"/>
    <type id="highway.residential" priority="3" speed="13.89" disallow="pedestrian tram rail_urban rail rail_electric rail_fast ship" oneway="0"/>
    <type id="highway.secondary" priority="11" speed="27.78" disallow="pedestrian tram rail_urban rail rail_electric rail_fast ship" oneway="0"/>
    <type id="highway.secondary_link" priority="6" speed="22.22" disallow="pedestrian tram rail_urban rail rail_electric rail_fast ship" oneway="0"/>
    <type id="highway.service" priority="1" speed="5.56" allow="pedestrian delivery bicycle" oneway="0"/>
    <type id="highway.stairs" priority="1" speed="1.39" allow="pedestrian" oneway="1" width="2.00"/>
    <type id="highway.step" priority="1" speed="1.39" allow="pedestrian" oneway="1" width="2.00"/>
    <type id="highway.steps" priority="1" speed="1.39" allow="pedestrian" oneway="1" width="2.00"/>
    <type id="highway.tertiary" priority="10" speed="22.22" disallow="pedestrian tram rail_urban rail rail_electric rail_fast ship" oneway="0"/>
    <type id="highway.tertiary_link" priority="5" speed="22.22" disallow="pedestrian tram rail_urban rail rail_electric rail_fast ship" oneway="0"/>
    <type id="highway.track" priority="1" speed="5.56" allow="pedestrian motorcycle moped bicycle" oneway="0"/>
    <type id="highway.trunk" priority="13" speed="27.78" disallow="pedestrian bicycle tram rail_urban rail rail_electric rail_fast ship" oneway="0"/>
    <type id="highway.trunk_link" priority="8" speed="22.22" disallow="pedestrian bicycle tram rail_urban rail rail_electric rail_fast ship" oneway="0"/>
    <type id="highway.unclassified" priority="4" speed="13.89" disallow="pedestrian tram rail_urban rail rail_electric rail_fast ship" oneway="0"/>
    <type id="highway.unsurfaced" priority="1" speed="8.33" disallow="tram rail_urban rail rail_electric rail_fast ship" oneway="0"/>
    <type id="railway.highspeed" priority="21" speed="69.44" allow="rail_fast" oneway="1"/>
    <type id="railway.light_rail" priority="19" speed="27.78" allow="rail_urban" oneway="1"/>
    <type id="railway.preserved" priority="16" speed="27.78" allow="rail" oneway="1"/>
    <type id="railway.rail" priority="20" speed="44.44" allow="rail" oneway="1"/>
    <type id="railway.subway" priority="18" speed="27.78" allow="rail_urban" oneway="1"/>
    <type id="railway.tram" priority="17" speed="13.89" allow="tram" oneway="1"/>

    <edge id=":48_0" function="internal">
        <lane id=":48_0_0" index="0" disallow="pedestrian tram rail_urban rail rail_electric rail_fast ship" speed="6.79" length="10.36" width="3.50" shape="57.51,235.94 56.56,234.89 55.49,233.96 54.70,233.44 53.83,233.06 52.91,232.86 51.97,232.86 51.05,233.09 50.20,233.49 49.06,234.34 48.74,234.64"/>
    </edge>
    <edge id=":48_1" function="internal">
        <lane id=":48_1_0" index="0" disallow="pedestrian tram rail_urban rail rail_electric rail_fast ship" speed="36.11" length="17.01" width="3.50" shape="57.51,235.94 51.99,229.41 46.87,223.88 46.23,223.22"/>
    </edge>
    <edge id=":48_2" function="internal">
        <lane id=":48_2_0" index="0" disallow="pedestrian tram rail_urban rail rail_electric rail_fast ship" speed="9.70" length="18.11" width="3.50" shape="57.51,235.94 55.97,233.74 55.07,231.94 54.46,230.02 54.23,228.03 54.42,226.02 54.99,224.09 55.88,222.29 57.01,220.62 57.86,219.58"/>
    </edge>
    <edge id=":48_3" function="internal">
        <lane id=":48_3_0" index="0" disallow="pedestrian tram rail_urban rail rail_electric rail_fast ship" speed="8.37" length="13.24" width="3.50" shape="60.53,221.85 59.84,222.68 58.98,223.95 58.33,225.26 57.92,226.62 57.79,227.99 57.95,229.38 58.38,230.74 59.04,232.06 60.23,233.75"/>
    </edge>
    <edge id=":48_4" function="internal">
        <lane id=":48_4_0" index="0" disallow="pedestrian tram rail_urban rail rail_electric rail_fast ship" speed="36.11" length="17.40" width="3.50" shape="60.53,221.85 54.31,228.79 48.74,234.64"/>
    </edge>
    <edge id=":48_5" function="internal">
        <lane id=":48_5_0" index="0" disallow="pedestrian tram rail_urban rail rail_electric rail_fast ship" speed="8.38" length="16.58" width="3.50" shape="60.53,221.85 59.57,222.86 58.07,224.19 56.33,225.30 54.94,225.89 53.46,226.20 51.90,226.21 50.39,225.90 49.01,225.32 47.76,224.54 46.23,223.22"/>
    </edge>
    <edge id=":48_6" function="internal">
        <lane id=":48_6_0" index="0" disallow="pedestrian tram rail_urban rail rail_electric rail_fast ship" speed="6.86" length="10.71" width="3.50" shape="48.70,220.75 49.75,221.64 50.54,222.13 51.41,222.47 52.33,222.64 53.26,222.59 54.16,222.36 55.02,221.98 56.18,221.20 57.22,220.26 57.86,219.58"/>
    </edge>
    <edge id=":48_7" function="internal">
        <lane id=":48_7_0" index="0" disallow="pedestrian tram rail_urban rail rail_electric rail_fast ship" speed="36.11" length="17.38" width="3.50" shape="48.70,220.75 49.40,221.46 54.61,227.08 60.23,233.75"/>
    </edge>
    <edge id=":48_8" function="internal">
        <lane id=":48_8_0" index="0" disallow="pedestrian tram rail_urban rail rail_electric rail_fast ship" speed="8.33" length="15.81" width="3.50" shape="48.70,220.75 49.60,221.75 50.78,223.40 51.44,224.71 51.89,226.14 52.07,227.67 51.93,229.21 51.49,230.66 50.85,231.96 50.05,233.15 48.74,234.64"/>
    </edge>
    <edge id=":48_9" function="internal">
        <lane id=":48_9_0" index="0" disallow="pedestrian tram rail_urban rail rail_electric rail_fast ship" speed="6.78" length="10.09" width="3.50" shape="46.36,232.05 47.18,231.12 47.71,230.34 48.12,229.50 48.39,228.61 48.47,227.68 48.36,226.75 48.07,225.86 47.65,225.03 46.83,223.89 46.23,223.22"/>
    </edge>
    <edge id=":48_10" function="internal">
        <lane id=":48_10_0" index="0" disallow="pedestrian tram rail_urban rail rail_electric rail_fast ship" speed="36.11" length="16.97" width="3.50" shape="46.36,232.06 51.76,226.39 57.86,219.58"/>
    </edge>
    <edge id=":48_11" function="internal">
        <lane id=":48_11_0" index="0" disallow="pedestrian tram rail_urban rail rail_electric rail_fast ship" speed="8.33" length="16.19" width="3.50" shape="46.37,232.06 46.81,231.66 48.47,230.42 49.86,229.72 51.38,229.29 53.02,229.22 54.58,229.51 56.02,230.09 57.29,230.89 58.86,232.24 60.23,233.75"/>
    </edge>
    <edge id=":49_0" function="internal">
        <lane id=":49_0_0" index="0" disallow="pedestrian tram rail_urban rail rail_electric rail_fast ship" speed="36.11" length="13.49" width="3.50" shape="95.72,299.43 92.10,291.75 89.83,287.29"/>
    </edge>
    <edge id=":49_1" function="internal">
        <lane id=":49_1_0" index="0" disallow="pedestrian tram rail_urban rail rail_electric rail_fast ship" speed="6.48" length="8.25" width="3.50" shape="99.06,290.19 98.92,290.34 98.34,291.30 97.98,292.37 97.85,293.48 97.99,295.16 98.63,297.32 98.92,298.00"/>
    </edge>
    <edge id=":49_2" function="internal">
        <lane id=":49_2_0" index="0" disallow="pedestrian tram rail_urban rail rail_electric rail_fast ship" speed="6.89" length="10.33" width="3.50" shape="98.76,289.65 96.73,290.31 94.98,290.53 93.81,290.44 92.68,290.11 91.67,289.52 90.80,288.72 89.83,287.29"/>
    </edge>
    <edge id=":49_3" function="internal">
        <lane id=":49_3_0" index="0" disallow="pedestrian tram rail_urban rail rail_electric rail_fast ship" speed="36.11" length="13.74" width="3.50" shape="92.92,285.64 95.24,290.20 98.92,298.00"/>
    </edge>
    <edge id=":50_0" function="internal">
        <lane id=":50_0_0" index="0" disallow="pedestrian tram rail_urban rail rail_electric rail_fast ship" speed="6.93" length="11.10" width="3.50" shape="-155.04,-28.45 -155.56,-29.84 -156.21,-31.13 -156.77,-31.91 -157.45,-32.60 -158.25,-33.13 -159.14,-33.47 -160.10,-33.60 -161.06,-33.53 -162.45,-33.17 -163.34,-32.81"/>
    </edge>
    <edge id=":50_1" function="internal">
        <lane id=":50_1_0" index="0" disallow="pedestrian tram rail_urban rail rail_electric rail_fast ship" speed="36.11" length="19.16" width="3.50" shape="-155.05,-28.45 -159.48,-43.35 -160.44,-46.84"/>
    </edge>
    <edge id=":50_2" function="internal">
        <lane id=":50_2_0" index="0" disallow="pedestrian tram rail_urban rail rail_electric rail_fast ship" speed="12.56" length="14.88" width="3.50" shape="-155.06,-28.48 -155.11,-28.74 -155.13,-29.05 -155.11,-29.41 -155.05,-29.82 -154.95,-30.28 -154.82,-30.80 -154.65,-31.37 -154.44,-31.98 -154.19,-32.65 -153.91,-33.38 -153.58,-34.15 -153.22,-34.97 -152.82,-35.85 -152.39,-36.78 -151.92,-37.75 -151.40,-38.78 -150.86,-39.87 -150.27,-41.00 -149.64,-42.18"/>
    </edge>
    <edge id=":50_3" function="internal">
        <lane id=":50_3_0" index="0" disallow="pedestrian tram rail_urban rail rail_electric rail_fast ship" speed="10.11" length="18.29" width="3.50" shape="-143.95,-44.12 -147.55,-41.73 -148.17,-41.26 -148.76,-40.76 -149.33,-40.24 -149.87,-39.68 -150.37,-39.08 -150.82,-38.45 -151.23,-37.79 -151.58,-37.10 -151.87,-36.38 -152.09,-35.63 -152.24,-34.87 -152.33,-34.10 -152.35,-33.33 -152.32,-32.55 -152.23,-31.78 -152.10,-31.01 -151.92,-30.26 -151.71,-29.51"/>
    </edge>
    <edge id=":50_4" function="internal">
        <lane id=":50_4_0" index="0" disallow="pedestrian tram rail_urban rail rail_electric rail_fast ship" speed="36.11" length="22.47" width="3.50" shape="-143.95,-44.12 -151.79,-39.07 -157.70,-35.66 -163.34,-32.81"/>
    </edge>
    <edge id=":50_5" function="internal">
        <lane id=":50_5_0" index="0" disallow="pedestrian tram rail_urban rail rail_electric rail_fast ship" speed="8.71" length="21.27" width="3.50" shape="-143.95,-44.12 -148.15,-41.42 -150.13,-40.48 -151.66,-40.02 -153.27,-39.83 -154.21,-39.89 -155.09,-40.07 -155.94,-40.39 -156.77,-40.85 -157.49,-41.42 -158.10,-42.06 -159.02,-43.34 -159.73,-44.76 -160.44,-46.84"/>
    </edge>
    <edge id=":50_6" function="internal">
        <lane id=":50_6_0" index="0" disallow="pedestrian tram rail_urban rail rail_electric rail_fast ship" speed="5.73" length="8.28" width="3.49" shape="-157.05,-47.69 -156.87,-47.01 -156.68,-46.38 -156.47,-45.79 -156.26,-45.26 -156.04,-44.77 -155.81,-44.34 -155.57,-43.95 -155.32,-43.61 -155.06,-43.33 -154.79,-43.09 -154.51,-42.90 -154.22,-42.76 -153.92,-42.67 -153.62,-42.62 -153.30,-42.63 -152.97,-42.69 -152.63,-42.79 -152.28,-42.94 -151.93,-43.15"/>
    </edge>
    <edge id=":50_7" function="internal">
        <lane id=":50_7_0" index="0" disallow="pedestrian tram rail_urban rail rail_electric rail_fast ship" speed="36.11" length="19.01" width="3.50" shape="-157.07,-47.75 -156.11,-44.31 -151.71,-29.51"/>
    </edge>
    <edge id=":50_8" function="internal">
        <lane id=":50_8_0" index="0" disallow="pedestrian tram rail_urban rail rail_electric rail_fast ship" speed="9.53" length="17.92" width="3.50" shape="-157.07,-47.75 -156.53,-45.15 -156.37,-43.16 -156.50,-41.17 -156.98,-39.24 -157.82,-37.44 -159.02,-35.85 -160.50,-34.51 -162.16,-33.42 -163.34,-32.81"/>
    </edge>
    <edge id=":50_9" function="internal">
        <lane id=":50_9_0" index="0" disallow="pedestrian tram rail_urban rail rail_electric rail_fast ship" speed="8.20" length="13.00" width="3.50" shape="-164.82,-35.98 -163.95,-36.43 -162.71,-37.24 -161.67,-38.18 -160.85,-39.29 -160.29,-40.52 -159.97,-41.88 -159.90,-43.32 -160.02,-44.81 -160.44,-46.84"/>
    </edge>
    <edge id=":50_10" function="internal">
        <lane id=":50_10_0" index="0" disallow="pedestrian tram rail_urban rail rail_electric rail_fast ship" speed="36.11" length="14.11" width="3.50" shape="-164.73,-36.02 -164.02,-36.34 -163.32,-36.65 -162.63,-36.98 -161.96,-37.30 -161.30,-37.63 -160.65,-37.96 -160.00,-38.30 -159.37,-38.64 -158.74,-38.99 -158.11,-39.34 -157.49,-39.70 -156.86,-40.07 -156.24,-40.44 -155.61,-40.82 -154.98,-41.21 -154.35,-41.60 -153.70,-42.00 -153.05,-42.41 -152.39,-42.83"/>
    </edge>
    <edge id=":50_11" function="internal">
        <lane id=":50_11_0" index="0" disallow="pedestrian tram rail_urban rail rail_electric rail_fast ship" speed="8.47" length="17.18" width="3.50" shape="-164.82,-35.98 -163.50,-36.52 -161.45,-37.06 -159.90,-37.19 -158.32,-37.01 -156.75,-36.46 -155.41,-35.61 -154.28,-34.52 -153.39,-33.30 -152.43,-31.44 -151.71,-29.51"/>
    </edge>
    <edge id=":52_0" function="internal">
        <lane id=":52_0_0" index="0" disallow="pedestrian tram rail_urban rail rail_electric rail_fast ship" speed="12.55" length="5.00" width="3.45" shape="-8.24,268.27 -8.35,267.92 -8.45,267.60 -8.53,267.30 -8.61,267.03 -8.68,266.79 -8.74,266.56 -8.81,266.35 -8.87,266.15 -8.94,265.96 -9.02,265.77 -9.10,265.59 -9.20,265.41 -9.31,265.22 -9.44,265.03 -9.59,264.83 -9.76,264.61 -9.95,264.38 -10.17,264.13 -10.42,263.86"/>
    </edge>
    <edge id=":52_1" function="internal">
        <lane id=":52_1_0" index="0" disallow="pedestrian tram rail_urban rail rail_electric rail_fast ship" speed="8.78" length="16.42" width="3.50" shape="-8.24,268.28 -8.59,267.04 -8.94,265.14 -9.03,263.16 -8.88,261.74 -8.51,260.37 -7.91,259.05 -7.07,257.84 -6.05,256.81 -4.38,255.64 -2.61,254.80"/>
    </edge>
    <edge id=":52_2" function="internal">
        <lane id=":52_2_0" index="0" disallow="pedestrian tram rail_urban rail rail_electric rail_fast ship" speed="7.33" length="11.12" width="3.50" shape="-1.31,258.05 -2.56,258.64 -3.70,259.45 -4.33,260.12 -4.85,260.89 -5.20,261.75 -5.42,262.65 -5.51,263.57 -5.42,264.96 -5.16,266.33 -4.91,267.22"/>
    </edge>
    <edge id=":52_3" function="internal">
        <lane id=":52_3_0" index="0" disallow="pedestrian tram rail_urban rail rail_electric rail_fast ship" speed="36.11" length="10.16" width="3.49" shape="-1.36,258.07 -10.82,261.77"/>
    </edge>
    <edge id=":52_4" function="internal">
        <lane id=":52_4_0" index="0" disallow="pedestrian tram rail_urban rail rail_electric rail_fast ship" speed="36.11" length="10.18" width="3.50" shape="-12.09,258.51 -8.70,257.18 -2.61,254.80"/>
    </edge>
    <edge id=":52_5" function="internal">
        <lane id=":52_5_0" index="0" disallow="pedestrian tram rail_urban rail rail_electric rail_fast ship" speed="7.06" length="11.35" width="3.50" shape="-11.87,259.09 -10.62,259.32 -9.95,259.60 -8.76,260.40 -7.76,261.43 -6.56,263.23 -5.64,265.19 -4.91,267.22"/>
    </edge>
    <edge id=":54_0" function="internal">
        <lane id=":54_0_0" index="0" disallow="pedestrian tram rail_urban rail rail_electric rail_fast ship" speed="11.39" length="10.64" width="3.49" shape="78.62,180.96 79.33,183.76 80.12,185.78 81.21,187.65 82.25,188.90 83.50,189.94 83.64,190.03"/>
    </edge>
    <edge id=":54_1" function="internal">
        <lane id=":54_1_0" index="0" disallow="pedestrian tram rail_urban rail rail_electric rail_fast ship" speed="18.00" length="14.27" width="3.50" shape="78.62,180.96 78.91,183.37 78.88,186.18 78.40,190.08 77.35,195.07"/>
    </edge>
    <edge id=":54_2" function="internal">
        <lane id=":54_2_0" index="0" disallow="pedestrian tram rail_urban rail rail_electric rail_fast ship" speed="16.86" length="12.49" width="3.50" shape="73.98,194.10 74.93,189.64 75.38,186.11 75.43,183.67 75.21,181.75"/>
    </edge>
    <edge id=":54_3" function="internal">
        <lane id=":54_3_0" index="0" disallow="pedestrian tram rail_urban rail rail_electric rail_fast ship" speed="6.95" length="12.99" width="3.49" shape="73.99,194.10 74.15,193.53 74.36,192.86 74.61,192.20 74.90,191.55 75.24,190.94 75.64,190.36 76.10,189.82 76.63,189.35 77.22,188.98 77.88,188.72 78.57,188.58 79.28,188.55 79.98,188.62 80.67,188.76 81.34,188.97 82.00,189.22 82.65,189.51 83.27,189.84 83.63,190.04"/>
    </edge>

    <edge id="10" from="18" to="49" priority="3" type="highway.residential" spreadType="center" length="70.01" shape="124.32,363.32 94.07,292.43">
        <lane id="10_0" index="0" disallow="pedestrian tram rail_urban rail rail_electric rail_fast ship" speed="36.11" length="70.01" width="3.50" customShape="1" shape="124.32,363.32 115.49,343.80 95.72,299.42"/>
    </edge>
    <edge id="114" from="50" to="48" priority="3" type="highway.residential" spreadType="center" length="325.38" shape="-155.68,-38.74 54.62,226.65">
        <lane id="114_0" index="0" disallow="pedestrian tram rail_urban rail rail_electric rail_fast ship" speed="36.11" length="325.38" width="3.50" customShape="1" shape="-151.71,-29.51 -147.17,-15.24 -144.13,-6.77 -135.37,13.96 -132.58,19.89 -128.56,27.35 -120.09,42.94 -115.84,50.35 -110.46,58.90 -105.05,66.78 -99.07,74.81 -91.89,83.76 -82.46,94.96 -76.70,101.29 -71.09,106.92 -51.36,125.45 -16.85,156.91 -3.53,169.17 12.18,184.03 48.71,220.76"/>
    </edge>
    <edge id="115" from="48" to="50" priority="3" type="highway.residential" spreadType="center" length="327.07" shape="51.88,228.83 -158.42,-36.57">
        <lane id="115_0" index="0" disallow="pedestrian tram rail_urban rail rail_electric rail_fast ship" speed="36.11" length="327.07" width="3.50" customShape="1" shape="46.23,223.22 9.75,186.54 -5.92,171.73 -19.21,159.49 -53.74,128.02 -73.52,109.43 -79.23,103.70 -85.10,97.26 -94.60,85.99 -101.84,76.95 -107.89,68.82 -113.39,60.82 -118.84,52.16 -123.15,44.63 -131.63,29.04 -135.71,21.46 -138.57,15.38 -147.40,-5.50 -150.49,-14.12 -155.06,-28.48"/>
    </edge>
    <edge id="117" from="38" to="50" priority="3" type="highway.residential" spreadType="center" length="29.22" shape="-161.98,-76.45 -155.31,-37.87">
        <lane id="117_0" index="0" disallow="pedestrian tram rail_urban rail rail_electric rail_fast ship" speed="36.11" length="29.22" width="3.50" customShape="1" shape="-161.98,-76.45 -161.24,-69.88 -160.09,-61.35 -158.88,-54.96 -157.05,-47.69"/>
    </edge>
    <edge id="118" from="50" to="27" priority="3" type="highway.residential" spreadType="center" length="29.70" shape="-158.76,-37.28 -165.46,-76.07">
        <lane id="118_0" index="0" disallow="pedestrian tram rail_urban rail rail_electric rail_fast ship" speed="36.11" length="29.70" width="3.50" customShape="1" shape="-160.44,-46.84 -162.29,-54.21 -163.54,-60.80 -164.71,-69.46 -165.46,-76.07"/>
    </edge>
    <edge id="12" from="48" to="49" priority="3" type="highway.residential" spreadType="center" length="61.46" shape="54.71,226.77 97.17,290.85">
        <lane id="12_0" index="0" disallow="pedestrian tram rail_urban rail rail_electric rail_fast ship" speed="36.11" length="61.46" width="3.50" customShape="1" shape="60.23,233.75 64.69,239.34 69.30,245.56 74.77,253.65 80.18,262.37 85.31,271.25 92.92,285.65"/>
    </edge>
    <edge id="129" from="41" to="50" priority="3" type="highway.residential" spreadType="center" length="34.55" shape="-197.77,-26.45 -157.51,-39.34">
        <lane id="129_0" index="0" disallow="pedestrian tram rail_urban rail rail_electric rail_fast ship" speed="36.11" length="34.55" width="3.50" customShape="1" shape="-197.77,-26.45 -194.36,-26.79 -190.49,-27.45 -184.66,-28.84 -178.42,-30.73 -169.85,-33.80 -164.73,-36.02"/>
    </edge>
    <edge id="13" from="49" to="48" priority="3" type="highway.residential" spreadType="center" length="60.82" shape="94.26,292.78 51.79,228.71">
        <lane id="13_0" index="0" disallow="pedestrian tram rail_urban rail rail_electric rail_fast ship" speed="36.11" length="60.82" width="3.50" customShape="1" shape="89.83,287.29 82.25,272.94 77.18,264.17 71.83,255.55 66.45,247.58 61.92,241.49 57.49,235.93"/>
    </edge>
    <edge id="130" from="50" to="14" priority="3" type="highway.residential" spreadType="center" length="35.69" shape="-156.45,-36.01 -197.48,-22.96">
        <lane id="130_0" index="0" disallow="pedestrian tram rail_urban rail rail_electric rail_fast ship" speed="36.11" length="35.69" width="3.50" customShape="1" shape="-163.34,-32.81 -168.58,-30.54 -177.32,-27.40 -183.75,-25.46 -189.80,-24.03 -193.90,-23.33 -197.48,-22.96"/>
    </edge>
    <edge id="139" from="39" to="50" priority="3" type="highway.residential" spreadType="center" length="5.46" shape="-139.40,-47.13 -156.22,-36.11">
        <lane id="139_0" index="0" disallow="pedestrian tram rail_urban rail rail_electric rail_fast ship" speed="36.11" length="5.46" width="3.50" customShape="1" shape="-139.40,-47.13 -143.57,-44.37 -143.95,-44.12"/>
    </edge>
    <edge id="201" from="54" to="17" priority="3" type="highway.residential" spreadType="center" length="70.00" shape="76.34,189.41 36.38,123.92">
        <lane id="201_0" index="0" disallow="pedestrian tram rail_urban rail rail_electric rail_fast ship" speed="36.11" length="70.00" width="3.50" customShape="1" shape="75.21,181.75 74.89,180.36 74.13,178.05 72.90,175.36 69.18,168.85 64.17,160.82 58.30,152.16 51.52,142.90 43.22,132.26 36.38,123.92"/>
    </edge>
    <edge id="202" from="33" to="54" priority="3" type="highway.residential" spreadType="center" length="69.86" shape="40.19,123.05 79.33,187.59">
        <lane id="202_0" index="0" disallow="pedestrian tram rail_urban rail rail_electric rail_fast ship" speed="36.11" length="69.86" width="3.49" customShape="1" shape="40.19,123.05 45.95,130.07 54.31,140.79 61.16,150.14 67.11,158.91 72.18,167.06 76.02,173.77 77.40,176.80 78.27,179.46 78.62,180.96"/>
    </edge>
    <edge id="204" from="48" to="54" priority="3" type="highway.residential" spreadType="center" length="30.48" shape="51.77,226.81 76.36,187.48">
        <lane id="204_0" index="0" disallow="pedestrian tram rail_urban rail rail_electric rail_fast ship" speed="36.11" length="30.48" width="3.50" customShape="1" shape="57.86,219.58 63.10,213.41 67.69,207.32 70.20,203.58 71.83,200.57 72.90,197.91 73.99,194.10"/>
    </edge>
    <edge id="205" from="54" to="48" priority="3" type="highway.residential" spreadType="center" length="32.01" shape="79.33,189.33 54.74,228.67">
        <lane id="205_0" index="0" disallow="pedestrian tram rail_urban rail rail_electric rail_fast ship" speed="36.11" length="32.01" width="3.50" customShape="1" shape="77.35,195.07 76.20,199.06 74.98,202.07 73.19,205.40 70.53,209.37 65.83,215.60 60.49,221.89"/>
    </edge>
    <edge id="319" from="52" to="23" priority="3" type="highway.residential" spreadType="center" length="70.00" shape="-5.92,259.90 49.39,276.71">
        <lane id="319_0" index="0" disallow="pedestrian tram rail_urban rail rail_electric rail_fast ship" speed="36.11" length="70.00" width="3.50" customShape="1" shape="-4.91,267.22 -4.27,269.22 -2.47,274.57 -1.27,277.28 -0.05,279.33 1.11,280.75 2.10,281.66 3.19,282.42 4.37,283.02 5.61,283.44 6.85,283.63 8.09,283.59 9.34,283.32 10.58,282.85 12.22,281.97 14.62,280.28 20.93,274.85 23.96,272.50 26.39,271.03 28.57,270.11 30.35,269.68 32.22,269.53 34.11,269.73 37.86,270.82 41.37,272.18 44.77,273.82 48.02,275.73 49.39,276.71"/>
    </edge>
    <edge id="320" from="10" to="52" priority="3" type="highway.residential" spreadType="center" length="70.01" shape="45.50,278.31 -6.92,263.25">
        <lane id="320_0" index="0" disallow="pedestrian tram rail_urban rail rail_electric rail_fast ship" speed="36.11" length="70.01" width="3.50" customShape="1" shape="45.50,278.31 43.12,276.91 39.99,275.39 36.74,274.13 33.46,273.17 32.21,273.03 30.94,273.12 29.69,273.42 28.00,274.13 25.95,275.37 23.17,277.54 16.76,283.04 14.03,284.96 11.98,286.06 10.27,286.69 8.45,287.06 6.56,287.11 4.70,286.81 2.96,286.22 1.35,285.39 -0.13,284.35 -1.46,283.12 -2.93,281.30 -4.38,278.86 -5.73,275.83 -7.61,270.29 -8.24,268.27"/>
    </edge>
    <edge id="62" from="54" to="49" priority="3" type="highway.residential" spreadType="center" length="118.30">
        <lane id="62_0" index="0" disallow="pedestrian tram rail_urban rail rail_electric rail_fast ship" speed="36.11" length="118.30" width="3.49" customShape="1" shape="83.65,190.02 85.57,191.38 87.04,192.77 88.92,195.16 91.41,198.99 93.01,202.13 96.27,209.53 103.45,225.00 108.45,236.59 114.28,248.97 116.36,254.15 117.72,258.50 118.58,262.46 119.02,265.98 119.09,268.56 118.84,271.11 118.22,273.60 117.26,275.98 116.23,277.76 114.91,279.28 112.58,281.21 108.47,284.19 104.17,286.84 98.84,289.81"/>
    </edge>
    <edge id="689" from="52" to="53" priority="3" type="highway.residential" spreadType="center" length="3.01" shape="-6.08,263.31 -13.62,262.87">
        <lane id="689_0" index="0" disallow="pedestrian tram rail_urban rail rail_electric rail_fast ship" speed="36.11" length="3.01" width="3.49" customShape="1" shape="-10.82,261.77 -13.62,262.87"/>
    </edge>
    <edge id="73" from="52" to="48" priority="3" type="highway.residential" spreadType="center" length="54.31" shape="-7.28,260.09 52.39,226.22">
        <lane id="73_0" index="0" disallow="pedestrian tram rail_urban rail rail_electric rail_fast ship" speed="36.11" length="54.31" width="3.50" customShape="1" shape="-2.61,254.80 6.85,251.20 20.86,245.70 34.69,239.76 38.65,237.87 41.50,236.16 43.78,234.45 46.37,232.06"/>
    </edge>
    <edge id="734" from="50" to="51" priority="3" type="highway.residential" spreadType="center" length="0.20" shape="-158.22,-38.95 -148.82,-45.10">
        <lane id="734_0" index="0" disallow="pedestrian tram rail_urban rail rail_electric rail_fast ship" speed="36.11" length="0.20" width="3.50" customShape="1" shape="-149.64,-42.18 -149.55,-42.36"/>
    </edge>
    <edge id="738" from="50" to="51" priority="3" type="highway.residential" spreadType="center" length="0.20">
        <lane id="738_0" index="0" disallow="pedestrian tram rail_urban rail rail_electric rail_fast ship" speed="36.11" length="0.20" width="3.49" customShape="1" shape="-151.93,-43.15 -151.76,-43.25"/>
    </edge>
    <edge id="74" from="48" to="52" priority="3" type="highway.residential" spreadType="center" length="55.63" shape="54.11,229.26 -5.56,263.13">
        <lane id="74_0" index="0" disallow="pedestrian tram rail_urban rail rail_electric rail_fast ship" speed="36.11" length="55.63" width="3.50" customShape="1" shape="48.74,234.64 46.01,237.14 43.45,239.07 40.29,240.96 36.11,242.96 22.18,248.94 8.10,254.46 -1.36,258.07"/>
    </edge>
    <edge id="755" from="50" to="51" priority="3" type="highway.residential" spreadType="center" length="0.20">
        <lane id="755_0" index="0" disallow="pedestrian tram rail_urban rail rail_electric rail_fast ship" speed="36.11" length="0.20" width="3.50" customShape="1" shape="-152.39,-42.83 -152.22,-42.94"/>
    </edge>
    <edge id="76" from="40" to="52" priority="3" type="highway.residential" spreadType="center" length="8.50" shape="-19.99,261.66 -6.39,259.84">
        <lane id="76_0" index="0" disallow="pedestrian tram rail_urban rail rail_electric rail_fast ship" speed="36.11" length="8.50" width="3.50" customShape="1" shape="-19.99,261.66 -15.35,259.79 -15.24,259.75 -15.13,259.71 -15.03,259.66 -12.10,258.49"/>
    </edge>