<?xml version="1.0" encoding="UTF-8"?>

<!-- generated on Fri Dec 18 16:27:20 2020 by Eclipse SUMO netconvert Version 1.8.0
<configuration xmlns:xsi="http://www.w3.org/2001/XMLSchema-instance" xsi:noNamespaceSchemaLocation="http://sumo.dlr.de/xsd/netconvertConfiguration.xsd">

    <input>
        <node-files value="./converted_scenarios/SUMO/CHN_Sha-3_2_I-1-1/nodes.net.xml"/>
        <edge-files value="./converted_scenarios/SUMO/CHN_Sha-3_2_I-1-1/edges.net.xml"/>
        <connection-files value="./converted_scenarios/SUMO/CHN_Sha-3_2_I-1-1/_connections.net.xml"/>
        <tllogic-files value="./converted_scenarios/SUMO/CHN_Sha-3_2_I-1-1/_tll.net.xml"/>
    </input>

    <output>
        <output-file value="./converted_scenarios/SUMO/CHN_Sha-3_2_I-1-1/CHN_Sha-3_2_I-1-1.net.xml"/>
    </output>

    <processing>
        <plain.extend-edge-shape value="true"/>
        <geometry.remove.keep-edges.explicit value="true"/>
        <geometry.avoid-overlap value="true"/>
        <offset.disable-normalization value="true"/>
    </processing>

    <junctions>
        <no-turnarounds value="true"/>
        <junctions.internal-link-detail value="20"/>
    </junctions>

    <report>
        <aggregate-warnings value="5"/>
    </report>

    <random_number>
        <seed value="1234"/>
    </random_number>

</configuration>
-->

<net version="1.6" junctionCornerDetail="5" junctionLinkDetail="20" limitTurnSpeed="5.50" xmlns:xsi="http://www.w3.org/2001/XMLSchema-instance" xsi:noNamespaceSchemaLocation="http://sumo.dlr.de/xsd/net_file.xsd">

    <location netOffset="0.00,0.00" convBoundary="-220.93,-296.03,101.62,261.92" origBoundary="-220.93,-296.22,101.62,262.11" projParameter="!"/>

    <edge id=":1_0" function="internal">
        <lane id=":1_0_0" index="0" disallow="bus truck rail_fast" speed="25.78" length="3.40" width="2.50" shape="-45.60,45.22 -45.35,45.16 -45.13,45.12 -44.93,45.09 -44.74,45.07 -44.58,45.05 -44.42,45.04 -44.27,45.04 -44.13,45.05 -44.00,45.06 -43.86,45.08 -43.73,45.10 -43.58,45.12 -43.44,45.14 -43.28,45.17 -43.10,45.19 -42.92,45.22 -42.71,45.24 -42.48,45.27 -42.23,45.29"/>
    </edge>
    <edge id=":12_0" function="internal">
        <lane id=":12_0_0" index="0" disallow="bus truck rail_fast" speed="36.11" length="9.42" width="2.50" shape="55.42,52.86 46.01,53.21"/>
    </edge>
    <edge id=":12_1" function="internal">
        <lane id=":12_1_0" index="0" disallow="bus truck rail_fast" speed="7.06" length="7.35" width="2.50" shape="55.42,52.86 54.81,52.90 54.23,52.92 53.67,52.93 53.14,52.93 52.64,52.92 52.16,52.89 51.72,52.86 51.30,52.81 50.90,52.75 50.54,52.67 50.20,52.59 49.89,52.49 49.61,52.38 49.35,52.26 49.13,52.12 48.93,51.98 48.75,51.82 48.61,51.65 48.49,51.46"/>
    </edge>
    <edge id=":13_0" function="internal">
        <lane id=":13_0_0" index="0" disallow="bus truck rail_fast" speed="36.11" length="7.47" width="2.50" shape="-50.84,46.17 -51.41,38.73"/>
    </edge>
    <edge id=":13_1" function="internal">
        <lane id=":13_1_0" index="0" disallow="bus truck rail_fast" speed="8.30" length="9.89" width="2.50" shape="-46.90,46.99 -47.28,46.83 -47.64,46.64 -47.98,46.42 -48.31,46.18 -48.63,45.89 -48.93,45.58 -49.21,45.24 -49.48,44.87 -49.73,44.46 -49.97,44.03 -50.19,43.56 -50.40,43.07 -50.59,42.54 -50.76,41.98 -50.92,41.39 -51.07,40.77 -51.20,40.12 -51.31,39.44 -51.41,38.73"/>
    </edge>
    <edge id=":14_0" function="internal">
        <lane id=":14_0_0" index="0" disallow="bus truck rail_fast" speed="36.11" length="3.59" width="2.50" shape="-54.43,14.49 -55.02,10.95"/>
    </edge>
    <edge id=":15_0" function="internal">
        <lane id=":15_0_0" index="0" disallow="rail_fast" speed="36.11" length="9.67" width="2.50" shape="4.14,48.39 13.79,49.01"/>
    </edge>
    <edge id=":15_1" function="internal">
        <lane id=":15_1_0" index="0" disallow="bus truck rail_fast" speed="9.71" length="10.14" width="2.50" shape="4.31,51.57 4.61,51.27 4.94,50.98 5.29,50.72 5.66,50.47 6.05,50.24 6.47,50.03 6.90,49.84 7.36,49.67 7.84,49.51 8.34,49.38 8.86,49.26 9.40,49.16 9.96,49.09 10.55,49.03 11.15,48.98 11.78,48.96 12.43,48.96 13.10,48.97 13.79,49.01"/>
    </edge>
    <edge id=":16_0" function="internal">
        <lane id=":16_0_0" index="0" disallow="bus truck rail_fast" speed="5.87" length="7.67" width="2.50" shape="35.81,50.38 36.55,50.42 37.26,50.45 37.93,50.48 38.55,50.49 39.14,50.49 39.68,50.48 40.19,50.46 40.65,50.43 41.08,50.40 41.46,50.35 41.81,50.29 42.11,50.22 42.37,50.14 42.60,50.05 42.78,49.95 42.92,49.84 43.03,49.72 43.09,49.59 43.11,49.45"/>
    </edge>
    <edge id=":16_1" function="internal">
        <lane id=":16_1_0" index="0" disallow="bus truck rail_fast" speed="36.11" length="9.51" width="2.50" shape="35.81,50.38 45.31,50.72"/>
    </edge>
    <edge id=":17_0" function="internal">
        <lane id=":17_0_0" index="0" disallow="bus truck rail_fast" speed="36.11" length="7.12" width="2.50" shape="42.91,54.26 42.40,54.11 41.94,53.98 41.52,53.86 41.14,53.74 40.80,53.64 40.48,53.55 40.18,53.47 39.89,53.39 39.62,53.32 39.34,53.26 39.06,53.21 38.77,53.16 38.47,53.11 38.14,53.07 37.78,53.03 37.39,52.99 36.96,52.96 36.48,52.92 35.95,52.89"/>
    </edge>
    <edge id=":17_1" function="internal">
        <lane id=":17_1_0" index="0" disallow="bus truck rail_fast" speed="36.11" length="9.95" width="2.50" shape="45.90,53.21 35.95,52.89"/>
    </edge>
    <edge id=":18_0" function="internal">
        <lane id=":18_0_0" index="0" disallow="bus truck rail_fast" speed="6.20" length="8.43" width="2.50" shape="13.66,51.50 12.87,51.46 12.12,51.43 11.41,51.41 10.75,51.41 10.12,51.42 9.54,51.45 9.01,51.49 8.51,51.54 8.06,51.60 7.65,51.68 7.28,51.78 6.95,51.88 6.67,52.00 6.43,52.14 6.23,52.29 6.07,52.45 5.95,52.62 5.88,52.81 5.85,53.01"/>
    </edge>
    <edge id=":18_1" function="internal">
        <lane id=":18_1_0" index="0" disallow="rail_fast" speed="36.11" length="9.57" width="2.50" shape="13.66,51.50 4.11,50.89"/>
    </edge>
    <edge id=":2_0" function="internal">
        <lane id=":2_0_0" index="0" disallow="rail_fast" speed="36.11" length="8.47" width="2.50" shape="-4.51,47.83 3.94,48.38"/>
    </edge>
    <edge id=":2_1" function="internal">
        <lane id=":2_1_0" index="0" disallow="bus truck rail_fast" speed="8.24" length="9.57" width="2.50" shape="-4.51,47.83 -3.80,47.89 -3.12,47.96 -2.47,48.05 -1.85,48.15 -1.26,48.27 -0.70,48.40 -0.17,48.55 0.33,48.71 0.80,48.89 1.24,49.09 1.65,49.30 2.03,49.52 2.38,49.76 2.70,50.02 2.99,50.29 3.25,50.58 3.48,50.88 3.68,51.20 3.85,51.53"/>
    </edge>
    <edge id=":20_0" function="internal">
        <lane id=":20_0_0" index="0" disallow="bus truck rail_fast" speed="36.11" length="7.91" width="2.50" shape="-51.05,54.28 -51.01,53.68 -50.97,53.15 -50.94,52.67 -50.91,52.23 -50.88,51.84 -50.85,51.47 -50.83,51.12 -50.80,50.80 -50.78,50.48 -50.77,50.17 -50.76,49.85 -50.75,49.53 -50.75,49.18 -50.75,48.82 -50.75,48.42 -50.76,47.98 -50.78,47.50 -50.80,46.97 -50.83,46.37"/>
    </edge>
    <edge id=":20_1" function="internal">
        <lane id=":20_1_0" index="0" disallow="bus truck rail_fast" speed="7.67" length="10.32" width="2.50" shape="-51.05,54.28 -50.99,53.46 -50.91,52.68 -50.82,51.95 -50.70,51.25 -50.58,50.59 -50.43,49.97 -50.26,49.39 -50.08,48.85 -49.88,48.35 -49.67,47.89 -49.43,47.47 -49.18,47.09 -48.91,46.75 -48.62,46.44 -48.32,46.18 -48.00,45.95 -47.66,45.77 -47.30,45.62 -46.93,45.52"/>
    </edge>
    <edge id=":21_0" function="internal">
        <lane id=":21_0_0" index="0" disallow="bus truck rail_fast" speed="36.11" length="6.39" width="2.50" shape="5.84,53.21 5.81,53.69 5.79,54.12 5.77,54.51 5.76,54.86 5.74,55.19 5.73,55.48 5.72,55.76 5.72,56.03 5.72,56.28 5.72,56.53 5.73,56.79 5.74,57.05 5.76,57.33 5.78,57.63 5.81,57.95 5.85,58.30 5.89,58.69 5.94,59.12 5.99,59.59"/>
    </edge>
    <edge id=":21_1" function="internal">
        <lane id=":21_1_0" index="0" disallow="bus truck rail_fast" speed="30.70" length="8.21" width="2.50" shape="3.93,51.71 4.19,52.27 4.41,52.77 4.61,53.23 4.78,53.65 4.94,54.03 5.07,54.39 5.19,54.73 5.29,55.05 5.38,55.37 5.45,55.68 5.52,56.01 5.58,56.34 5.64,56.69 5.69,57.07 5.75,57.49 5.80,57.94 5.86,58.44 5.92,58.98 5.99,59.59"/>
    </edge>
    <edge id=":24_0" function="internal">
        <lane id=":24_0_0" index="0" disallow="bus truck rail_fast" speed="9.01" length="7.32" width="2.50" shape="3.46,59.51 3.42,58.98 3.39,58.49 3.39,58.04 3.40,57.61 3.42,57.21 3.44,56.83 3.46,56.48 3.48,56.14 3.49,55.82 3.47,55.51 3.44,55.21 3.38,54.92 3.29,54.63 3.16,54.33 2.99,54.04 2.77,53.74 2.50,53.43 2.17,53.12 1.77,52.78"/>
    </edge>
    <edge id=":24_1" function="internal">
        <lane id=":24_1_0" index="0" disallow="bus truck rail_fast" speed="8.68" length="7.99" width="2.50" shape="3.46,59.51 3.39,58.86 3.33,58.24 3.29,57.64 3.25,57.08 3.23,56.53 3.22,56.02 3.22,55.53 3.23,55.07 3.26,54.63 3.30,54.22 3.34,53.84 3.41,53.48 3.48,53.15 3.56,52.85 3.66,52.57 3.77,52.32 3.89,52.09 4.02,51.89 4.17,51.72"/>
    </edge>
    <edge id=":25_0" function="internal">
        <lane id=":25_0_0" index="0" disallow="bus truck rail_fast" speed="36.11" length="2.00" width="2.50" shape="23.26,-27.12 21.41,-26.35"/>
    </edge>
    <edge id=":25_1" function="internal">
        <lane id=":25_1_0" index="0" disallow="rail_fast" speed="36.11" length="9.11" width="2.50" shape="29.84,-29.81 21.41,-26.35"/>
    </edge>
    <edge id=":26_0" function="internal">
        <lane id=":26_0_0" index="0" disallow="bus truck rail_fast" speed="36.11" length="2.98" width="2.50" shape="-49.50,3.48 -52.23,4.67"/>
    </edge>
    <edge id=":28_0" function="internal">
        <lane id=":28_0_0" index="0" disallow="bus truck rail_fast" speed="7.56" length="8.54" width="2.50" shape="46.12,62.02 46.00,61.29 45.88,60.59 45.75,59.92 45.61,59.30 45.48,58.71 45.33,58.15 45.19,57.64 45.04,57.16 44.88,56.72 44.72,56.31 44.56,55.94 44.39,55.61 44.22,55.32 44.04,55.06 43.86,54.83 43.68,54.65 43.49,54.50 43.30,54.39 43.10,54.31"/>
    </edge>
    <edge id=":28_1" function="internal">
        <lane id=":28_1_0" index="0" disallow="bus truck rail_fast" speed="36.11" length="8.93" width="2.50" shape="46.12,62.02 44.59,53.25"/>
        <lane id=":28_1_1" index="1" disallow="bus truck rail_fast" speed="36.11" length="8.93" width="2.50" shape="48.59,61.62 47.05,52.79"/>
    </edge>
    <edge id=":28_3" function="internal">
        <lane id=":28_3_0" index="0" disallow="bus truck rail_fast" speed="7.38" length="9.80" width="2.50" shape="48.59,61.62 48.45,60.71 48.33,59.85 48.22,59.03 48.13,58.25 48.06,57.52 48.00,56.84 47.96,56.20 47.93,55.61 47.92,55.06 47.93,54.56 47.95,54.11 47.99,53.70 48.05,53.33 48.12,53.01 48.21,52.74 48.32,52.51 48.44,52.32 48.57,52.19 48.73,52.09"/>
    </edge>
    <edge id=":29_0" function="internal">
        <lane id=":29_0_0" index="0" disallow="bus truck rail_fast" speed="36.11" length="9.15" width="2.50" shape="28.62,-29.74 27.29,-38.82"/>
        <lane id=":29_0_1" index="1" disallow="bus truck rail_fast" speed="36.11" length="9.15" width="2.50" shape="31.08,-30.14 29.76,-39.16"/>
    </edge>
    <edge id=":29_2" function="internal">
        <lane id=":29_2_0" index="0" disallow="bus truck rail_fast" speed="36.11" length="1.97" width="2.50" shape="30.02,-37.21 29.76,-39.16"/>
    </edge>
    <edge id=":3_0" function="internal">
        <lane id=":3_0_0" index="0" disallow="bus truck rail_fast" speed="10.71" length="6.99" width="2.50" shape="1.62,52.66 1.21,52.34 0.85,52.05 0.51,51.80 0.20,51.58 -0.10,51.38 -0.38,51.21 -0.64,51.06 -0.91,50.93 -1.17,50.82 -1.43,50.73 -1.71,50.65 -2.00,50.59 -2.30,50.54 -2.63,50.49 -2.98,50.45 -3.37,50.42 -3.79,50.38 -4.26,50.35 -4.77,50.32"/>
    </edge>
    <edge id=":3_1" function="internal">
        <lane id=":3_1_0" index="0" disallow="rail_fast" speed="36.11" length="8.70" width="2.50" shape="3.91,50.88 -4.77,50.32"/>
    </edge>
    <edge id=":32_0" function="internal">
        <lane id=":32_0_0" index="0" disallow="rail_fast" speed="36.11" length="9.22" width="2.50" shape="38.52,-33.33 29.97,-29.86"/>
    </edge>
    <edge id=":32_1" function="internal">
        <lane id=":32_1_0" index="0" disallow="bus truck rail_fast" speed="6.33" length="9.44" width="2.50" shape="38.52,-33.33 37.82,-33.06 37.15,-32.84 36.52,-32.66 35.91,-32.51 35.34,-32.41 34.80,-32.34 34.28,-32.31 33.80,-32.33 33.35,-32.38 32.93,-32.47 32.54,-32.60 32.18,-32.77 31.86,-32.98 31.56,-33.22 31.29,-33.51 31.06,-33.84 30.85,-34.20 30.68,-34.61 30.53,-35.05"/>
    </edge>
    <edge id=":4_0" function="internal">
        <lane id=":4_0_0" index="0" disallow="bus truck rail_fast" speed="36.11" length="2.74" width="2.50" shape="-42.71,47.76 -45.43,47.46"/>
    </edge>
    <edge id=":5_0" function="internal">
        <lane id=":5_0_0" index="0" disallow="bus truck rail_fast" speed="36.11" length="11.04" width="2.50" shape="44.56,53.05 42.55,42.21"/>
        <lane id=":5_0_1" index="1" disallow="bus truck rail_fast" speed="36.11" length="11.04" width="2.50" shape="47.02,52.60 45.01,41.73"/>
    </edge>
    <edge id=":5_2" function="internal">
        <lane id=":5_2_0" index="0" disallow="bus truck rail_fast" speed="34.19" length="10.22" width="2.50" shape="48.39,51.29 48.03,50.63 47.71,50.03 47.42,49.49 47.16,48.99 46.93,48.54 46.72,48.11 46.54,47.70 46.38,47.31 46.23,46.92 46.10,46.54 45.97,46.14 45.86,45.73 45.74,45.30 45.63,44.83 45.52,44.32 45.41,43.76 45.28,43.15 45.15,42.48 45.01,41.73"/>
    </edge>
    <edge id=":5_3" function="internal">
        <lane id=":5_3_0" index="0" disallow="bus truck rail_fast" speed="36.11" length="7.09" width="2.50" shape="43.11,49.25 43.12,48.72 43.13,48.24 43.13,47.81 43.14,47.42 43.14,47.06 43.14,46.73 43.13,46.42 43.13,46.13 43.11,45.84 43.09,45.56 43.07,45.28 43.04,44.99 42.99,44.69 42.95,44.36 42.89,44.01 42.82,43.62 42.74,43.20 42.65,42.73 42.55,42.21"/>
    </edge>
    <edge id=":6_0" function="internal">
        <lane id=":6_0_0" index="0" disallow="bus truck rail_fast" speed="6.56" length="10.31" width="2.50" shape="30.26,-20.63 30.08,-21.47 29.89,-22.26 29.68,-23.00 29.46,-23.68 29.23,-24.31 28.98,-24.88 28.71,-25.41 28.43,-25.88 28.14,-26.29 27.84,-26.65 27.51,-26.96 27.18,-27.22 26.83,-27.42 26.47,-27.57 26.09,-27.66 25.69,-27.71 25.29,-27.69 24.87,-27.63 24.43,-27.51"/>
    </edge>
    <edge id=":6_1" function="internal">
        <lane id=":6_1_0" index="0" disallow="bus truck rail_fast" speed="36.11" length="9.02" width="2.50" shape="30.26,-20.63 28.65,-29.54"/>
        <lane id=":6_1_1" index="1" disallow="bus truck rail_fast" speed="36.11" length="9.02" width="2.50" shape="32.71,-21.11 31.12,-29.94"/>
    </edge>
    <edge id=":7_0" function="internal">
        <lane id=":7_0_0" index="0" disallow="bus truck rail_fast" speed="5.37" length="8.52" width="2.50" shape="-54.96,11.23 -63.34,9.66"/>
    </edge>
    <edge id=":7_1" function="internal">
        <lane id=":7_1_0" index="0" disallow="bus truck rail_fast" speed="36.11" length="9.91" width="2.50" shape="-54.31,5.59 -63.34,9.66"/>
    </edge>
    <edge id=":9_0" function="internal">
        <lane id=":9_0_0" index="0" disallow="bus truck rail_fast" speed="36.11" length="9.42" width="2.50" shape="46.09,50.71 55.51,50.36"/>
    </edge>
    <edge id=":9_1" function="internal">
        <lane id=":9_1_0" index="0" disallow="bus truck rail_fast" speed="21.58" length="6.87" width="2.50" shape="48.91,52.01 49.38,51.81 49.80,51.63 50.19,51.46 50.54,51.31 50.86,51.18 51.16,51.07 51.44,50.96 51.71,50.87 51.98,50.80 52.24,50.73 52.51,50.67 52.79,50.62 53.08,50.57 53.40,50.53 53.75,50.49 54.12,50.46 54.54,50.42 55.00,50.39 55.51,50.36"/>
    </edge>

    <edge id="7487" from="1" to="2" priority="1" spreadType="center" length="41.19">
        <lane id="7487_0" index="0" disallow="rail_fast" speed="36.11" length="41.19" width="2.50" customShape="1" shape="-42.23,45.29 -23.38,46.56 -4.51,47.83"/>
    </edge>
    <edge id="7488" from="3" to="4" priority="1" spreadType="center" length="41.15">
        <lane id="7488_0" index="0" disallow="rail_fast" speed="36.11" length="41.15" width="2.50" customShape="1" shape="-4.77,50.32 -23.55,49.05 -42.71,47.76"/>
    </edge>
    <edge id="7490" from="5" to="6" priority="1" spreadType="center" length="68.12">
        <lane id="7490_0" index="0" disallow="rail_fast" speed="36.11" length="68.12" width="2.50" customShape="1" shape="42.55,42.21 36.44,10.95 30.26,-20.63"/>
        <lane id="7490_1" index="1" disallow="rail_fast" speed="36.11" length="68.12" width="2.50" customShape="1" shape="45.01,41.73 38.89,10.47 32.71,-21.11"/>
    </edge>
    <edge id="7491" from="7" to="8" priority="1" spreadType="center" length="176.03">
        <lane id="7491_0" index="0" disallow="rail_fast" speed="36.11" length="176.03" width="2.50" customShape="1" shape="-63.34,9.66 -141.16,45.93 -220.93,83.10"/>
    </edge>
    <edge id="7492" from="9" to="10" priority="1" spreadType="center" length="48.10">
        <lane id="7492_0" index="0" disallow="rail_fast" speed="36.11" length="48.10" width="2.50" customShape="1" shape="55.51,50.36 77.45,48.90 101.45,47.31"/>
    </edge>
    <edge id="7493" from="11" to="12" priority="1" spreadType="center" length="48.11">
        <lane id="7493_0" index="0" disallow="rail_fast" speed="36.11" length="48.11" width="2.50" customShape="1" shape="101.62,49.81 77.62,51.40 55.42,52.86"/>
    </edge>
    <edge id="7494" from="13" to="14" priority="1" spreadType="center" length="27.77">
        <lane id="7494_0" index="0" disallow="rail_fast" speed="36.11" length="27.77" width="2.50" customShape="1" shape="-51.41,38.73 -52.93,26.49 -54.43,14.49"/>
    </edge>
    <edge id="7495" from="15" to="16" priority="1" spreadType="center" length="25.77">
        <lane id="7495_0" index="0" disallow="rail_fast" speed="36.11" length="25.77" width="2.50" customShape="1" shape="13.79,49.01 24.76,49.69 35.81,50.38"/>
    </edge>
    <edge id="7496" from="17" to="18" priority="1" spreadType="center" length="25.77">
        <lane id="7496_0" index="0" disallow="rail_fast" speed="36.11" length="25.77" width="2.50" customShape="1" shape="35.95,52.89 24.61,52.19 13.66,51.50"/>
    </edge>
    <edge id="7497" from="19" to="20" priority="1" spreadType="center" length="54.51">
        <lane id="7497_0" index="0" disallow="bus truck rail_fast" speed="36.11" length="54.51" width="2.50" customShape="1" shape="-64.78,105.13 -61.38,95.63 -56.64,82.85 -54.48,76.12 -52.95,70.26 -51.99,65.31 -51.41,60.30 -51.05,54.28"/>
    </edge>
    <edge id="7498" from="21" to="22" priority="1" spreadType="center" length="88.70">
        <lane id="7498_0" index="0" disallow="rail_fast" speed="36.11" length="88.70" width="2.50" customShape="1" shape="5.99,59.59 10.89,101.75 16.01,145.81"/>
    </edge>
    <edge id="7499" from="23" to="24" priority="1" spreadType="center" length="88.71">
        <lane id="7499_0" index="0" disallow="rail_fast" speed="36.11" length="88.71" width="2.50" customShape="1" shape="13.53,146.10 8.41,102.04 3.46,59.51"/>
    </edge>
    <edge id="7500" from="25" to="26" priority="1" spreadType="center" length="80.42">
        <lane id="7500_0" index="0" disallow="rail_fast" speed="36.11" length="80.42" width="2.50" customShape="1" shape="21.41,-26.35 -13.80,-11.53 -49.50,3.48"/>
    </edge>
    <edge id="7502" from="27" to="28" priority="1" spreadType="center" length="204.25">
        <lane id="7502_0" index="0" disallow="rail_fast" speed="36.11" length="204.25" width="2.50" customShape="1" shape="77.75,262.12 61.81,161.24 46.12,62.02"/>
        <lane id="7502_1" index="1" disallow="rail_fast" speed="36.11" length="204.25" width="2.50" customShape="1" shape="80.22,261.73 64.27,160.84 48.59,61.62"/>
    </edge>
    <edge id="7504" from="29" to="30" priority="1" spreadType="center" length="261.55">
        <lane id="7504_0" index="0" disallow="rail_fast" speed="36.11" length="261.55" width="2.50" acceleration="1" customShape="1" shape="27.29,-38.82 4.98,-207.75 1.67,-229.53 -9.00,-295.83"/>
        <lane id="7504_1" index="1" disallow="rail_fast" speed="36.11" length="261.55" width="2.50" customShape="1" shape="29.76,-39.16 7.45,-208.12 4.14,-229.92 -6.53,-296.22"/>
    </edge>
    <edge id="7505" from="31" to="32" priority="1" spreadType="center" length="48.60">
        <lane id="7505_0" index="0" disallow="rail_fast" speed="36.11" length="48.60" width="2.50" customShape="1" shape="81.90,-50.50 59.30,-41.56 38.52,-33.33"/>
    </edge>
    <edge id="7506" from="4" to="13" priority="1" spreadType="center" length="11.32">
        <lane id="7506_0" index="0" disallow="bus truck rail_fast" speed="36.11" length="11.32" width="2.50" customShape="1" shape="-45.43,47.46 -45.76,47.41 -46.90,46.99"/>
    </edge>
    <edge id="7507" from="26" to="7" priority="1" spreadType="center" length="11.51">
        <lane id="7507_0" index="0" disallow="bus truck rail_fast" speed="36.11" length="11.51" width="2.50" customShape="1" shape="-52.23,4.67 -54.31,5.59"/>
    </edge>
    <edge id="7508" from="18" to="3" priority="1" spreadType="center" length="14.81">
        <lane id="7508_0" index="0" disallow="rail_fast" speed="36.11" length="14.81" width="2.50" customShape="1" shape="4.11,50.89 3.91,50.88"/>
    </edge>
    <edge id="7509" from="28" to="9" priority="1" spreadType="center" length="12.52">
        <lane id="7509_0" index="0" disallow="bus truck rail_fast" speed="36.11" length="12.52" width="2.50" customShape="1" shape="48.73,52.09 48.91,52.01"/>
    </edge>
    <edge id="7510" from="6" to="25" priority="1" spreadType="center" length="9.76">
        <lane id="7510_0" index="0" disallow="bus truck rail_fast" speed="36.11" length="9.76" width="2.50" customShape="1" shape="24.43,-27.51 23.26,-27.12"/>
    </edge>
    <edge id="7511" from="12" to="5" priority="1" spreadType="center" length="13.51">
        <lane id="7511_0" index="0" disallow="bus truck rail_fast" speed="36.11" length="13.51" width="2.50" customShape="1" shape="48.49,51.46 48.39,51.29"/>
    </edge>
    <edge id="7512" from="16" to="9" priority="1" spreadType="center" length="15.84">
        <lane id="7512_0" index="0" disallow="bus truck rail_fast" speed="36.11" length="15.84" width="2.50" customShape="1" shape="45.31,50.72 46.09,50.71"/>
    </edge>
    <edge id="7513" from="24" to="15" priority="1" spreadType="center" length="15.03">
        <lane id="7513_0" index="0" disallow="bus truck rail_fast" speed="36.11" length="15.03" width="2.50" customShape="1" shape="4.17,51.72 4.31,51.57"/>
    </edge>
    <edge id="7514" from="32" to="29" priority="1" spreadType="center" length="9.94">
        <lane id="7514_0" index="0" disallow="bus truck rail_fast" speed="36.11" length="9.94" width="2.50" customShape="1" shape="30.53,-35.05 30.12,-36.55 30.02,-37.21"/>
    </edge>
    <edge id="7515" from="18" to="21" priority="1" spreadType="center" length="10.58">
        <lane id="7515_0" index="0" disallow="bus truck rail_fast" speed="36.11" length="10.58" width="2.50" customShape="1" shape="5.85,53.01 5.84,53.21"/>
    </edge>
    <edge id="7516" from="28" to="17" priority="1" spreadType="center" length="12.24">
        <lane id="7516_0" index="0" disallow="bus truck rail_fast" speed="36.11" length="12.24" width="2.50" customShape="1" shape="43.10,54.31 42.91,54.26"/>
    </edge>
    <edge id="7517" from="24" to="3" priority="1" spreadType="center" length="10.82">
        <lane id="7517_0" index="0" disallow="bus truck rail_fast" speed="36.11" length="10.82" width="2.50" customShape="1" shape="1.77,52.78 1.62,52.66"/>
    </edge>
    <edge id="7518" from="20" to="1" priority="1" spreadType="center" length="11.85">
        <lane id="7518_0" index="0" disallow="bus truck rail_fast" speed="36.11" length="11.85" width="2.50" customShape="1" shape="-46.93,45.52 -45.60,45.22"/>
    </edge>
    <edge id="7520" from="12" to="17" priority="1" spreadType="center" length="16.14">
        <lane id="7520_0" index="0" disallow="bus truck rail_fast" speed="36.11" length="16.14" width="2.50" customShape="1" shape="46.01,53.21 45.90,53.21"/>
    </edge>
    <edge id="7521" from="32" to="25" priority="1" spreadType="center" length="14.53">
        <lane id="7521_0" index="0" disallow="rail_fast" speed="36.11" length="14.53" width="2.50" customShape="1" shape="29.97,-29.86 29.84,-29.81"/>
    </edge>
    <edge id="7522" from="2" to="21" priority="1" spreadType="center" length="14.29">
        <lane id="7522_0" index="0" disallow="bus truck rail_fast" speed="36.11" length="14.29" width="2.50" customShape="1" shape="3.85,51.53 3.93,51.71"/>
    </edge>
    <edge id="7524" from="28" to="5" priority="1" spreadType="center" length="16.26">
        <lane id="7524_0" index="0" disallow="bus truck rail_fast" speed="36.11" length="16.26" width="2.50" customShape="1" shape="44.59,53.25 44.56,53.05"/>
        <lane id="7524_1" index="1" disallow="bus truck rail_fast" speed="36.11" length="16.26" width="2.50" customShape="1" shape="47.05,52.79 47.02,52.60"/>
    </edge>
    <edge id="7525" from="20" to="13" priority="1" spreadType="center" length="12.49">
        <lane id="7525_0" index="0" disallow="bus truck rail_fast" speed="36.11" length="12.49" width="2.50" customShape="1" shape="-50.83,46.37 -50.84,46.17"/>
    </edge>
    <edge id="7526" from="14" to="7" priority="1" spreadType="center" length="9.79">
        <lane id="7526_0" index="0" disallow="bus truck rail_fast" speed="36.11" length="9.79" width="2.50" customShape="1" shape="-55.02,10.95 -55.06,10.79 -55.58,9.59 -55.95,9.06 -56.42,8.60 -56.97,8.26 -57.59,8.04 -58.24,7.96 -59.53,8.09 -54.96,11.23"/>
    </edge>
    <edge id="7527" from="2" to="15" priority="1" spreadType="center" length="14.75">
        <lane id="7527_0" index="0" disallow="rail_fast" speed="36.11" length="14.75" width="2.50" customShape="1" shape="3.94,48.38 4.14,48.39"/>
    </edge>
    <edge id="7528" from="6" to="29" priority="1" spreadType="center" length="14.43">
        <lane id="7528_0" index="0" disallow="bus truck rail_fast" speed="36.11" length="14.43" width="2.50" customShape="1" shape="28.65,-29.54 28.62,-29.74"/>
        <lane id="7528_1" index="1" disallow="bus truck rail_fast" speed="36.11" length="14.43" width="2.50" customShape="1" shape="31.12,-29.94 31.08,-30.14"/>
    </edge>
    <edge id="7529" from="16" to="5" priority="1" spreadType="center" length="10.00">
        <lane id="7529_0" index="0" disallow="bus truck rail_fast" speed="36.11" length="10.00" width="2.50" customShape="1" shape="43.11,49.45 43.11,49.25"/>
    </edge>

    <junction id="1" type="priority" x="-43.91" y="45.17" incLanes="7518_0" intLanes=":1_0_0" shape="-42.31,46.53 -42.15,44.04 -43.44,43.96 -43.89,43.94 -44.34,43.94 -44.89,43.95 -45.63,43.97 -45.57,46.47 -44.36,46.30 -43.94,46.32 -43.00,46.47">
        <request index="0" response="0" foes="0" cont="0"/>
    </junction>
    <junction id="10" type="dead_end" x="101.45" y="47.31" incLanes="7492_0" intLanes="" shape="101.37,46.06 101.53,48.56"/>
    <junction id="11" type="dead_end" x="101.62" y="49.81" incLanes="" intLanes="" shape="101.54,48.56 101.70,51.05"/>
    <junction id="12" type="priority" x="53.61" y="52.98" incLanes="7493_0" intLanes=":12_0_0 :12_1_0" shape="55.50,54.11 55.34,51.62 51.88,51.29 50.48,50.68 49.31,49.78 48.37,48.59 47.66,47.10 46.58,50.59 46.86,51.37 46.80,51.62 46.63,51.80 46.34,51.92 45.94,51.96 46.07,54.45">
        <request index="0" response="00" foes="00" cont="0"/>
        <request index="1" response="00" foes="00" cont="0"/>
    </junction>
    <junction id="13" type="priority" x="-51.22" y="40.27" incLanes="7525_0 7506_0" intLanes=":13_0_0 :13_1_0" shape="-52.11,48.51 -49.61,48.24 -49.46,47.57 -49.29,47.42 -49.05,47.38 -48.75,47.45 -48.39,47.64 -45.18,46.23 -47.56,45.11 -48.49,44.01 -49.23,42.55 -49.79,40.74 -50.17,38.57 -52.65,38.88 -52.40,40.92 -52.22,42.43 -52.12,43.68 -52.08,44.93 -52.08,46.45">
        <request index="0" response="00" foes="10" cont="0"/>
        <request index="1" response="01" foes="01" cont="0"/>
    </junction>
    <junction id="14" type="priority" x="-54.65" y="12.71" incLanes="7494_0" intLanes=":14_0_0" shape="-55.67,14.64 -53.19,14.33 -53.80,10.70 -56.24,11.21 -55.84,12.40 -55.78,12.86 -55.74,13.89">
        <request index="0" response="0" foes="0" cont="0"/>
    </junction>
    <junction id="15" type="priority" x="11.90" y="48.89" incLanes="7527_0 7513_0" intLanes=":15_0_0 :15_1_0" shape="13.71,50.26 13.87,47.76 2.69,47.05 2.53,49.54 3.21,49.75 3.37,49.97 3.43,50.26 3.36,50.63 3.19,51.07 4.50,54.83 5.65,52.04 6.94,51.12 8.72,50.52 10.97,50.23">
        <request index="0" response="00" foes="10" cont="0"/>
        <request index="1" response="01" foes="01" cont="0"/>
    </junction>
    <junction id="16" type="priority" x="37.62" y="50.49" incLanes="7495_0" intLanes=":16_0_0 :16_1_0" shape="45.26,51.97 45.36,49.47 44.54,49.29 44.29,49.07 44.16,48.75 44.14,48.34 44.22,47.84 41.66,44.01 35.88,49.13 35.73,51.63">
        <request index="0" response="00" foes="00" cont="0"/>
        <request index="1" response="00" foes="00" cont="0"/>
    </junction>
    <junction id="17" type="priority" x="37.48" y="52.99" incLanes="7516_0 7520_0" intLanes=":17_0_0 :17_1_0" shape="44.20,58.91 45.30,55.63 45.00,54.98 45.03,54.76 45.18,54.59 45.45,54.49 45.85,54.46 45.94,51.96 36.03,51.64 35.87,54.14 37.90,54.38 39.68,54.85 41.19,55.53 42.45,56.44 43.46,57.56">
        <request index="0" response="00" foes="10" cont="0"/>
        <request index="1" response="01" foes="01" cont="0"/>
    </junction>
    <junction id="18" type="priority" x="11.76" y="51.39" incLanes="7496_0" intLanes=":18_0_0 :18_1_0" shape="13.58,52.75 13.73,50.26 3.81,49.62 3.65,52.12 4.42,52.36 4.65,52.61 4.78,52.96 4.81,53.39 4.74,53.92 7.03,57.87">
        <request index="0" response="00" foes="00" cont="0"/>
        <request index="1" response="00" foes="00" cont="0"/>
    </junction>
    <junction id="19" type="dead_end" x="-64.78" y="105.13" incLanes="" intLanes="" shape="-63.61,105.56 -65.96,104.71"/>