<routes>
	<vehicle depart="0.1" departLane="0" departPos="6.081328798635306" departSpeed="1.3629113" id="39" type="bicycle">
		<route edges=":31_1 18162"/>
	</vehicle>
	<vehicle depart="0.1" departLane="0" departPos="12.843162873501111" departSpeed="0.0" id="313" type="passenger">
		<route edges=":31_1 18162"/>
	</vehicle>
	<vehicle depart="0.1" departLane="0" departPos="32.984833653049044" departSpeed="5.3812784" id="320" type="passenger">
		<route edges=":29_1 18125 18162"/>
	</vehicle>
	<vehicle depart="0.1" departLane="0" departPos="20.567445518543774" departSpeed="1.0336543" id="327" type="passenger">
		<route edges=":29_2 17955"/>
	</vehicle>
	<vehicle depart="0.1" departLane="0" departPos="71.60882550692597" departSpeed="1.8260864" id="332" type="passenger">
		<route edges="17953 17955"/>
	</vehicle>
	<vehicle depart="0.1" departLane="0" departPos="53.692639746126424" departSpeed="2.636241" id="335" type="passenger">
		<route edges="17953 18125"/>
	</vehicle>
	<vehicle depart="0.1" departLane="0" departPos="33.69452379816417" departSpeed="5.1995839" id="338" type="passenger">
		<route edges="17953 18125"/>
	</vehicle>
	<vehicle depart="0.1" departLane="0" departPos="9.502567204521327" departSpeed="0.6006835" id="341" type="passenger">
		<route edges=":31_0 18162"/>
	</vehicle>
	<vehicle depart="0.1" departLane="0" departPos="38.01269050144767" departSpeed="14.005083" id="346" type="passenger">
		<route edges="18160 18162"/>
	</vehicle>
</routes>
