<routes>
	<vehicle depart="0.1" departLane="0" departPos="414.8665383846071" departSpeed="16.9913" id="31" type="passenger">
		<route edges="233"/>
	</vehicle>
	<vehicle depart="0.1" departLane="0" departPos="361.55222344615174" departSpeed="18.1339" id="32" type="passenger">
		<route edges="233 233"/>
	</vehicle>
	<vehicle depart="0.1" departLane="0" departPos="390.30233142582597" departSpeed="17.0592" id="33" type="passenger">
		<route edges="233 233"/>
	</vehicle>
	<vehicle depart="0.1" departLane="1" departPos="332.56718758830726" departSpeed="18.8272" id="34" type="passenger">
		<route edges="233"/>
	</vehicle>
	<vehicle depart="0.1" departLane="1" departPos="409.4538284334546" departSpeed="27.5458" id="35" type="passenger">
		<route edges="233"/>
	</vehicle>
	<vehicle depart="0.1" departLane="0" departPos="0" departSpeed="10.8092" id="36" type="passenger">
		<route edges="233"/>
	</vehicle>
	<vehicle depart="0.1" departLane="1" departPos="255.8350210337869" departSpeed="16.8991" id="37" type="passenger">
		<route edges="233 233"/>
	</vehicle>
	<vehicle depart="0.1" departLane="0" departPos="0" departSpeed="7.3516" id="38" type="passenger">
		<route edges="233"/>
	</vehicle>
	<vehicle depart="0.1" departLane="1" departPos="0" departSpeed="9.6732" id="310" type="passenger">
		<route edges="233"/>
	</vehicle>
	<vehicle depart="0.1" departLane="0" departPos="0" departSpeed="9.0335" id="311" type="passenger">
		<route edges="233"/>
	</vehicle>
	<vehicle depart="0.1" departLane="1" departPos="0" departSpeed="8.5197" id="312" type="passenger">
		<route edges="233"/>
	</vehicle>
	<vehicle depart="0.1" departLane="1" departPos="0" departSpeed="8.2532" id="313" type="passenger">
		<route edges="233 233"/>
	</vehicle>
	<vehicle depart="0.1" departLane="1" departPos="0" departSpeed="8.1236" id="314" type="passenger">
		<route edges="233"/>
	</vehicle>
	<vehicle depart="0.1" departLane="1" departPos="0" departSpeed="6.6011" id="315" type="passenger">
		<route edges="233 233"/>
	</vehicle>
	<vehicle depart="0.1" departLane="1" departPos="0" departSpeed="3.4242" id="316" type="passenger">
		<route edges="233"/>
	</vehicle>
</routes>
