<?xml version="1.0" encoding="UTF-8"?>

<!-- generated on Fri Dec 18 16:31:39 2020 by Eclipse SUMO netconvert Version 1.8.0
<configuration xmlns:xsi="http://www.w3.org/2001/XMLSchema-instance" xsi:noNamespaceSchemaLocation="http://sumo.dlr.de/xsd/netconvertConfiguration.xsd">

    <input>
        <node-files value="./converted_scenarios/SUMO/CHN_Cho-1_2_I-1-1/nodes.net.xml"/>
        <edge-files value="./converted_scenarios/SUMO/CHN_Cho-1_2_I-1-1/edges.net.xml"/>
        <connection-files value="./converted_scenarios/SUMO/CHN_Cho-1_2_I-1-1/_connections.net.xml"/>
        <tllogic-files value="./converted_scenarios/SUMO/CHN_Cho-1_2_I-1-1/_tll.net.xml"/>
    </input>

    <output>
        <output-file value="./converted_scenarios/SUMO/CHN_Cho-1_2_I-1-1/CHN_Cho-1_2_I-1-1.net.xml"/>
    </output>

    <processing>
        <plain.extend-edge-shape value="true"/>
        <geometry.remove.keep-edges.explicit value="true"/>
        <geometry.avoid-overlap value="true"/>
        <offset.disable-normalization value="true"/>
    </processing>

    <junctions>
        <no-turnarounds value="true"/>
        <junctions.internal-link-detail value="20"/>
    </junctions>

    <report>
        <aggregate-warnings value="5"/>
    </report>

    <random_number>
        <seed value="1234"/>
    </random_number>

</configuration>
-->

<net version="1.6" junctionCornerDetail="5" junctionLinkDetail="20" limitTurnSpeed="5.50" xmlns:xsi="http://www.w3.org/2001/XMLSchema-instance" xsi:noNamespaceSchemaLocation="http://sumo.dlr.de/xsd/net_file.xsd">

    <location netOffset="0.00,0.00" convBoundary="-312.16,-470.00,239.67,-300.21" origBoundary="-312.83,-471.61,240.14,-298.52" projParameter="!"/>

    <edge id="233" from="1" to="2" priority="1" spreadType="center" length="579.70">
        <lane id="233_0" index="0" disallow="rail_fast" speed="36.11" length="579.70" width="3.50" customShape="1" shape="-311.48,-471.61 -160.63,-408.91 -134.06,-398.40 -92.21,-381.65 -73.04,-374.33 -57.03,-368.62 -42.32,-363.76 -27.98,-359.43 -15.45,-356.02 -1.85,-352.74 13.30,-349.52 32.49,-345.90 69.97,-339.40 83.83,-337.41 117.20,-333.26 130.14,-331.31 141.04,-329.32 153.82,-326.51 167.48,-323.11 183.45,-318.69 199.80,-313.85 230.98,-304.50 240.15,-301.89"/>
        <lane id="233_1" index="1" disallow="rail_fast" speed="36.11" length="579.70" width="3.50" customShape="1" shape="-312.83,-468.38 -161.89,-405.65 -135.32,-395.13 -93.42,-378.36 -74.21,-371.04 -58.16,-365.30 -43.40,-360.43 -29.00,-356.08 -16.42,-352.66 -2.78,-349.36 12.43,-346.12 31.64,-342.50 69.19,-335.98 83.08,-333.98 116.42,-329.83 129.31,-327.90 140.16,-325.92 152.90,-323.14 166.52,-319.74 182.47,-315.34 198.81,-310.50 230.03,-301.13 239.19,-298.52"/>
    </edge>

    <junction id="1" type="dead_end" x="-312.16" y="-470.00" incLanes="" intLanes="" shape="-313.50,-466.77 -310.81,-473.23"/>
    <junction id="2" type="dead_end" x="239.67" y="-300.21" incLanes="233_0 233_1" intLanes="" shape="240.63,-303.57 238.71,-296.84"/>

</net>
