<!-- generated on 2020-12-18 16:45:30.658239 by ipykernel_launcher.py v1_2_0+5214-53edc58fcd
-->
<nodes>
	<node id="1" type="from" x="144.4216" y="218.6996"/>
	<node id="2" type="to" x="91.3798" y="113.29140000000001"/>
	<node id="3" type="from" x="93.60805" y="112.16225"/>
	<node id="4" type="to" x="146.684" y="217.63715000000002"/>
	<node id="5" type="from" x="-50.518525" y="110.753875"/>
	<node id="6" type="to" x="-229.238225" y="113.73089999999999"/>
	<node id="7" type="from" x="-229.108325" y="108.745675"/>
	<node id="8" type="to" x="-50.638125" y="105.75527499999998"/>
	<node id="9" type="from" x="-65.585125" y="20.835075"/>
	<node id="10" type="to" x="-53.41355" y="52.857400000000005"/>
	<node id="11" type="from" x="120.309375" y="96.7715"/>
	<node id="12" type="to" x="98.538325" y="103.82329999999999"/>
	<node id="13" type="from" x="97.3489" y="98.96755"/>
	<node id="14" type="to" x="118.556325" y="92.0889"/>
	<node id="15" type="from" x="-65.51785000000001" y="-193.31235"/>
	<node id="16" type="to" x="-129.9053" y="-168.8879"/>
	<node id="17" type="from" x="-161.66005" y="-62.43344999999999"/>
	<node id="18" type="to" x="-161.41680000000002" y="-62.26705"/>
	<node id="19" type="from" x="-162.7575" y="-60.19035"/>
	<node id="20" type="to" x="-162.96910000000003" y="-60.30355"/>
	<node id="21" type="from" x="19.26025" y="-22.92025"/>
	<node id="22" type="to" x="-60.9239" y="12.4962"/>
	<node id="23" type="from" x="-61.930949999999996" y="10.209900000000001"/>
	<node id="24" type="to" x="18.2791" y="-25.21905"/>
	<node id="25" type="from" x="32.20985" y="282.69165"/>
	<node id="26" type="to" x="70.1134" y="385.6336"/>
	<node id="27" type="from" x="-133.6463" y="-158.6902"/>
	<node id="28" type="to" x="-112.27437499999999" y="-101.026775"/>
	<node id="29" type="from" x="-34.532399999999996" y="110.15735"/>
	<node id="30" type="to" x="-34.783825" y="110.174375"/>
	<node id="31" type="from" x="-35.13465" y="105.190425"/>
	<node id="32" type="to" x="-34.861975" y="105.17115000000001"/>
	<node id="33" type="from" x="-47.7633" y="66.783275"/>
	<node id="34" type="to" x="-33.877449999999996" y="98.813275"/>
	<node id="35" type="from" x="-163.131975" y="-52.3156"/>
	<node id="36" type="to" x="-186.6712" y="-30.5874"/>
	<node id="37" type="from" x="-190.06257499999998" y="-34.261475000000004"/>
	<node id="38" type="to" x="-166.53069999999997" y="-55.982699999999994"/>
	<node id="39" type="from" x="41.7785" y="11.4546"/>
	<node id="40" type="to" x="27.488149999999997" y="-19.979300000000002"/>
	<node id="41" type="from" x="29.74855" y="-21.04555"/>
	<node id="42" type="to" x="44.060249999999996" y="10.43425"/>
	<node id="43" type="from" x="-123.911" y="-85.06465"/>
	<node id="44" type="to" x="-151.938475" y="-62.813675"/>
	<node id="45" type="from" x="-155.411" y="-66.41075000000001"/>
	<node id="46" type="to" x="-125.94049999999999" y="-89.63405"/>
	<node id="47" type="from" x="-237.0959" y="107.38842499999998"/>
	<node id="48" type="to" x="-237.107375" y="107.15559999999999"/>
	<node id="49" type="from" x="-232.12122499999998" y="106.7834"/>
	<node id="50" type="to" x="-232.27810000000002" y="106.793175"/>
	<node id="51" type="from" x="-74.86892499999999" y="11.489350000000002"/>
	<node id="52" type="to" x="-112.96225" y="-82.551475"/>
	<node id="53" type="from" x="-151.5419" y="-158.1763"/>
	<node id="54" type="to" x="-343.23159999999996" y="-121.20785000000001"/>
	<node id="55" type="from" x="-343.68089999999995" y="-123.6671"/>
	<node id="56" type="to" x="-152.32295" y="-160.54975000000002"/>
	<node id="57" type="from" x="51.808525" y="361.78255"/>
	<node id="58" type="to" x="25.590875" y="284.228575"/>
	<node id="59" type="from" x="-44.056" y="55.845"/>
	<node id="60" type="to" x="38.8988" y="19.523899999999998"/>
	<node id="61" type="from" x="39.9032" y="21.81195"/>
	<node id="62" type="to" x="-43.05005" y="58.1329"/>
	<node id="63" type="from" x="-26.57595" y="117.488325"/>
	<node id="64" type="to" x="25.994025" y="265.50942499999996"/>
	<node id="65" type="from" x="-53.925200000000004" y="59.9384"/>
	<node id="66" type="to" x="-53.67515" y="59.8641"/>
	<node id="67" type="from" x="-52.85445" y="62.17065"/>
	<node id="68" type="to" x="-53.098299999999995" y="62.2702"/>
	<node id="69" type="from" x="-112.09045" y="-90.13142500000001"/>
	<node id="70" type="to" x="-112.3221" y="-90.02372500000001"/>
	<node id="71" type="from" x="-114.388275" y="-94.56235000000001"/>
	<node id="72" type="to" x="-114.0517" y="-94.69742500000001"/>
	<node id="73" type="from" x="-168.17444999999998" y="-367.92870000000005"/>
	<node id="74" type="to" x="-138.418475" y="-172.40855"/>
	<node id="75" type="from" x="-147.15179999999998" y="-168.58755"/>
	<node id="76" type="to" x="-185.536225" y="-367.174525"/>
	<node id="77" type="from" x="142.66672499999999" y="232.77112499999998"/>
	<node id="78" type="to" x="38.642775" y="273.75835"/>
	<node id="79" type="from" x="37.228899999999996" y="268.96242500000005"/>
	<node id="80" type="to" x="140.34697500000001" y="228.34205"/>
	<node id="81" type="from" x="-43.057275000000004" y="97.884075"/>
	<node id="82" type="to" x="-54.285475000000005" y="68.293175"/>
	<node id="83" type="from" x="81.88135" y="94.20595"/>
	<node id="84" type="to" x="47.9707" y="24.6209"/>
	<node id="85" type="from" x="50.209649999999996" y="23.5101"/>
	<node id="86" type="to" x="84.1286" y="93.11314999999999"/>
	<node id="87" type="from" x="-235.5694" y="116.32755"/>
	<node id="88" type="to" x="-235.55515" y="116.02695"/>
	<node id="89" type="from" x="-233.0818" y="116.1214"/>
	<node id="90" type="to" x="-233.06945000000002" y="116.33670000000001"/>
	<node id="91" type="from" x="26.2603" y="277.305675"/>
	<node id="92" type="to" x="26.034399999999998" y="277.3594"/>
	<node id="93" type="from" x="24.7158" y="272.558375"/>
	<node id="94" type="to" x="24.976075" y="272.483725"/>
	<node id="95" type="from" x="14.453824999999998" y="281.21317500000004"/>
	<node id="96" type="to" x="-48.97365" y="304.457175"/>
	<node id="97" type="from" x="-51.309875000000005" y="300.0366"/>
	<node id="98" type="to" x="12.7935" y="276.49692500000003"/>
	<node id="99" type="from" x="-70.06784999999999" y="16.33895"/>
	<node id="100" type="to" x="-70.35535" y="16.4149"/>
	<node id="101" type="from" x="-71.19669999999999" y="14.1926"/>
	<node id="102" type="to" x="-70.94364999999999" y="14.0647"/>
	<node id="103" type="from" x="-140.9111" y="-164.75955"/>
	<node id="104" type="to" x="-140.6648" y="-164.8739"/>
	<node id="105" type="from" x="-139.59109999999998" y="-162.62279999999998"/>
	<node id="106" type="to" x="-139.85875" y="-162.4952"/>
	<node id="107" type="from" x="76.8141" y="107.3511"/>
	<node id="108" type="to" x="-19.2867" y="109.43405"/>
	<node id="109" type="from" x="-19.476025" y="104.43764999999999"/>
	<node id="110" type="to" x="76.32492500000001" y="102.37535"/>
	<node id="111" type="from" x="-119.61042499999999" y="-99.040875"/>
	<node id="112" type="to" x="-142.153275" y="-155.22435000000002"/>
	<node id="113" type="from" x="-107.062925" y="-87.212625"/>
	<node id="114" type="to" x="-70.76925" y="7.27045"/>
	<node id="115" type="from" x="-58.700325" y="56.29022500000001"/>
	<node id="116" type="to" x="-71.22030000000001" y="21.100724999999997"/>
	<node id="117" type="from" x="19.443975000000002" y="267.505375"/>
	<node id="118" type="to" x="-36.028625" y="116.67477500000001"/>
</nodes>
