<!-- generated on Tue Feb  9 22:19:44 2021 by Eclipse SUMO netconvert Version 1.8.0
<configuration xmlns:xsi="http://www.w3.org/2001/XMLSchema-instance" xsi:noNamespaceSchemaLocation="http://sumo.dlr.de/xsd/netconvertConfiguration.xsd">

    <input>
        <node-files value="./converted_scenarios/scenario-factory/DEU_Ibbenbueren-15_3_I-1-1/DEU_Ibbenbueren-15_3_I-1-1.nod.xml"/>
        <edge-files value="./converted_scenarios/scenario-factory/DEU_Ibbenbueren-15_3_I-1-1/DEU_Ibbenbueren-15_3_I-1-1.edg.xml"/>
        <connection-files value="./converted_scenarios/scenario-factory/DEU_Ibbenbueren-15_3_I-1-1/DEU_Ibbenbueren-15_3_I-1-1.con.xml"/>
        <tllogic-files value="./converted_scenarios/scenario-factory/DEU_Ibbenbueren-15_3_I-1-1/DEU_Ibbenbueren-15_3_I-1-1.tll.xml"/>
        <type-files value="/home/zen/commonroad-interactive-benchmarks/install/commonroad-map-tool/crmapconverter/sumo_map/templates/DEU.typ.xml"/>
    </input>

    <output>
        <output-file value="./converted_scenarios/scenario-factory/DEU_Ibbenbueren-15_3_I-1-1/DEU_Ibbenbueren-15_3_I-1-1.net.xml"/>
    </output>

    <processing>
        <geometry.remove.keep-edges.explicit value="true"/>
        <geometry.avoid-overlap value="true"/>
        <offset.disable-normalization value="true"/>
    </processing>

    <junctions>
        <no-turnarounds value="true"/>
        <junctions.internal-link-detail value="20"/>
    </junctions>

    <report>
        <aggregate-warnings value="5"/>
    </report>

    <random_number>
        <seed value="1234"/>
    </random_number>

</configuration>
--><net xmlns:xsi="http://www.w3.org/2001/XMLSchema-instance" version="1.6" junctionCornerDetail="5" junctionLinkDetail="20" limitTurnSpeed="5.50" xsi:noNamespaceSchemaLocation="http://sumo.dlr.de/xsd/net_file.xsd">

    <location netOffset="0.00,0.00" convBoundary="-361.11,-925.71,-81.38,-605.89" origBoundary="-361.11,-925.71,-81.38,-605.89" projParameter="!"/>

    <type id="highway.bridleway" priority="1" speed="2.78" allow="pedestrian" oneway="1" width="2.00"/>
    <type id="highway.bus_guideway" priority="1" speed="27.78" allow="bus" oneway="1"/>
    <type id="highway.cycleway" priority="1" speed="8.33" allow="bicycle" oneway="0" width="1.00"/>
    <type id="highway.footway" priority="1" speed="2.78" allow="pedestrian" oneway="1" width="2.00"/>
    <type id="highway.ford" priority="1" speed="2.78" allow="army" oneway="0"/>
    <type id="highway.living_street" priority="2" speed="2.78" disallow="tram rail_urban rail rail_electric rail_fast ship" oneway="0"/>
    <type id="highway.motorway" priority="14" speed="39.44" allow="private emergency authority army vip passenger hov taxi bus coach delivery truck trailer motorcycle evehicle custom1 custom2" oneway="1"/>
    <type id="highway.motorway_link" priority="9" speed="22.22" allow="private emergency authority army vip passenger hov taxi bus coach delivery truck trailer motorcycle evehicle custom1 custom2" oneway="1"/>
    <type id="highway.path" priority="1" speed="2.78" allow="pedestrian bicycle" oneway="0" width="2.00"/>
    <type id="highway.pedestrian" priority="1" speed="2.78" allow="pedestrian" oneway="1" width="2.00"/>
    <type id="highway.primary" priority="12" speed="27.78" disallow="pedestrian tram rail_urban rail rail_electric rail_fast ship" oneway="0"/>
    <type id="highway.primary_link" priority="7" speed="22.22" disallow="pedestrian tram rail_urban rail rail_electric rail_fast ship" oneway="0"/>
    <type id="highway.raceway" priority="15" speed="83.33" allow="vip" oneway="0"/>
    <type id="highway.residential" priority="3" speed="13.89" disallow="pedestrian tram rail_urban rail rail_electric rail_fast ship" oneway="0"/>
    <type id="highway.secondary" priority="11" speed="27.78" disallow="pedestrian tram rail_urban rail rail_electric rail_fast ship" oneway="0"/>
    <type id="highway.secondary_link" priority="6" speed="22.22" disallow="pedestrian tram rail_urban rail rail_electric rail_fast ship" oneway="0"/>
    <type id="highway.service" priority="1" speed="5.56" allow="pedestrian delivery bicycle" oneway="0"/>
    <type id="highway.stairs" priority="1" speed="1.39" allow="pedestrian" oneway="1" width="2.00"/>
    <type id="highway.step" priority="1" speed="1.39" allow="pedestrian" oneway="1" width="2.00"/>
    <type id="highway.steps" priority="1" speed="1.39" allow="pedestrian" oneway="1" width="2.00"/>
    <type id="highway.tertiary" priority="10" speed="22.22" disallow="pedestrian tram rail_urban rail rail_electric rail_fast ship" oneway="0"/>
    <type id="highway.tertiary_link" priority="5" speed="22.22" disallow="pedestrian tram rail_urban rail rail_electric rail_fast ship" oneway="0"/>
    <type id="highway.track" priority="1" speed="5.56" allow="pedestrian motorcycle moped bicycle" oneway="0"/>
    <type id="highway.trunk" priority="13" speed="27.78" disallow="pedestrian bicycle tram rail_urban rail rail_electric rail_fast ship" oneway="0"/>
    <type id="highway.trunk_link" priority="8" speed="22.22" disallow="pedestrian bicycle tram rail_urban rail rail_electric rail_fast ship" oneway="0"/>
    <type id="highway.unclassified" priority="4" speed="13.89" disallow="pedestrian tram rail_urban rail rail_electric rail_fast ship" oneway="0"/>
    <type id="highway.unsurfaced" priority="1" speed="8.33" disallow="tram rail_urban rail rail_electric rail_fast ship" oneway="0"/>
    <type id="railway.highspeed" priority="21" speed="69.44" allow="rail_fast" oneway="1"/>
    <type id="railway.light_rail" priority="19" speed="27.78" allow="rail_urban" oneway="1"/>
    <type id="railway.preserved" priority="16" speed="27.78" allow="rail" oneway="1"/>
    <type id="railway.rail" priority="20" speed="44.44" allow="rail" oneway="1"/>
    <type id="railway.subway" priority="18" speed="27.78" allow="rail_urban" oneway="1"/>
    <type id="railway.tram" priority="17" speed="13.89" allow="tram" oneway="1"/>

    <edge id=":53_0" function="internal">
        <lane id=":53_0_0" index="0" disallow="pedestrian tram rail_urban rail rail_electric rail_fast ship" speed="12.62" length="27.83" width="3.50" shape="-203.60,-701.16 -205.50,-704.00 -207.44,-706.53 -209.59,-708.88 -211.16,-710.32 -212.84,-711.62 -214.65,-712.73 -216.58,-713.61 -218.62,-714.22 -220.72,-714.51 -222.85,-714.48 -224.94,-714.13 -225.95,-713.86"/>
    </edge>
    <edge id=":53_1" function="internal">
        <lane id=":53_1_0" index="0" disallow="pedestrian tram rail_urban rail rail_electric rail_fast ship" speed="36.11" length="40.07" width="3.50" shape="-203.60,-701.16 -204.66,-703.23 -206.10,-707.16 -208.54,-715.19 -212.32,-729.38 -214.86,-739.55"/>
    </edge>
    <edge id=":53_2" function="internal">
        <lane id=":53_2_0" index="0" disallow="pedestrian tram rail_urban rail rail_electric rail_fast ship" speed="11.50" length="37.55" width="3.50" shape="-203.60,-701.16 -205.06,-703.67 -206.18,-706.15 -206.99,-708.77 -207.25,-710.19 -207.38,-711.63 -207.35,-713.08 -207.16,-714.54 -206.79,-715.97 -206.25,-717.34 -205.56,-718.63 -204.74,-719.82 -203.81,-720.91 -202.82,-721.90 -201.74,-722.81 -199.52,-724.35 -197.17,-725.66 -193.55,-727.25 -189.84,-728.53"/>
    </edge>
    <edge id=":53_3" function="internal">
        <lane id=":53_3_0" index="0" disallow="pedestrian tram rail_urban rail rail_electric rail_fast ship" speed="10.42" length="30.74" width="3.50" shape="-188.81,-725.18 -192.05,-724.07 -195.18,-722.72 -197.17,-721.63 -199.05,-720.35 -199.93,-719.63 -200.76,-718.84 -201.51,-717.99 -202.18,-717.07 -202.74,-716.09 -203.19,-715.04 -203.51,-713.95 -203.68,-712.83 -203.73,-711.69 -203.65,-710.56 -203.47,-709.44 -202.82,-707.26 -201.89,-705.18 -200.75,-703.18"/>
    </edge>
    <edge id=":53_4" function="internal">
        <lane id=":53_4_0" index="0" disallow="pedestrian tram rail_urban rail rail_electric rail_fast ship" speed="36.11" length="38.83" width="3.50" shape="-188.81,-725.18 -207.40,-719.52 -225.95,-713.86"/>
    </edge>
    <edge id=":53_5" function="internal">
        <lane id=":53_5_0" index="0" disallow="pedestrian tram rail_urban rail rail_electric rail_fast ship" speed="12.00" length="34.60" width="3.50" shape="-188.81,-725.18 -192.69,-724.20 -195.32,-723.80 -197.98,-723.67 -200.63,-723.86 -201.94,-724.11 -203.23,-724.46 -204.47,-724.92 -205.67,-725.49 -206.81,-726.18 -207.88,-726.97 -208.88,-727.85 -209.79,-728.82 -211.38,-730.95 -212.67,-733.28 -213.70,-735.73 -214.52,-738.27 -214.86,-739.55"/>
    </edge>
    <edge id=":53_6" function="internal">
        <lane id=":53_6_0" index="0" disallow="pedestrian tram rail_urban rail rail_electric rail_fast ship" speed="10.98" length="28.79" width="3.50" shape="-211.46,-740.38 -211.17,-739.28 -210.46,-737.08 -209.59,-735.00 -208.51,-733.05 -207.18,-731.28 -206.47,-730.53 -205.67,-729.83 -204.82,-729.21 -203.92,-728.67 -202.97,-728.21 -201.97,-727.85 -200.94,-727.57 -199.91,-727.38 -197.69,-727.21 -195.45,-727.33 -193.22,-727.67 -189.84,-728.53"/>
    </edge>
    <edge id=":53_7" function="internal">
        <lane id=":53_7_0" index="0" disallow="pedestrian tram rail_urban rail rail_electric rail_fast ship" speed="36.11" length="38.76" width="3.50" shape="-211.46,-740.38 -208.97,-730.37 -205.26,-716.42 -202.90,-708.57 -201.54,-704.82 -200.75,-703.18"/>
    </edge>
    <edge id=":53_8" function="internal">
        <lane id=":53_8_0" index="0" disallow="pedestrian tram rail_urban rail rail_electric rail_fast ship" speed="12.43" length="34.15" width="3.50" shape="-211.46,-740.38 -210.74,-736.64 -210.49,-734.06 -210.50,-731.46 -210.80,-728.83 -211.45,-726.27 -211.94,-724.98 -212.52,-723.75 -213.20,-722.58 -213.98,-721.47 -214.86,-720.40 -216.77,-718.57 -218.91,-717.01 -221.18,-715.73 -223.55,-714.69 -225.95,-713.86"/>
    </edge>
    <edge id=":53_9" function="internal">
        <lane id=":53_9_0" index="0" disallow="pedestrian tram rail_urban rail rail_electric rail_fast ship" speed="11.44" length="28.79" width="3.50" shape="-226.98,-717.21 -224.90,-717.93 -222.87,-718.82 -220.94,-719.90 -219.15,-721.21 -217.56,-722.75 -216.85,-723.61 -216.22,-724.52 -215.67,-725.48 -215.20,-726.48 -214.81,-727.52 -214.26,-729.67 -214.01,-731.87 -214.02,-734.08 -214.23,-736.29 -214.86,-739.55"/>
    </edge>
    <edge id=":53_10" function="internal">
        <lane id=":53_10_0" index="0" disallow="pedestrian tram rail_urban rail rail_electric rail_fast ship" speed="36.11" length="38.83" width="3.50" shape="-226.98,-717.21 -208.42,-722.86 -189.84,-728.53"/>
    </edge>
    <edge id=":53_11" function="internal">
        <lane id=":53_11_0" index="0" disallow="pedestrian tram rail_urban rail rail_electric rail_fast ship" speed="13.59" length="32.23" width="3.50" shape="-226.98,-717.21 -225.75,-717.54 -223.28,-717.96 -220.72,-718.03 -218.18,-717.73 -215.71,-717.05 -213.39,-716.04 -211.23,-714.77 -209.24,-713.30 -207.41,-711.65 -204.95,-709.01 -202.75,-706.17 -200.75,-703.18"/>
    </edge>
    <edge id=":54_0" function="internal">
        <lane id=":54_0_0" index="0" disallow="pedestrian tram rail_urban rail rail_electric rail_fast ship" speed="11.90" length="29.87" width="3.50" shape="-238.73,-839.97 -239.51,-841.95 -240.47,-843.86 -241.63,-845.66 -242.99,-847.29 -244.57,-848.73 -246.35,-849.91 -248.28,-850.82 -250.32,-851.44 -252.43,-851.80 -254.56,-851.94 -256.69,-851.87 -259.87,-851.48 -262.99,-850.81"/>
    </edge>
    <edge id=":54_1" function="internal">
        <lane id=":54_1_0" index="0" disallow="pedestrian tram rail_urban rail rail_electric rail_fast ship" speed="36.11" length="38.71" width="3.50" shape="-238.73,-839.97 -243.78,-853.72 -252.55,-876.13"/>
    </edge>
    <edge id=":54_2" function="internal">
        <lane id=":54_2_0" index="0" disallow="pedestrian tram rail_urban rail rail_electric rail_fast ship" speed="36.11" length="38.85" width="3.50" shape="-249.30,-877.44 -240.50,-854.94 -235.44,-841.15"/>
    </edge>
    <edge id=":54_3" function="internal">
        <lane id=":54_3_0" index="0" disallow="pedestrian tram rail_urban rail rail_electric rail_fast ship" speed="11.69" length="35.34" width="3.50" shape="-249.30,-877.44 -248.41,-874.97 -247.71,-872.43 -247.24,-869.79 -247.09,-867.10 -247.16,-865.69 -247.35,-864.30 -247.67,-862.93 -248.13,-861.58 -248.72,-860.29 -249.45,-859.06 -250.29,-857.92 -251.23,-856.87 -252.25,-855.92 -253.33,-855.06 -254.48,-854.28 -256.81,-853.00 -259.27,-851.96 -262.99,-850.81"/>
    </edge>
    <edge id=":54_4" function="internal">
        <lane id=":54_4_0" index="0" disallow="pedestrian tram rail_urban rail rail_electric rail_fast ship" speed="10.66" length="29.12" width="3.50" shape="-263.74,-854.23 -260.65,-855.19 -258.58,-856.07 -256.60,-857.15 -255.67,-857.78 -254.79,-858.48 -253.96,-859.25 -253.21,-860.08 -252.54,-860.99 -251.97,-861.96 -251.50,-862.98 -251.14,-864.05 -250.88,-865.14 -250.72,-866.26 -250.66,-867.38 -250.79,-869.63 -251.18,-871.85 -251.79,-874.02 -252.55,-876.13"/>
    </edge>
    <edge id=":54_5" function="internal">
        <lane id=":54_5_0" index="0" disallow="pedestrian tram rail_urban rail rail_electric rail_fast ship" speed="12.83" length="34.98" width="3.50" shape="-263.74,-854.22 -260.32,-854.96 -256.69,-855.40 -254.20,-855.46 -251.70,-855.29 -249.21,-854.83 -246.77,-854.06 -244.45,-852.94 -242.32,-851.49 -240.42,-849.74 -238.80,-847.78 -237.45,-845.65 -236.33,-843.42 -235.44,-841.15"/>
    </edge>
    <edge id=":55_0" function="internal">
        <lane id=":55_0_0" index="0" disallow="pedestrian tram rail_urban rail rail_electric rail_fast ship" speed="11.19" length="28.80" width="3.50" shape="-222.28,-769.96 -222.90,-772.20 -223.68,-774.34 -224.63,-776.37 -225.78,-778.25 -227.18,-779.96 -227.93,-780.68 -228.75,-781.35 -229.62,-781.94 -230.54,-782.46 -231.51,-782.89 -232.52,-783.24 -233.53,-783.50 -235.72,-783.82 -237.94,-783.85 -240.17,-783.65 -243.60,-782.99"/>
    </edge>
    <edge id=":55_1" function="internal">
        <lane id=":55_1_0" index="0" disallow="pedestrian tram rail_urban rail rail_electric rail_fast ship" speed="36.11" length="38.42" width="3.50" shape="-222.28,-769.96 -223.50,-775.03 -227.40,-792.22 -230.50,-807.49"/>
    </edge>
    <edge id=":55_2" function="internal">
        <lane id=":55_2_0" index="0" disallow="pedestrian tram rail_urban rail rail_electric rail_fast ship" speed="36.11" length="38.27" width="3.50" shape="-227.07,-808.19 -223.98,-792.95 -220.09,-775.83 -218.88,-770.81"/>
    </edge>
    <edge id=":55_3" function="internal">
        <lane id=":55_3_0" index="0" disallow="pedestrian tram rail_urban rail rail_electric rail_fast ship" speed="12.38" length="34.15" width="3.50" shape="-227.07,-808.19 -226.67,-805.55 -226.47,-802.93 -226.53,-800.31 -226.89,-797.72 -227.60,-795.20 -228.09,-793.98 -228.68,-792.81 -229.36,-791.69 -230.14,-790.64 -230.99,-789.64 -232.92,-787.87 -235.07,-786.38 -237.38,-785.14 -239.80,-784.14 -243.60,-782.99"/>
    </edge>
    <edge id=":55_4" function="internal">
        <lane id=":55_4_0" index="0" disallow="pedestrian tram rail_urban rail rail_electric rail_fast ship" speed="11.39" length="28.73" width="3.50" shape="-244.44,-786.38 -241.12,-787.39 -239.05,-788.25 -237.08,-789.29 -235.28,-790.54 -233.67,-792.02 -232.99,-792.80 -232.37,-793.66 -231.81,-794.57 -231.33,-795.52 -230.94,-796.47 -230.34,-798.58 -230.04,-800.75 -229.99,-802.98 -230.15,-805.23 -230.50,-807.49"/>
    </edge>
    <edge id=":55_5" function="internal">
        <lane id=":55_5_0" index="0" disallow="pedestrian tram rail_urban rail rail_electric rail_fast ship" speed="12.19" length="34.38" width="3.50" shape="-244.44,-786.38 -240.52,-787.15 -237.89,-787.38 -235.25,-787.34 -232.63,-786.96 -231.35,-786.63 -230.11,-786.20 -228.90,-785.66 -227.74,-785.02 -226.65,-784.28 -225.63,-783.44 -224.68,-782.53 -223.00,-780.48 -221.62,-778.23 -220.50,-775.84 -219.60,-773.35 -218.88,-770.81"/>
    </edge>
    <edge id=":56_0" function="internal">
        <lane id=":56_0_0" index="0" disallow="pedestrian tram rail_urban rail rail_electric rail_fast ship" speed="11.06" length="28.66" width="3.50" shape="-132.19,-725.70 -133.35,-728.80 -134.34,-730.77 -135.52,-732.63 -136.93,-734.33 -137.73,-735.09 -138.58,-735.78 -139.50,-736.40 -140.46,-736.93 -141.47,-737.37 -142.52,-737.72 -143.59,-737.97 -144.68,-738.14 -146.89,-738.23 -149.08,-738.04 -151.25,-737.62 -154.41,-736.68"/>
    </edge>
    <edge id=":56_1" function="internal">
        <lane id=":56_1_0" index="0" disallow="pedestrian tram rail_urban rail rail_electric rail_fast ship" speed="13.30" length="34.39" width="3.50" shape="-132.19,-725.70 -133.15,-729.26 -133.77,-732.89 -133.93,-735.34 -133.86,-737.79 -133.54,-740.23 -132.93,-742.61 -132.03,-744.89 -130.85,-747.04 -129.41,-749.03 -127.75,-750.84 -125.91,-752.47 -123.93,-753.93 -121.84,-755.23"/>
    </edge>
    <edge id=":56_2" function="internal">
        <lane id=":56_2_0" index="0" disallow="pedestrian tram rail_urban rail rail_electric rail_fast ship" speed="12.37" length="29.61" width="3.50" shape="-120.09,-752.20 -121.93,-751.05 -123.65,-749.79 -125.23,-748.38 -126.64,-746.84 -127.85,-745.16 -128.83,-743.34 -129.58,-741.42 -130.09,-739.41 -130.35,-737.34 -130.40,-735.23 -130.26,-733.12 -129.71,-729.91 -128.86,-726.76"/>
    </edge>
    <edge id=":56_3" function="internal">
        <lane id=":56_3_0" index="0" disallow="pedestrian tram rail_urban rail rail_electric rail_fast ship" speed="36.11" length="37.71" width="3.50" shape="-120.09,-752.20 -121.95,-751.15 -129.35,-747.25 -136.93,-743.67 -145.61,-740.00 -154.41,-736.68"/>
    </edge>
    <edge id=":56_4" function="internal">
        <lane id=":56_4_0" index="0" disallow="pedestrian tram rail_urban rail rail_electric rail_fast ship" speed="36.11" length="37.06" width="3.50" shape="-155.57,-739.98 -146.92,-743.24 -138.38,-746.85 -130.93,-750.37 -123.64,-754.21 -121.84,-755.23"/>
    </edge>
    <edge id=":56_5" function="internal">
        <lane id=":56_5_0" index="0" disallow="pedestrian tram rail_urban rail rail_electric rail_fast ship" speed="12.07" length="34.36" width="3.50" shape="-155.57,-739.98 -151.93,-741.07 -149.37,-741.56 -146.75,-741.78 -144.11,-741.68 -142.75,-741.47 -141.42,-741.16 -140.12,-740.72 -138.86,-740.17 -137.65,-739.51 -136.52,-738.74 -135.46,-737.88 -134.46,-736.92 -132.78,-734.89 -131.36,-732.67 -130.20,-730.34 -128.86,-726.76"/>
    </edge>
    <edge id=":57_0" function="internal">
        <lane id=":57_0_0" index="0" disallow="pedestrian tram rail_urban rail rail_electric rail_fast ship" speed="12.26" length="29.06" width="3.50" shape="-301.98,-672.84 -302.31,-673.86 -303.12,-675.90 -304.11,-677.80 -305.30,-679.56 -306.68,-681.15 -308.26,-682.53 -310.01,-683.68 -311.91,-684.60 -313.93,-685.29 -316.04,-685.77 -318.18,-686.06 -321.51,-686.18 -324.83,-686.00"/>
    </edge>
    <edge id=":57_1" function="internal">
        <lane id=":57_1_0" index="0" disallow="pedestrian tram rail_urban rail rail_electric rail_fast ship" speed="36.11" length="39.70" width="3.50" shape="-301.98,-672.84 -302.28,-673.86 -305.41,-684.91 -308.44,-697.08 -311.58,-711.35"/>
    </edge>
    <edge id=":57_2" function="internal">
        <lane id=":57_2_0" index="0" disallow="pedestrian tram rail_urban rail rail_electric rail_fast ship" speed="12.31" length="35.22" width="3.50" shape="-301.98,-672.84 -302.33,-674.08 -302.88,-676.56 -303.21,-679.12 -303.25,-681.74 -302.95,-684.34 -302.64,-685.68 -302.23,-686.96 -301.71,-688.21 -301.09,-689.41 -300.37,-690.55 -299.57,-691.62 -298.66,-692.65 -296.74,-694.41 -294.62,-695.92 -292.39,-697.19 -290.07,-698.26 -286.53,-699.54"/>
    </edge>
    <edge id=":57_3" function="internal">
        <lane id=":57_3_0" index="0" disallow="pedestrian tram rail_urban rail rail_electric rail_fast ship" speed="11.33" length="29.64" width="3.50" shape="-285.50,-696.19 -288.59,-695.08 -290.59,-694.16 -292.50,-693.08 -294.29,-691.81 -295.92,-690.34 -296.65,-689.52 -297.32,-688.64 -297.91,-687.72 -298.42,-686.75 -298.85,-685.73 -299.19,-684.69 -299.45,-683.62 -299.71,-681.44 -299.68,-679.25 -299.41,-677.07 -298.93,-674.92 -298.63,-673.87"/>
    </edge>
    <edge id=":57_4" function="internal">
        <lane id=":57_4_0" index="0" disallow="pedestrian tram rail_urban rail rail_electric rail_fast ship" speed="36.11" length="40.67" width="3.50" shape="-285.50,-696.19 -290.45,-694.66 -304.38,-690.56 -314.46,-687.94 -320.62,-686.62 -324.83,-686.00"/>
    </edge>
    <edge id=":57_5" function="internal">
        <lane id=":57_5_0" index="0" disallow="pedestrian tram rail_urban rail rail_electric rail_fast ship" speed="12.04" length="35.48" width="3.50" shape="-285.50,-696.19 -289.45,-695.17 -292.15,-694.75 -294.88,-694.61 -297.60,-694.82 -298.94,-695.08 -300.25,-695.46 -301.52,-695.95 -302.74,-696.57 -303.89,-697.31 -304.96,-698.16 -305.94,-699.11 -306.84,-700.13 -307.65,-701.23 -309.02,-703.59 -310.10,-706.10 -310.94,-708.70 -311.58,-711.35"/>
    </edge>
    <edge id=":57_6" function="internal">
        <lane id=":57_6_0" index="0" disallow="pedestrian tram rail_urban rail rail_electric rail_fast ship" speed="11.02" length="29.52" width="3.50" shape="-308.15,-712.06 -307.60,-709.75 -306.88,-707.52 -305.96,-705.40 -304.81,-703.42 -304.16,-702.55 -303.44,-701.72 -302.66,-700.97 -301.81,-700.30 -300.91,-699.72 -299.95,-699.23 -298.95,-698.84 -297.90,-698.54 -296.84,-698.34 -294.57,-698.16 -292.28,-698.28 -289.99,-698.64 -286.53,-699.54"/>
    </edge>
    <edge id=":57_7" function="internal">
        <lane id=":57_7_0" index="0" disallow="pedestrian tram rail_urban rail rail_electric rail_fast ship" speed="36.11" length="39.37" width="3.50" shape="-308.15,-712.06 -305.04,-697.89 -302.03,-685.83 -298.93,-674.86 -298.63,-673.87"/>
    </edge>
    <edge id=":57_8" function="internal">
        <lane id=":57_8_0" index="0" disallow="pedestrian tram rail_urban rail rail_electric rail_fast ship" speed="12.03" length="36.27" width="3.50" shape="-308.15,-712.06 -307.70,-709.51 -307.31,-705.68 -307.29,-703.04 -307.54,-700.38 -308.11,-697.77 -308.56,-696.44 -309.12,-695.17 -309.79,-693.94 -310.58,-692.78 -311.48,-691.70 -312.48,-690.72 -313.56,-689.84 -314.71,-689.06 -315.91,-688.39 -317.17,-687.81 -319.68,-686.94 -322.26,-686.35 -324.83,-686.00"/>
    </edge>
    <edge id=":57_9" function="internal">
        <lane id=":57_9_0" index="0" disallow="pedestrian tram rail_urban rail rail_electric rail_fast ship" speed="11.02" length="30.28" width="3.50" shape="-325.18,-689.48 -322.97,-689.78 -320.78,-690.28 -318.66,-691.03 -317.65,-691.51 -316.68,-692.07 -315.75,-692.70 -314.89,-693.42 -314.10,-694.22 -313.39,-695.09 -312.78,-696.03 -312.25,-697.02 -311.81,-698.05 -311.47,-699.12 -311.00,-701.32 -310.81,-703.55 -310.83,-705.79 -311.18,-709.14 -311.58,-711.35"/>
    </edge>
    <edge id=":57_10" function="internal">
        <lane id=":57_10_0" index="0" disallow="pedestrian tram rail_urban rail rail_electric rail_fast ship" speed="36.11" length="39.98" width="3.50" shape="-325.18,-689.48 -321.13,-690.08 -315.12,-691.37 -305.20,-693.97 -291.43,-698.02 -286.53,-699.54"/>
    </edge>
    <edge id=":57_11" function="internal">
        <lane id=":57_11_0" index="0" disallow="pedestrian tram rail_urban rail rail_electric rail_fast ship" speed="13.22" length="33.90" width="3.50" shape="-325.18,-689.48 -321.43,-689.69 -317.66,-689.54 -315.17,-689.20 -312.73,-688.62 -310.36,-687.79 -308.10,-686.68 -306.02,-685.28 -304.14,-683.62 -302.50,-681.72 -301.11,-679.63 -299.95,-677.39 -299.02,-675.06 -298.63,-673.87"/>
    </edge>

    <edge id="40175" from="55" to="53" priority="3" type="highway.residential" spreadType="center" length="31.33" shape="-229.49,-788.25 -206.15,-721.73">
        <lane id="40175_0" index="0" disallow="pedestrian tram rail_urban rail rail_electric rail_fast ship" speed="36.11" length="31.33" width="3.50" customShape="1" shape="-218.88,-770.81 -215.17,-755.60 -211.45,-740.37"/>
    </edge>
    <edge id="40176" from="53" to="55" priority="3" type="highway.residential" spreadType="center" length="31.32" shape="-209.45,-720.57 -232.79,-787.09">
        <lane id="40176_0" index="0" disallow="pedestrian tram rail_urban rail rail_electric rail_fast ship" speed="36.11" length="31.32" width="3.50" customShape="1" shape="-214.86,-739.55 -218.57,-754.77 -222.28,-769.98"/>
    </edge>
    <edge id="40178" from="54" to="55" priority="3" type="highway.residential" spreadType="center" length="34.09" shape="-248.79,-857.08 -229.43,-788.06">
        <lane id="40178_0" index="0" disallow="pedestrian tram rail_urban rail rail_electric rail_fast ship" speed="36.11" length="34.09" width="3.50" customShape="1" shape="-235.44,-841.15 -233.81,-836.30 -231.66,-828.98 -229.49,-820.09 -227.06,-808.14"/>
    </edge>
    <edge id="40179" from="55" to="54" priority="3" type="highway.residential" spreadType="center" length="33.60" shape="-232.80,-787.11 -252.16,-856.14">
        <lane id="40179_0" index="0" disallow="pedestrian tram rail_urban rail rail_electric rail_fast ship" speed="36.11" length="33.60" width="3.50" customShape="1" shape="-230.50,-807.49 -232.90,-819.29 -235.03,-828.04 -237.14,-835.23 -238.75,-840.03"/>
    </edge>
    <edge id="40181" from="44" to="54" priority="3" type="highway.residential" spreadType="center" length="52.13" shape="-268.89,-925.71 -248.78,-857.06">
        <lane id="40181_0" index="0" disallow="pedestrian tram rail_urban rail rail_electric rail_fast ship" speed="36.11" length="52.13" width="3.50" customShape="1" shape="-268.89,-925.71 -264.04,-914.04 -249.29,-877.41"/>
    </edge>
    <edge id="40182" from="54" to="25" priority="3" type="highway.residential" spreadType="center" length="52.09" shape="-252.14,-856.08 -272.13,-924.40">
        <lane id="40182_0" index="0" disallow="pedestrian tram rail_urban rail rail_electric rail_fast ship" speed="36.11" length="52.09" width="3.50" customShape="1" shape="-252.55,-876.13 -267.28,-912.70 -272.13,-924.40"/>
    </edge>
    <edge id="40190" from="14" to="55" priority="3" type="highway.residential" spreadType="center" length="29.37" shape="-272.93,-779.26 -231.47,-789.34">
        <lane id="40190_0" index="0" disallow="pedestrian tram rail_urban rail rail_electric rail_fast ship" speed="36.11" length="29.37" width="3.50" customShape="1" shape="-272.93,-779.26 -258.67,-782.83 -244.44,-786.38"/>
    </edge>
    <edge id="40191" from="55" to="3" priority="3" type="highway.residential" spreadType="center" length="29.36" shape="-230.65,-785.95 -272.08,-775.87">
        <lane id="40191_0" index="0" disallow="pedestrian tram rail_urban rail rail_electric rail_fast ship" speed="36.11" length="29.36" width="3.50" customShape="1" shape="-243.60,-782.99 -257.82,-779.43 -272.08,-775.87"/>
    </edge>
    <edge id="40247" from="57" to="47" priority="3" type="highway.residential" spreadType="center" length="36.27" shape="-305.04,-690.93 -361.06,-684.53">
        <lane id="40247_0" index="0" disallow="pedestrian tram rail_urban rail rail_electric rail_fast ship" speed="36.11" length="36.27" width="3.50" customShape="1" shape="-324.83,-686.00 -330.45,-685.52 -340.65,-684.98 -361.06,-684.53"/>
    </edge>
    <edge id="40248" from="51" to="57" priority="3" type="highway.residential" spreadType="center" length="36.02" shape="-361.11,-688.02 -305.44,-694.41">
        <lane id="40248_0" index="0" disallow="pedestrian tram rail_urban rail rail_electric rail_fast ship" speed="36.11" length="36.02" width="3.50" customShape="1" shape="-361.11,-688.02 -340.82,-688.47 -330.72,-689.01 -325.13,-689.48"/>
    </edge>
    <edge id="40271" from="52" to="57" priority="3" type="highway.residential" spreadType="center" length="70.01" shape="-281.55,-605.89 -306.99,-692.20">
        <lane id="40271_0" index="0" disallow="pedestrian tram rail_urban rail rail_electric rail_fast ship" speed="36.11" length="70.01" width="3.50" customShape="1" shape="-281.55,-605.89 -301.98,-672.85"/>
    </edge>
    <edge id="40272" from="57" to="48" priority="3" type="highway.residential" spreadType="center" length="70.01" shape="-303.63,-693.19 -278.20,-606.91">
        <lane id="40272_0" index="0" disallow="pedestrian tram rail_urban rail rail_electric rail_fast ship" speed="36.11" length="70.01" width="3.50" customShape="1" shape="-298.63,-673.87 -278.20,-606.91"/>
    </edge>
    <edge id="40289" from="50" to="56" priority="3" type="highway.residential" spreadType="center" length="45.41" shape="-118.44,-682.42 -137.17,-738.92">
        <lane id="40289_0" index="0" disallow="pedestrian tram rail_urban rail rail_electric rail_fast ship" speed="36.11" length="45.41" width="3.50" customShape="1" shape="-118.44,-682.42 -125.31,-704.06 -132.19,-725.70"/>
    </edge>
    <edge id="40290" from="56" to="38" priority="3" type="highway.residential" spreadType="center" length="45.41" shape="-133.85,-740.02 -115.10,-683.48">
        <lane id="40290_0" index="0" disallow="pedestrian tram rail_urban rail rail_electric rail_fast ship" speed="36.11" length="45.41" width="3.50" customShape="1" shape="-128.86,-726.76 -121.98,-705.12 -115.10,-683.48"/>
    </edge>
    <edge id="40343" from="56" to="36" priority="3" type="highway.residential" spreadType="center" length="44.26" shape="-136.50,-740.86 -82.97,-776.38">
        <lane id="40343_0" index="0" disallow="pedestrian tram rail_urban rail rail_electric rail_fast ship" speed="36.11" length="44.26" width="3.50" customShape="1" shape="-121.84,-755.23 -115.66,-758.75 -100.10,-767.39 -82.97,-776.38"/>
    </edge>
    <edge id="40344" from="49" to="56" priority="3" type="highway.residential" spreadType="center" length="44.09" shape="-81.38,-773.26 -134.56,-737.94">
        <lane id="40344_0" index="0" disallow="pedestrian tram rail_urban rail rail_electric rail_fast ship" speed="36.11" length="44.09" width="3.50" customShape="1" shape="-81.38,-773.26 -98.43,-764.31 -113.94,-755.70 -120.11,-752.19"/>
    </edge>
    <edge id="40346" from="53" to="56" priority="3" type="highway.residential" spreadType="center" length="36.15" shape="-208.23,-722.85 -135.88,-741.13">