<routes>
	<vehicle depart="0.1" departLane="0" departPos="57.2907608127434" departSpeed="0.064674654" id="37" type="passenger">
		<route edges="40349 40409"/>
	</vehicle>
	<vehicle depart="0.1" departLane="0" departPos="36.18753813988817" departSpeed="0.0" id="312" type="passenger">
		<route edges="40347 40176"/>
	</vehicle>
	<vehicle depart="0.1" departLane="0" departPos="18.496500857252222" departSpeed="11.281377" id="328" type="passenger">
		<route edges="40175 40409"/>
	</vehicle>
	<vehicle depart="0.1" departLane="0" departPos="20.670999214622917" departSpeed="9.8839389" id="336" type="passenger">
		<route edges=":53_6 40346 40290"/>
	</vehicle>
	<vehicle depart="0.1" departLane="0" departPos="42.518090835740104" departSpeed="2.8450105" id="354" type="passenger">
		<route edges="40410 40350 40272"/>
	</vehicle>
	<vehicle depart="0.1" departLane="0" departPos="34.99091486868174" departSpeed="1.7688372" id="358" type="passenger">
		<route edges="40410 40350"/>
	</vehicle>
	<vehicle depart="0.1" departLane="0" departPos="22.952230799543436" departSpeed="0.47870312" id="362" type="passenger">
		<route edges="40410 40350"/>
	</vehicle>
	<vehicle depart="0.1" departLane="0" departPos="13.510056144373438" departSpeed="1.2378014" id="367" type="passenger">
		<route edges="40410 40350"/>
	</vehicle>
	<vehicle depart="0.1" departLane="0" departPos="3.854790697050429" departSpeed="8.0265878" id="323" type="motorcycle">
		<route edges=":53_6 40346 40290"/>
	</vehicle>
</routes>
