<!-- generated on Tue Feb  9 22:03:53 2021 by Eclipse SUMO netconvert Version 1.8.0
<configuration xmlns:xsi="http://www.w3.org/2001/XMLSchema-instance" xsi:noNamespaceSchemaLocation="http://sumo.dlr.de/xsd/netconvertConfiguration.xsd">

    <input>
        <node-files value="./converted_scenarios/scenario-factory/FRA_MoissyCramayel-3_7_I-1-1/FRA_MoissyCramayel-3_7_I-1-1.nod.xml"/>
        <edge-files value="./converted_scenarios/scenario-factory/FRA_MoissyCramayel-3_7_I-1-1/FRA_MoissyCramayel-3_7_I-1-1.edg.xml"/>
        <connection-files value="./converted_scenarios/scenario-factory/FRA_MoissyCramayel-3_7_I-1-1/FRA_MoissyCramayel-3_7_I-1-1.con.xml"/>
        <tllogic-files value="./converted_scenarios/scenario-factory/FRA_MoissyCramayel-3_7_I-1-1/FRA_MoissyCramayel-3_7_I-1-1.tll.xml"/>
        <type-files value="/home/zen/commonroad-interactive-benchmarks/install/commonroad-map-tool/crmapconverter/sumo_map/templates/DEU.typ.xml"/>
    </input>

    <output>
        <output-file value="./converted_scenarios/scenario-factory/FRA_MoissyCramayel-3_7_I-1-1/FRA_MoissyCramayel-3_7_I-1-1.net.xml"/>
    </output>

    <processing>
        <geometry.remove.keep-edges.explicit value="true"/>
        <geometry.avoid-overlap value="true"/>
        <offset.disable-normalization value="true"/>
    </processing>

    <junctions>
        <no-turnarounds value="true"/>
        <junctions.internal-link-detail value="20"/>
    </junctions>

    <report>
        <aggregate-warnings value="5"/>
    </report>

    <random_number>
        <seed value="1234"/>
    </random_number>

</configuration>
--><net xmlns:xsi="http://www.w3.org/2001/XMLSchema-instance" version="1.6" junctionCornerDetail="5" junctionLinkDetail="20" limitTurnSpeed="5.50" xsi:noNamespaceSchemaLocation="http://sumo.dlr.de/xsd/net_file.xsd">

    <location netOffset="0.00,0.00" convBoundary="-36.85,-805.35,256.73,-504.63" origBoundary="-36.85,-805.35,256.73,-504.63" projParameter="!"/>

    <type id="highway.bridleway" priority="1" speed="2.78" allow="pedestrian" oneway="1" width="2.00"/>
    <type id="highway.bus_guideway" priority="1" speed="27.78" allow="bus" oneway="1"/>
    <type id="highway.cycleway" priority="1" speed="8.33" allow="bicycle" oneway="0" width="1.00"/>
    <type id="highway.footway" priority="1" speed="2.78" allow="pedestrian" oneway="1" width="2.00"/>
    <type id="highway.ford" priority="1" speed="2.78" allow="army" oneway="0"/>
    <type id="highway.living_street" priority="2" speed="2.78" disallow="tram rail_urban rail rail_electric rail_fast ship" oneway="0"/>
    <type id="highway.motorway" priority="14" speed="39.44" allow="private emergency authority army vip passenger hov taxi bus coach delivery truck trailer motorcycle evehicle custom1 custom2" oneway="1"/>
    <type id="highway.motorway_link" priority="9" speed="22.22" allow="private emergency authority army vip passenger hov taxi bus coach delivery truck trailer motorcycle evehicle custom1 custom2" oneway="1"/>
    <type id="highway.path" priority="1" speed="2.78" allow="pedestrian bicycle" oneway="0" width="2.00"/>
    <type id="highway.pedestrian" priority="1" speed="2.78" allow="pedestrian" oneway="1" width="2.00"/>
    <type id="highway.primary" priority="12" speed="27.78" disallow="pedestrian tram rail_urban rail rail_electric rail_fast ship" oneway="0"/>
    <type id="highway.primary_link" priority="7" speed="22.22" disallow="pedestrian tram rail_urban rail rail_electric rail_fast ship" oneway="0"/>
    <type id="highway.raceway" priority="15" speed="83.33" allow="vip" oneway="0"/>
    <type id="highway.residential" priority="3" speed="13.89" disallow="pedestrian tram rail_urban rail rail_electric rail_fast ship" oneway="0"/>
    <type id="highway.secondary" priority="11" speed="27.78" disallow="pedestrian tram rail_urban rail rail_electric rail_fast ship" oneway="0"/>
    <type id="highway.secondary_link" priority="6" speed="22.22" disallow="pedestrian tram rail_urban rail rail_electric rail_fast ship" oneway="0"/>
    <type id="highway.service" priority="1" speed="5.56" allow="pedestrian delivery bicycle" oneway="0"/>
    <type id="highway.stairs" priority="1" speed="1.39" allow="pedestrian" oneway="1" width="2.00"/>
    <type id="highway.step" priority="1" speed="1.39" allow="pedestrian" oneway="1" width="2.00"/>
    <type id="highway.steps" priority="1" speed="1.39" allow="pedestrian" oneway="1" width="2.00"/>
    <type id="highway.tertiary" priority="10" speed="22.22" disallow="pedestrian tram rail_urban rail rail_electric rail_fast ship" oneway="0"/>
    <type id="highway.tertiary_link" priority="5" speed="22.22" disallow="pedestrian tram rail_urban rail rail_electric rail_fast ship" oneway="0"/>
    <type id="highway.track" priority="1" speed="5.56" allow="pedestrian motorcycle moped bicycle" oneway="0"/>
    <type id="highway.trunk" priority="13" speed="27.78" disallow="pedestrian bicycle tram rail_urban rail rail_electric rail_fast ship" oneway="0"/>
    <type id="highway.trunk_link" priority="8" speed="22.22" disallow="pedestrian bicycle tram rail_urban rail rail_electric rail_fast ship" oneway="0"/>
    <type id="highway.unclassified" priority="4" speed="13.89" disallow="pedestrian tram rail_urban rail rail_electric rail_fast ship" oneway="0"/>
    <type id="highway.unsurfaced" priority="1" speed="8.33" disallow="tram rail_urban rail rail_electric rail_fast ship" oneway="0"/>
    <type id="railway.highspeed" priority="21" speed="69.44" allow="rail_fast" oneway="1"/>
    <type id="railway.light_rail" priority="19" speed="27.78" allow="rail_urban" oneway="1"/>
    <type id="railway.preserved" priority="16" speed="27.78" allow="rail" oneway="1"/>
    <type id="railway.rail" priority="20" speed="44.44" allow="rail" oneway="1"/>
    <type id="railway.subway" priority="18" speed="27.78" allow="rail_urban" oneway="1"/>
    <type id="railway.tram" priority="17" speed="13.89" allow="tram" oneway="1"/>

    <edge id=":47_0" function="internal">
        <lane id=":47_0_0" index="0" disallow="pedestrian tram rail_urban rail rail_electric rail_fast ship" speed="36.11" length="2.97" width="3.50" shape="211.03,-561.84 212.95,-559.57"/>
    </edge>
    <edge id=":70_0" function="internal">
        <lane id=":70_0_0" index="0" disallow="pedestrian tram rail_urban rail rail_electric rail_fast ship" speed="36.11" length="2.96" width="3.50" shape="210.26,-557.33 208.35,-559.59"/>
    </edge>
    <edge id=":73_0" function="internal">
        <lane id=":73_0_0" index="0" disallow="pedestrian tram rail_urban rail rail_electric rail_fast ship" speed="14.04" length="30.75" width="3.50" shape="186.32,-571.00 184.19,-571.18 182.07,-571.16 179.96,-570.93 177.88,-570.49 175.86,-569.84 173.92,-568.99 172.06,-567.95 170.31,-566.76 167.87,-564.71 165.66,-562.43 163.65,-559.96 161.82,-557.35 161.26,-556.49"/>
    </edge>
    <edge id=":73_1" function="internal">
        <lane id=":73_1_0" index="0" disallow="pedestrian tram rail_urban rail rail_electric rail_fast ship" speed="36.11" length="36.53" width="3.50" shape="186.32,-571.00 181.01,-571.87 175.77,-573.08 170.62,-574.60 164.56,-576.77 158.63,-579.29 151.87,-582.58"/>
    </edge>
    <edge id=":73_2" function="internal">
        <lane id=":73_2_0" index="0" disallow="pedestrian tram rail_urban rail rail_electric rail_fast ship" speed="36.11" length="35.27" width="3.50" shape="153.49,-585.69 160.05,-582.49 165.79,-580.05 171.66,-577.94 176.62,-576.48 181.66,-575.31 186.74,-574.47"/>
    </edge>
    <edge id=":73_3" function="internal">
        <lane id=":73_3_0" index="0" disallow="pedestrian tram rail_urban rail rail_electric rail_fast ship" speed="12.04" length="35.22" width="3.50" shape="153.49,-585.69 155.77,-584.40 157.96,-582.93 160.03,-581.23 161.89,-579.30 162.76,-578.19 163.52,-577.02 164.18,-575.78 164.73,-574.48 165.15,-573.13 165.44,-571.75 165.59,-570.35 165.61,-568.95 165.51,-567.53 165.03,-564.88 164.21,-562.32 163.15,-559.87 161.26,-556.49"/>
    </edge>
    <edge id=":73_4" function="internal">
        <lane id=":73_4_0" index="0" disallow="pedestrian tram rail_urban rail rail_electric rail_fast ship" speed="11.03" length="29.36" width="3.50" shape="158.28,-558.32 159.93,-561.27 160.83,-563.34 161.52,-565.50 161.93,-567.72 162.01,-568.84 161.99,-569.97 161.87,-571.09 161.64,-572.20 161.30,-573.28 160.87,-574.32 160.34,-575.32 159.72,-576.26 159.03,-577.16 157.46,-578.78 155.72,-580.22 153.84,-581.47 151.87,-582.58"/>
    </edge>
    <edge id=":73_5" function="internal">
        <lane id=":73_5_0" index="0" disallow="pedestrian tram rail_urban rail rail_electric rail_fast ship" speed="14.93" length="34.75" width="3.50" shape="158.28,-558.32 158.92,-559.32 160.93,-562.17 163.17,-564.90 165.66,-567.45 168.41,-569.72 170.43,-571.07 172.55,-572.24 174.79,-573.19 177.11,-573.92 179.50,-574.41 181.92,-574.66 184.34,-574.67 186.74,-574.47"/>
    </edge>
    <edge id=":74_0" function="internal">
        <lane id=":74_0_0" index="0" disallow="pedestrian tram rail_urban rail rail_electric rail_fast ship" speed="17.24" length="26.96" width="3.50" shape="101.34,-611.55 100.52,-612.11 97.82,-613.64 95.00,-614.85 92.05,-615.74 89.01,-616.34 85.91,-616.66 82.78,-616.72 79.64,-616.56 75.45,-616.03"/>
    </edge>
    <edge id=":74_1" function="internal">
        <lane id=":74_1_0" index="0" disallow="pedestrian tram rail_urban rail rail_electric rail_fast ship" speed="14.56" length="22.06" width="3.50" shape="101.34,-611.55 99.52,-612.88 96.90,-615.00 94.42,-617.35 92.17,-619.96 90.84,-621.91 89.71,-624.01 88.87,-626.28 88.39,-628.64"/>
    </edge>
    <edge id=":74_2" function="internal">
        <lane id=":74_2_0" index="0" disallow="pedestrian tram rail_urban rail rail_electric rail_fast ship" speed="13.59" length="19.11" width="3.50" shape="91.86,-629.04 92.27,-627.12 92.99,-625.24 93.97,-623.48 95.14,-621.83 97.14,-619.56 99.35,-617.50 101.71,-615.61 103.35,-614.42"/>
    </edge>
    <edge id=":74_3" function="internal">
        <lane id=":74_3_0" index="0" disallow="pedestrian tram rail_urban rail rail_electric rail_fast ship" speed="10.29" length="23.25" width="3.50" shape="91.86,-629.04 91.91,-627.63 91.73,-626.12 91.28,-624.66 90.59,-623.30 89.70,-622.11 88.68,-621.09 87.58,-620.22 86.43,-619.49 85.24,-618.86 84.02,-618.31 81.61,-617.44 79.14,-616.77 75.45,-616.03"/>
    </edge>
    <edge id=":74_4" function="internal">
        <lane id=":74_4_0" index="0" disallow="pedestrian tram rail_urban rail rail_electric rail_fast ship" speed="9.10" length="17.91" width="3.50" shape="74.89,-619.49 78.00,-620.09 80.05,-620.62 82.06,-621.28 83.04,-621.68 83.99,-622.13 84.92,-622.65 85.79,-623.25 86.59,-623.93 87.30,-624.72 87.86,-625.62 88.23,-626.60 88.40,-627.64 88.39,-628.64"/>
    </edge>
    <edge id=":74_5" function="internal">
        <lane id=":74_5_0" index="0" disallow="pedestrian tram rail_urban rail rail_electric rail_fast ship" speed="18.08" length="29.66" width="3.50" shape="74.89,-619.49 79.41,-620.05 82.83,-620.22 86.25,-620.14 89.66,-619.78 93.01,-619.11 96.28,-618.10 99.43,-616.75 102.40,-615.06 103.35,-614.42"/>
    </edge>
    <edge id=":75_0" function="internal">
        <lane id=":75_0_0" index="0" disallow="pedestrian tram rail_urban rail rail_electric rail_fast ship" speed="11.17" length="28.33" width="3.50" shape="133.00,-592.42 130.04,-593.76 127.97,-594.46 125.84,-594.93 123.67,-595.12 122.58,-595.10 121.50,-594.99 120.42,-594.79 119.37,-594.50 118.35,-594.12 117.37,-593.65 116.42,-593.11 114.68,-591.81 113.11,-590.28 111.73,-588.60 110.50,-586.80 109.41,-584.91"/>
    </edge>
    <edge id=":75_1" function="internal">
        <lane id=":75_1_0" index="0" disallow="pedestrian tram rail_urban rail rail_electric rail_fast ship" speed="36.11" length="36.79" width="3.50" shape="133.00,-592.42 126.53,-595.89 117.42,-601.12 109.39,-606.12 101.53,-611.42"/>
    </edge>
    <edge id=":75_2" function="internal">
        <lane id=":75_2_0" index="0" disallow="pedestrian tram rail_urban rail rail_electric rail_fast ship" speed="36.11" length="36.32" width="3.50" shape="103.53,-614.29 111.30,-609.06 119.23,-604.12 128.23,-598.95 134.60,-595.53"/>
    </edge>
    <edge id=":75_3" function="internal">
        <lane id=":75_3_0" index="0" disallow="pedestrian tram rail_urban rail rail_electric rail_fast ship" speed="12.64" length="33.50" width="3.50" shape="103.53,-614.30 105.60,-612.72 107.51,-610.99 109.23,-609.07 110.70,-606.96 111.87,-604.67 112.68,-602.23 113.11,-599.69 113.17,-597.12 112.90,-594.56 112.34,-592.04 111.54,-589.59 110.00,-586.05 109.41,-584.91"/>
    </edge>
    <edge id=":75_4" function="internal">
        <lane id=":75_4_0" index="0" disallow="pedestrian tram rail_urban rail rail_electric rail_fast ship" speed="11.64" length="28.35" width="3.50" shape="106.33,-586.56 106.83,-587.54 108.20,-590.68 108.89,-592.78 109.37,-594.92 109.62,-597.07 109.58,-599.21 109.23,-601.29 108.58,-603.29 107.62,-605.19 106.40,-606.95 104.95,-608.58 103.32,-610.06 101.53,-611.42"/>
    </edge>
    <edge id=":75_5" function="internal">
        <lane id=":75_5_0" index="0" disallow="pedestrian tram rail_urban rail rail_electric rail_fast ship" speed="12.17" length="33.85" width="3.50" shape="106.33,-586.56 107.59,-588.74 109.02,-590.84 110.65,-592.83 112.53,-594.64 114.62,-596.20 115.81,-596.89 117.02,-597.46 118.29,-597.93 119.59,-598.29 120.91,-598.54 122.25,-598.67 123.61,-598.69 126.20,-598.46 128.74,-597.90 131.19,-597.08 134.60,-595.53"/>
    </edge>
    <edge id=":76_0" function="internal">
        <lane id=":76_0_0" index="0" disallow="pedestrian tram rail_urban rail rail_electric rail_fast ship" speed="36.11" length="27.46" width="3.50" shape="25.57,-565.15 25.33,-566.19 19.11,-591.84"/>
    </edge>
    <edge id=":76_1" function="internal">
        <lane id=":76_1_0" index="0" disallow="pedestrian tram rail_urban rail rail_electric rail_fast ship" speed="19.30" length="29.25" width="3.50" shape="25.57,-565.15 24.93,-568.49 24.58,-571.84 24.53,-575.21 24.77,-578.57 25.29,-581.90 26.08,-585.18 27.12,-588.39 28.84,-592.54 29.32,-593.56"/>
    </edge>
    <edge id=":76_2" function="internal">
        <lane id=":76_2_0" index="0" disallow="pedestrian tram rail_urban rail rail_electric rail_fast ship" speed="18.52" length="26.83" width="3.50" shape="32.46,-592.01 32.02,-591.10 30.42,-587.23 29.47,-584.28 28.74,-581.27 28.25,-578.22 28.03,-575.15 28.08,-572.07 28.39,-569.01 28.97,-565.95"/>
    </edge>
    <edge id=":76_3" function="internal">
        <lane id=":76_3_0" index="0" disallow="pedestrian tram rail_urban rail rail_electric rail_fast ship" speed="36.11" length="27.51" width="3.50" shape="22.50,-592.69 28.73,-566.99 28.97,-565.95"/>
    </edge>
    <edge id=":77_0" function="internal">
        <lane id=":77_0_0" index="0" disallow="pedestrian tram rail_urban rail rail_electric rail_fast ship" speed="27.05" length="54.78" width="3.50" shape="88.36,-628.89 88.19,-629.65 87.90,-630.41 87.04,-632.09 85.43,-634.58 83.02,-637.82 79.10,-642.53 72.89,-649.40 64.29,-658.30 52.52,-669.91"/>
    </edge>
    <edge id=":77_1" function="internal">
        <lane id=":77_1_0" index="0" disallow="pedestrian tram rail_urban rail rail_electric rail_fast ship" speed="36.11" length="61.64" width="3.50" shape="88.36,-628.89 87.96,-631.94 86.88,-637.92 85.45,-643.83 83.45,-650.67 78.52,-665.27 75.34,-675.11 73.41,-682.14 72.08,-688.24"/>
    </edge>
    <edge id=":77_2" function="internal">
        <lane id=":77_2_0" index="0" disallow="pedestrian tram rail_urban rail rail_electric rail_fast ship" speed="13.66" length="29.37" width="3.50" shape="88.36,-628.89 88.31,-630.12 88.44,-631.28 88.73,-632.42 89.15,-633.51 90.27,-635.57 91.66,-637.45 94.07,-640.02 96.71,-642.34 100.46,-645.15 105.36,-648.36 107.39,-649.57"/>
    </edge>
    <edge id=":77_3" function="internal">
        <lane id=":77_3_0" index="0" disallow="pedestrian tram rail_urban rail rail_electric rail_fast ship" speed="12.69" length="25.35" width="3.50" shape="109.16,-646.56 107.30,-645.45 102.78,-642.52 99.35,-640.00 96.95,-637.97 94.76,-635.76 93.53,-634.22 92.53,-632.55 92.18,-631.76 91.94,-630.94 91.81,-630.14 91.83,-629.30"/>
    </edge>
    <edge id=":77_4" function="internal">
        <lane id=":77_4_0" index="0" disallow="pedestrian tram rail_urban rail rail_electric rail_fast ship" speed="18.61" length="65.39" width="3.50" shape="109.16,-646.56 107.05,-645.46 104.83,-644.62 102.54,-644.02 100.21,-643.67 97.86,-643.56 95.52,-643.67 92.11,-644.18 88.79,-645.04 85.59,-646.16 82.48,-647.51 78.50,-649.56 73.76,-652.44 69.21,-655.60 63.98,-659.66 58.14,-664.67 52.52,-669.91"/>
    </edge>
    <edge id=":77_5" function="internal">
        <lane id=":77_5_0" index="0" disallow="pedestrian tram rail_urban rail rail_electric rail_fast ship" speed="15.07" length="66.93" width="3.50" shape="109.16,-646.56 106.87,-645.34 104.50,-644.35 102.02,-643.64 100.76,-643.42 99.47,-643.30 98.19,-643.29 96.90,-643.39 95.64,-643.62 94.40,-643.96 93.19,-644.42 92.04,-644.98 89.87,-646.37 87.93,-648.06 86.19,-649.95 84.63,-652.00 82.57,-655.27 80.80,-658.70 78.77,-663.43 77.04,-668.28 75.21,-674.45 73.37,-681.95 72.08,-688.24"/>
    </edge>
    <edge id=":77_6" function="internal">
        <lane id=":77_6_0" index="0" disallow="pedestrian tram rail_urban rail rail_electric rail_fast ship" speed="14.29" length="60.07" width="3.50" shape="75.51,-688.92 76.72,-682.99 78.43,-675.94 80.11,-670.17 81.68,-665.65 83.50,-661.24 85.07,-658.07 86.87,-655.05 88.20,-653.18 89.67,-651.45 91.29,-649.92 93.08,-648.62 93.99,-648.12 94.95,-647.68 95.94,-647.34 96.96,-647.10 98.00,-646.96 99.05,-646.92 100.11,-646.97 101.13,-647.11 103.29,-647.66 105.36,-648.50 107.39,-649.57"/>
    </edge>
    <edge id=":77_7" function="internal">
        <lane id=":77_7_0" index="0" disallow="pedestrian tram rail_urban rail rail_electric rail_fast ship" speed="36.11" length="61.92" width="3.50" shape="75.51,-688.92 76.83,-682.87 78.74,-675.91 81.91,-666.09 86.85,-651.44 88.88,-644.51 90.33,-638.50 91.43,-632.41 91.83,-629.30"/>
    </edge>
    <edge id=":77_8" function="internal">
        <lane id=":77_8_0" index="0" disallow="pedestrian tram rail_urban rail rail_electric rail_fast ship" speed="18.09" length="60.87" width="3.50" shape="54.95,-672.43 60.32,-667.41 65.88,-662.62 70.84,-658.74 75.12,-655.71 79.58,-652.94 83.28,-650.97 86.15,-649.67 89.10,-648.58 92.13,-647.73 95.23,-647.20 97.33,-647.06 99.42,-647.11 101.50,-647.38 103.54,-647.88 105.51,-648.61 107.39,-649.57"/>
    </edge>
    <edge id=":77_9" function="internal">
        <lane id=":77_9_0" index="0" disallow="pedestrian tram rail_urban rail rail_electric rail_fast ship" speed="27.22" length="57.15" width="3.50" shape="54.95,-672.43 66.99,-660.54 75.78,-651.38 82.13,-644.29 86.15,-639.38 88.64,-635.96 90.32,-633.27 91.25,-631.37 91.61,-630.38 91.83,-629.30"/>
    </edge>
    <edge id=":78_0" function="internal">
        <lane id=":78_0_0" index="0" disallow="pedestrian tram rail_urban rail rail_electric rail_fast ship" speed="11.16" length="28.30" width="3.50" shape="137.50,-643.36 136.31,-645.20 134.99,-646.93 133.51,-648.52 131.84,-649.92 130.94,-650.53 130.00,-651.07 129.01,-651.53 127.99,-651.90 126.94,-652.18 125.87,-652.37 124.78,-652.47 122.61,-652.41 120.47,-652.04 118.38,-651.42 116.37,-650.60 113.47,-649.09"/>
    </edge>
    <edge id=":78_1" function="internal">
        <lane id=":78_1_0" index="0" disallow="pedestrian tram rail_urban rail rail_electric rail_fast ship" speed="14.81" length="33.95" width="3.50" shape="137.50,-643.36 135.27,-647.48 133.86,-650.70 132.72,-654.02 131.93,-657.44 131.55,-660.92 131.55,-663.26 131.78,-665.59 132.23,-667.89 132.92,-670.12 133.82,-672.28 134.92,-674.35 135.55,-675.36"/>
    </edge>
    <edge id=":78_2" function="internal">
        <lane id=":78_2_0" index="0" disallow="pedestrian tram rail_urban rail rail_electric rail_fast ship" speed="13.95" length="30.03" width="3.50" shape="138.47,-673.44 137.94,-672.58 136.97,-670.76 136.20,-668.88 135.61,-666.94 135.23,-664.95 135.05,-662.92 135.07,-660.90 135.43,-657.81 136.16,-654.78 137.19,-651.80 138.47,-648.91 140.50,-645.15"/>
    </edge>
    <edge id=":78_3" function="internal">
        <lane id=":78_3_0" index="0" disallow="pedestrian tram rail_urban rail rail_electric rail_fast ship" speed="32.37" length="35.21" width="3.50" shape="138.47,-673.44 135.42,-669.05 132.11,-664.87 128.53,-660.92 124.67,-657.24 120.55,-653.84 116.20,-650.77 113.47,-649.09"/>
    </edge>
    <edge id=":78_4" function="internal">
        <lane id=":78_4_0" index="0" disallow="pedestrian tram rail_urban rail rail_electric rail_fast ship" speed="31.59" length="33.61" width="3.50" shape="111.70,-652.11 114.28,-653.70 118.44,-656.63 122.36,-659.87 126.04,-663.38 129.46,-667.15 132.62,-671.15 135.55,-675.36"/>
    </edge>
    <edge id=":78_5" function="internal">
        <lane id=":78_5_0" index="0" disallow="pedestrian tram rail_urban rail rail_electric rail_fast ship" speed="12.16" length="33.85" width="3.50" shape="111.70,-652.11 115.04,-653.85 117.41,-654.81 119.89,-655.54 122.47,-655.97 125.09,-656.05 126.46,-655.92 127.79,-655.68 129.09,-655.33 130.35,-654.86 131.57,-654.29 132.73,-653.63 133.85,-652.87 135.82,-651.19 137.58,-649.31 139.13,-647.28 140.50,-645.15"/>
    </edge>
    <edge id=":79_0" function="internal">
        <lane id=":79_0_0" index="0" disallow="pedestrian tram rail_urban rail rail_electric rail_fast ship" speed="36.11" length="40.81" width="3.50" shape="178.29,-739.75 173.36,-729.42 166.86,-716.34 162.39,-708.03 159.62,-703.49"/>
    </edge>
    <edge id=":79_1" function="internal">
        <lane id=":79_1_0" index="0" disallow="pedestrian tram rail_urban rail rail_electric rail_fast ship" speed="11.46" length="38.14" width="3.50" shape="148.10,-731.33 152.30,-730.00 155.02,-728.88 157.61,-727.51 158.85,-726.72 160.02,-725.83 161.11,-724.85 162.09,-723.76 162.95,-722.57 163.65,-721.28 164.17,-719.91 164.50,-718.48 164.64,-717.02 164.61,-715.56 164.42,-714.10 164.10,-712.67 163.15,-709.89 161.90,-707.24 160.41,-704.70 159.62,-703.49"/>
    </edge>
    <edge id=":79_2" function="internal">
        <lane id=":79_2_0" index="0" disallow="pedestrian tram rail_urban rail rail_electric rail_fast ship" speed="10.41" length="31.23" width="3.50" shape="156.71,-705.43 157.40,-706.49 158.68,-708.68 159.75,-710.92 160.53,-713.25 160.78,-714.37 160.92,-715.52 160.94,-716.65 160.82,-717.75 160.57,-718.82 160.18,-719.84 159.64,-720.80 158.98,-721.71 158.21,-722.55 157.34,-723.33 156.38,-724.04 155.38,-724.68 153.17,-725.84 150.86,-726.79 147.19,-727.95"/>
    </edge>
    <edge id=":79_3" function="internal">
        <lane id=":79_3_0" index="0" disallow="pedestrian tram rail_urban rail rail_electric rail_fast ship" speed="36.11" length="40.31" width="3.50" shape="156.71,-705.43 159.40,-709.85 163.80,-718.04 170.24,-731.00 175.14,-741.26"/>
    </edge>
    <edge id=":80_0" function="internal">
        <lane id=":80_0_0" index="0" disallow="pedestrian tram rail_urban rail rail_electric rail_fast ship" speed="36.11" length="37.82" width="3.50" shape="55.86,-666.58 40.53,-681.50 28.72,-692.92"/>
    </edge>
    <edge id=":80_1" function="internal">
        <lane id=":80_1_0" index="0" disallow="pedestrian tram rail_urban rail rail_electric rail_fast ship" speed="36.11" length="37.79" width="3.48" shape="31.16,-695.43 42.96,-684.02 58.33,-669.16"/>
    </edge>
    <edge id=":80_2" function="internal">
        <lane id=":80_2_0" index="0" disallow="pedestrian tram rail_urban rail rail_electric rail_fast ship" speed="9.99" length="33.75" width="3.50" shape="26.94,-668.79 30.39,-669.78 33.03,-670.90 34.88,-672.02 35.98,-672.93 36.92,-674.02 37.63,-675.26 38.05,-676.64 38.16,-678.07 37.99,-679.49 37.37,-681.56 36.45,-683.50 34.91,-685.93 32.69,-688.75 29.75,-691.91 28.72,-692.92"/>
    </edge>
    <edge id=":80_3" function="internal">
        <lane id=":80_3_0" index="0" disallow="pedestrian tram rail_urban rail rail_electric rail_fast ship" speed="12.26" length="17.49" width="3.48" shape="42.41,-672.02 45.63,-672.59 50.24,-673.13 52.82,-673.16 53.84,-673.02 54.33,-672.87 58.33,-669.16"/>
    </edge>

    <edge id="70585" from="66" to="80" priority="3" type="highway.residential" spreadType="center" length="79.63">
        <lane id="70585_0" index="0" disallow="pedestrian tram rail_urban rail rail_electric rail_fast ship" speed="36.11" length="79.63" width="3.50" customShape="1" shape="-36.85,-669.60 5.72,-669.26 16.36,-669.16 22.91,-668.46 24.94,-668.47 42.53,-671.23"/>
    </edge>
    <edge id="70693" from="76" to="74" priority="3" type="highway.residential" spreadType="center" length="55.55" shape="25.44,-584.90 88.33,-621.38">
        <lane id="70693_0" index="0" disallow="pedestrian tram rail_urban rail rail_electric rail_fast ship" speed="36.11" length="55.55" width="3.50" customShape="1" shape="29.32,-593.56 30.74,-596.36 33.09,-600.45 35.19,-603.45 37.23,-605.85 39.50,-608.02 41.99,-609.94 45.10,-611.88 48.38,-613.52 52.29,-615.03 56.82,-616.35 61.94,-617.44 74.90,-619.49"/>
    </edge>
    <edge id="70694" from="74" to="76" priority="3" type="highway.residential" spreadType="center" length="52.25" shape="90.09,-618.35 27.20,-581.88">
        <lane id="70694_0" index="0" disallow="pedestrian tram rail_urban rail rail_electric rail_fast ship" speed="36.11" length="52.25" width="3.50" customShape="1" shape="75.45,-616.03 62.93,-614.06 58.05,-613.05 53.78,-611.84 50.13,-610.46 47.08,-608.97 44.19,-607.20 41.90,-605.47 39.83,-603.51 37.96,-601.32 36.02,-598.54 33.81,-594.67 32.44,-591.98"/>
    </edge>
    <edge id="70775" from="73" to="38" priority="3" type="highway.residential" spreadType="center" length="70.00" shape="167.71,-570.35 116.51,-507.14">
        <lane id="70775_0" index="0" disallow="pedestrian tram rail_urban rail rail_electric rail_fast ship" speed="36.11" length="70.00" width="3.50" customShape="1" shape="161.26,-556.49 158.81,-552.51 155.85,-547.07 149.81,-534.53 146.92,-529.06 144.22,-524.67 141.78,-521.34 139.07,-518.24 136.46,-515.74 133.64,-513.49 131.02,-511.85 128.25,-510.48 124.87,-509.20 120.90,-508.08 116.51,-507.14"/>
    </edge>
    <edge id="70776" from="46" to="73" priority="3" type="highway.residential" spreadType="center" length="70.00" shape="113.01,-509.98 165.00,-572.57">
        <lane id="70776_0" index="0" disallow="pedestrian tram rail_urban rail rail_electric rail_fast ship" speed="36.11" length="70.00" width="3.50" customShape="1" shape="113.01,-509.98 119.89,-511.43 123.66,-512.48 126.83,-513.67 129.38,-514.94 131.78,-516.47 134.40,-518.59 136.82,-520.95 139.35,-523.92 141.62,-527.10 144.18,-531.33 146.95,-536.65 152.90,-548.98 155.85,-554.39 158.28,-558.32"/>
    </edge>
    <edge id="70804" from="67" to="79" priority="3" type="highway.residential" spreadType="center" length="41.65" shape="107.88,-742.16 161.38,-726.53">
        <lane id="70804_0" index="0" disallow="pedestrian tram rail_urban rail rail_electric rail_fast ship" speed="36.11" length="41.65" width="3.50" customShape="1" shape="107.88,-742.16 128.01,-736.74 148.10,-731.33"/>
    </edge>
    <edge id="70805" from="79" to="59" priority="3" type="highway.residential" spreadType="center" length="41.63" shape="160.40,-723.17 106.99,-738.78">
        <lane id="70805_0" index="0" disallow="pedestrian tram rail_urban rail rail_electric rail_fast ship" speed="36.11" length="41.63" width="3.50" customShape="1" shape="147.19,-727.95 127.10,-733.36 106.99,-738.78"/>
    </edge>
    <edge id="70825" from="75" to="8" priority="3" type="highway.residential" spreadType="center" length="24.05" shape="116.31,-596.75 98.08,-563.70">
        <lane id="70825_0" index="0" disallow="pedestrian tram rail_urban rail rail_electric rail_fast ship" speed="36.11" length="24.05" width="3.50" customShape="1" shape="109.41,-584.91 103.75,-574.30 98.08,-563.70"/>
    </edge>
    <edge id="70826" from="25" to="75" priority="3" type="highway.residential" spreadType="center" length="24.06" shape="95.00,-565.34 113.25,-598.43">
        <lane id="70826_0" index="0" disallow="pedestrian tram rail_urban rail rail_electric rail_fast ship" speed="36.11" length="24.06" width="3.50" customShape="1" shape="95.00,-565.34 100.66,-575.95 106.33,-586.57"/>
    </edge>
    <edge id="70852" from="76" to="63" priority="3" type="highway.residential" spreadType="center" length="4.85" shape="24.88,-582.47 17.93,-596.54">
        <lane id="70852_0" index="0" disallow="pedestrian tram rail_urban rail rail_electric rail_fast ship" speed="36.11" length="4.85" width="3.50" customShape="1" shape="19.11,-591.84 17.93,-596.54"/>
    </edge>
    <edge id="70853" from="64" to="76" priority="3" type="highway.residential" spreadType="center" length="4.85" shape="21.32,-597.39 28.00,-584.00">
        <lane id="70853_0" index="0" disallow="pedestrian tram rail_urban rail rail_electric rail_fast ship" speed="36.11" length="4.85" width="3.50" customShape="1" shape="21.32,-597.39 22.50,-592.69"/>
    </edge>
    <edge id="70855" from="65" to="76" priority="3" type="highway.residential" spreadType="center" length="28.58" shape="32.10,-537.36 24.62,-583.19">
        <lane id="70855_0" index="0" disallow="pedestrian tram rail_urban rail rail_electric rail_fast ship" speed="36.11" length="28.58" width="3.50" customShape="1" shape="32.10,-537.36 28.83,-551.26 25.56,-565.18"/>
    </edge>
    <edge id="70856" from="76" to="55" priority="3" type="highway.residential" spreadType="center" length="28.57" shape="28.07,-583.76 35.51,-538.14">
        <lane id="70856_0" index="0" disallow="pedestrian tram rail_urban rail rail_electric rail_fast ship" speed="36.11" length="28.57" width="3.50" customShape="1" shape="28.97,-565.95 32.24,-552.06 35.51,-538.14"/>
    </edge>
    <edge id="70900" from="77" to="32" priority="3" type="highway.residential" spreadType="center" length="44.78" shape="79.72,-659.21 80.80,-730.50">