<routes>
	<vehicle depart="0.1" departLane="0" departPos="6.203283955623671" departSpeed="6.1962877" id="330" type="bicycle">
		<route edges="70694 70856"/>
	</vehicle>
	<vehicle depart="0.1" departLane="0" departPos="6.2" departSpeed="0.0" id="369" type="bus">
		<route edges="70853 70856"/>
	</vehicle>
	<vehicle depart="0.1" departLane="0" departPos="8.727803067735213" departSpeed="0.0" id="311" type="passenger">
		<route edges=":74_5 70907"/>
	</vehicle>
	<vehicle depart="0.1" departLane="0" departPos="29.502759174493026" departSpeed="2.0178272" id="320" type="passenger">
		<route edges=":75_4 70906 70903"/>
	</vehicle>
	<vehicle depart="0.1" departLane="0" departPos="56.7922020372245" departSpeed="0.0056254829" id="322" type="passenger">
		<route edges="70693 70907"/>
	</vehicle>
	<vehicle depart="0.1" departLane="0" departPos="43.13632969692621" departSpeed="1.4493942" id="326" type="passenger">
		<route edges="70693 70907"/>
	</vehicle>
	<vehicle depart="0.1" departLane="0" departPos="49.38188629177246" departSpeed="0.053045819" id="323" type="motorcycle">
		<route edges="70693 70907"/>
	</vehicle>
</routes>
