<!-- generated on Tue Feb  9 22:14:21 2021 by Eclipse SUMO netconvert Version 1.8.0
<configuration xmlns:xsi="http://www.w3.org/2001/XMLSchema-instance" xsi:noNamespaceSchemaLocation="http://sumo.dlr.de/xsd/netconvertConfiguration.xsd">

    <input>
        <node-files value="./converted_scenarios/scenario-factory/DEU_Guetersloh-32_1_I-1-1/DEU_Guetersloh-32_1_I-1-1.nod.xml"/>
        <edge-files value="./converted_scenarios/scenario-factory/DEU_Guetersloh-32_1_I-1-1/DEU_Guetersloh-32_1_I-1-1.edg.xml"/>
        <connection-files value="./converted_scenarios/scenario-factory/DEU_Guetersloh-32_1_I-1-1/DEU_Guetersloh-32_1_I-1-1.con.xml"/>
        <tllogic-files value="./converted_scenarios/scenario-factory/DEU_Guetersloh-32_1_I-1-1/DEU_Guetersloh-32_1_I-1-1.tll.xml"/>
        <type-files value="/home/zen/commonroad-interactive-benchmarks/install/commonroad-map-tool/crmapconverter/sumo_map/templates/DEU.typ.xml"/>
    </input>

    <output>
        <output-file value="./converted_scenarios/scenario-factory/DEU_Guetersloh-32_1_I-1-1/DEU_Guetersloh-32_1_I-1-1.net.xml"/>
    </output>

    <processing>
        <geometry.remove.keep-edges.explicit value="true"/>
        <geometry.avoid-overlap value="true"/>
        <offset.disable-normalization value="true"/>
    </processing>

    <junctions>
        <no-turnarounds value="true"/>
        <junctions.internal-link-detail value="20"/>
    </junctions>

    <report>
        <aggregate-warnings value="5"/>
    </report>

    <random_number>
        <seed value="1234"/>
    </random_number>

</configuration>
--><net xmlns:xsi="http://www.w3.org/2001/XMLSchema-instance" version="1.6" junctionCornerDetail="5" junctionLinkDetail="20" limitTurnSpeed="5.50" xsi:noNamespaceSchemaLocation="http://sumo.dlr.de/xsd/net_file.xsd">

    <location netOffset="0.00,0.00" convBoundary="-470.18,405.90,-258.02,742.55" origBoundary="-470.18,405.90,-258.02,742.55" projParameter="!"/>

    <type id="highway.bridleway" priority="1" speed="2.78" allow="pedestrian" oneway="1" width="2.00"/>
    <type id="highway.bus_guideway" priority="1" speed="27.78" allow="bus" oneway="1"/>
    <type id="highway.cycleway" priority="1" speed="8.33" allow="bicycle" oneway="0" width="1.00"/>
    <type id="highway.footway" priority="1" speed="2.78" allow="pedestrian" oneway="1" width="2.00"/>
    <type id="highway.ford" priority="1" speed="2.78" allow="army" oneway="0"/>
    <type id="highway.living_street" priority="2" speed="2.78" disallow="tram rail_urban rail rail_electric rail_fast ship" oneway="0"/>
    <type id="highway.motorway" priority="14" speed="39.44" allow="private emergency authority army vip passenger hov taxi bus coach delivery truck trailer motorcycle evehicle custom1 custom2" oneway="1"/>
    <type id="highway.motorway_link" priority="9" speed="22.22" allow="private emergency authority army vip passenger hov taxi bus coach delivery truck trailer motorcycle evehicle custom1 custom2" oneway="1"/>
    <type id="highway.path" priority="1" speed="2.78" allow="pedestrian bicycle" oneway="0" width="2.00"/>
    <type id="highway.pedestrian" priority="1" speed="2.78" allow="pedestrian" oneway="1" width="2.00"/>
    <type id="highway.primary" priority="12" speed="27.78" disallow="pedestrian tram rail_urban rail rail_electric rail_fast ship" oneway="0"/>
    <type id="highway.primary_link" priority="7" speed="22.22" disallow="pedestrian tram rail_urban rail rail_electric rail_fast ship" oneway="0"/>
    <type id="highway.raceway" priority="15" speed="83.33" allow="vip" oneway="0"/>
    <type id="highway.residential" priority="3" speed="13.89" disallow="pedestrian tram rail_urban rail rail_electric rail_fast ship" oneway="0"/>
    <type id="highway.secondary" priority="11" speed="27.78" disallow="pedestrian tram rail_urban rail rail_electric rail_fast ship" oneway="0"/>
    <type id="highway.secondary_link" priority="6" speed="22.22" disallow="pedestrian tram rail_urban rail rail_electric rail_fast ship" oneway="0"/>
    <type id="highway.service" priority="1" speed="5.56" allow="pedestrian delivery bicycle" oneway="0"/>
    <type id="highway.stairs" priority="1" speed="1.39" allow="pedestrian" oneway="1" width="2.00"/>
    <type id="highway.step" priority="1" speed="1.39" allow="pedestrian" oneway="1" width="2.00"/>
    <type id="highway.steps" priority="1" speed="1.39" allow="pedestrian" oneway="1" width="2.00"/>
    <type id="highway.tertiary" priority="10" speed="22.22" disallow="pedestrian tram rail_urban rail rail_electric rail_fast ship" oneway="0"/>
    <type id="highway.tertiary_link" priority="5" speed="22.22" disallow="pedestrian tram rail_urban rail rail_electric rail_fast ship" oneway="0"/>
    <type id="highway.track" priority="1" speed="5.56" allow="pedestrian motorcycle moped bicycle" oneway="0"/>
    <type id="highway.trunk" priority="13" speed="27.78" disallow="pedestrian bicycle tram rail_urban rail rail_electric rail_fast ship" oneway="0"/>
    <type id="highway.trunk_link" priority="8" speed="22.22" disallow="pedestrian bicycle tram rail_urban rail rail_electric rail_fast ship" oneway="0"/>
    <type id="highway.unclassified" priority="4" speed="13.89" disallow="pedestrian tram rail_urban rail rail_electric rail_fast ship" oneway="0"/>
    <type id="highway.unsurfaced" priority="1" speed="8.33" disallow="tram rail_urban rail rail_electric rail_fast ship" oneway="0"/>
    <type id="railway.highspeed" priority="21" speed="69.44" allow="rail_fast" oneway="1"/>
    <type id="railway.light_rail" priority="19" speed="27.78" allow="rail_urban" oneway="1"/>
    <type id="railway.preserved" priority="16" speed="27.78" allow="rail" oneway="1"/>
    <type id="railway.rail" priority="20" speed="44.44" allow="rail" oneway="1"/>
    <type id="railway.subway" priority="18" speed="27.78" allow="rail_urban" oneway="1"/>
    <type id="railway.tram" priority="17" speed="13.89" allow="tram" oneway="1"/>

    <edge id=":45_0" function="internal">
        <lane id=":45_0_0" index="0" disallow="pedestrian tram rail_urban rail rail_electric rail_fast ship" speed="10.39" length="30.22" width="3.50" shape="-315.60,613.37 -318.15,610.99 -319.98,609.55 -321.93,608.28 -324.01,607.24 -325.10,606.84 -326.23,606.54 -327.38,606.35 -328.54,606.30 -329.70,606.39 -330.84,606.63 -331.94,607.00 -332.99,607.51 -333.97,608.12 -334.90,608.82 -336.57,610.44 -338.03,612.25 -339.32,614.19 -339.89,615.17"/>
    </edge>
    <edge id=":45_1" function="internal">
        <lane id=":45_1_0" index="0" disallow="pedestrian tram rail_urban rail rail_electric rail_fast ship" speed="36.11" length="39.05" width="3.50" shape="-315.60,613.37 -329.33,599.48 -343.05,585.59"/>
    </edge>
    <edge id=":45_2" function="internal">
        <lane id=":45_2_0" index="0" disallow="pedestrian tram rail_urban rail rail_electric rail_fast ship" speed="36.11" length="39.03" width="3.50" shape="-340.56,583.13 -326.84,597.02 -313.13,610.89"/>
    </edge>
    <edge id=":45_3" function="internal">
        <lane id=":45_3_0" index="0" disallow="pedestrian tram rail_urban rail rail_electric rail_fast ship" speed="13.95" length="34.68" width="3.50" shape="-340.56,583.13 -339.72,584.03 -338.22,585.91 -336.92,587.98 -335.87,590.20 -335.11,592.54 -334.66,594.95 -334.49,597.38 -334.58,599.79 -334.90,602.18 -335.73,605.62 -336.89,608.94 -338.30,612.13 -339.89,615.17"/>
    </edge>
    <edge id=":45_4" function="internal">
        <lane id=":45_4_0" index="0" disallow="pedestrian tram rail_urban rail rail_electric rail_fast ship" speed="13.05" length="30.23" width="3.50" shape="-342.98,613.53 -341.50,610.72 -340.23,607.87 -339.18,604.93 -338.43,601.90 -338.12,599.84 -338.01,597.76 -338.12,595.68 -338.48,593.63 -339.09,591.64 -339.95,589.75 -341.05,587.98 -342.34,586.35 -343.05,585.59"/>
    </edge>
    <edge id=":45_5" function="internal">
        <lane id=":45_5_0" index="0" disallow="pedestrian tram rail_urban rail rail_electric rail_fast ship" speed="11.45" length="36.98" width="3.50" shape="-342.98,613.53 -342.26,612.30 -340.76,610.03 -339.02,607.86 -337.02,605.90 -335.84,604.99 -334.60,604.21 -333.26,603.55 -331.84,603.05 -330.36,602.72 -328.85,602.59 -327.35,602.64 -325.87,602.86 -324.45,603.22 -323.07,603.72 -320.56,604.95 -318.23,606.46 -316.07,608.16 -313.13,610.89"/>
    </edge>
    <edge id=":46_0" function="internal">
        <lane id=":46_0_0" index="0" disallow="pedestrian tram rail_urban rail rail_electric rail_fast ship" speed="10.84" length="29.03" width="3.50" shape="-367.34,560.98 -369.81,558.73 -371.60,557.40 -373.53,556.27 -374.54,555.80 -375.59,555.40 -376.66,555.10 -377.76,554.89 -378.87,554.79 -379.99,554.80 -381.10,554.93 -382.19,555.16 -383.26,555.49 -384.29,555.92 -386.24,557.00 -388.04,558.33 -389.69,559.84 -391.93,562.33"/>
    </edge>
    <edge id=":46_1" function="internal">
        <lane id=":46_1_0" index="0" disallow="pedestrian tram rail_urban rail rail_electric rail_fast ship" speed="36.11" length="38.92" width="3.50" shape="-367.34,560.98 -380.95,547.10 -394.59,533.19"/>
    </edge>
    <edge id=":46_2" function="internal">
        <lane id=":46_2_0" index="0" disallow="pedestrian tram rail_urban rail rail_electric rail_fast ship" speed="36.11" length="38.88" width="3.50" shape="-392.09,530.75 -378.45,544.65 -364.87,558.51"/>
    </edge>
    <edge id=":46_3" function="internal">
        <lane id=":46_3_0" index="0" disallow="pedestrian tram rail_urban rail rail_electric rail_fast ship" speed="12.95" length="35.33" width="3.50" shape="-392.09,530.75 -389.58,533.63 -388.14,535.70 -386.91,537.90 -385.95,540.23 -385.31,542.67 -385.02,545.17 -385.08,547.69 -385.49,550.18 -386.20,552.60 -387.16,554.93 -388.33,557.16 -390.39,560.33 -391.93,562.33"/>
    </edge>
    <edge id=":46_4" function="internal">
        <lane id=":46_4_0" index="0" disallow="pedestrian tram rail_urban rail rail_electric rail_fast ship" speed="11.99" length="30.18" width="3.50" shape="-394.64,560.12 -393.29,558.36 -391.45,555.55 -390.44,553.63 -389.61,551.63 -389.00,549.58 -388.65,547.50 -388.58,545.41 -388.81,543.34 -389.34,541.31 -390.13,539.35 -391.17,537.48 -392.40,535.72 -394.59,533.19"/>
    </edge>
    <edge id=":46_5" function="internal">
        <lane id=":46_5_0" index="0" disallow="pedestrian tram rail_urban rail rail_electric rail_fast ship" speed="11.86" length="35.01" width="3.50" shape="-394.64,560.12 -392.05,557.24 -390.09,555.46 -387.94,553.87 -385.59,552.57 -384.29,552.03 -382.96,551.61 -381.58,551.32 -380.18,551.17 -378.77,551.15 -377.37,551.28 -376.00,551.54 -374.67,551.92 -373.38,552.40 -372.13,552.99 -369.84,554.33 -367.71,555.91 -364.87,558.51"/>
    </edge>
    <edge id=":47_0" function="internal">
        <lane id=":47_0_0" index="0" disallow="pedestrian tram rail_urban rail rail_electric rail_fast ship" speed="36.11" length="37.60" width="3.50" shape="-399.28,528.39 -405.75,521.85 -414.55,513.38 -421.34,507.28 -426.77,502.77"/>
    </edge>
    <edge id=":47_1" function="internal">
        <lane id=":47_1_0" index="0" disallow="pedestrian tram rail_urban rail rail_electric rail_fast ship" speed="12.25" length="33.64" width="3.50" shape="-399.28,528.39 -401.86,525.45 -403.37,523.35 -404.66,521.11 -405.67,518.73 -406.33,516.23 -406.51,514.95 -406.58,513.66 -406.55,512.37 -406.41,511.08 -405.81,508.57 -404.86,506.16 -403.62,503.90 -402.15,501.77 -399.62,498.83"/>
    </edge>
    <edge id=":47_2" function="internal">
        <lane id=":47_2_0" index="0" disallow="pedestrian tram rail_urban rail rail_electric rail_fast ship" speed="11.25" length="28.19" width="3.50" shape="-397.09,501.24 -399.29,503.80 -400.54,505.61 -401.58,507.51 -402.37,509.50 -402.86,511.58 -402.96,512.58 -402.99,513.62 -402.93,514.66 -402.79,515.66 -402.24,517.73 -401.40,519.70 -400.31,521.59 -399.03,523.38 -396.78,525.94"/>
    </edge>
    <edge id=":47_3" function="internal">
        <lane id=":47_3_0" index="0" disallow="pedestrian tram rail_urban rail rail_electric rail_fast ship" speed="12.50" length="33.33" width="3.50" shape="-397.09,501.24 -398.89,502.99 -400.84,504.59 -402.96,506.02 -405.26,507.20 -407.72,508.07 -410.27,508.57 -411.66,508.67 -414.25,508.55 -416.81,508.06 -419.26,507.25 -421.57,506.18 -423.76,504.92 -426.77,502.77"/>
    </edge>
    <edge id=":47_4" function="internal">
        <lane id=":47_4_0" index="0" disallow="pedestrian tram rail_urban rail rail_electric rail_fast ship" speed="11.52" length="28.12" width="3.50" shape="-424.62,500.01 -421.98,501.90 -420.11,502.98 -418.14,503.89 -416.09,504.57 -413.97,504.99 -411.81,505.09 -410.73,505.02 -408.61,504.62 -406.57,503.90 -404.64,502.91 -402.85,501.71 -401.18,500.34 -399.62,498.83"/>
    </edge>
    <edge id=":47_5" function="internal">
        <lane id=":47_5_0" index="0" disallow="pedestrian tram rail_urban rail rail_electric rail_fast ship" speed="36.11" length="38.07" width="3.50" shape="-424.62,500.01 -419.08,504.60 -412.20,510.79 -403.31,519.35 -396.78,525.94"/>
    </edge>
    <edge id=":48_0" function="internal">
        <lane id=":48_0_0" index="0" disallow="pedestrian tram rail_urban rail rail_electric rail_fast ship" speed="15.07" length="31.61" width="3.50" shape="-333.69,451.59 -337.97,451.36 -342.18,451.41 -345.32,451.68 -348.43,452.19 -351.48,453.00 -353.45,453.73 -355.35,454.64 -357.15,455.73 -358.81,457.01 -360.32,458.48 -361.63,460.11 -362.21,460.98"/>
    </edge>
    <edge id=":48_1" function="internal">
        <lane id=":48_1_0" index="0" disallow="pedestrian tram rail_urban rail rail_electric rail_fast ship" speed="11.38" length="39.74" width="3.50" shape="-333.69,451.59 -336.80,451.23 -339.80,450.66 -342.72,449.78 -344.13,449.19 -345.48,448.48 -346.75,447.64 -347.91,446.65 -348.92,445.50 -349.73,444.21 -350.34,442.82 -350.73,441.34 -350.91,439.83 -350.93,438.30 -350.79,436.78 -350.54,435.28 -349.74,432.33 -348.65,429.48 -346.67,425.36 -345.94,424.02"/>
    </edge>
    <edge id=":48_2" function="internal">
        <lane id=":48_2_0" index="0" disallow="pedestrian tram rail_urban rail rail_electric rail_fast ship" speed="10.31" length="32.31" width="3.50" shape="-342.87,425.70 -343.52,426.88 -345.26,430.50 -346.19,432.92 -346.88,435.42 -347.09,436.62 -347.21,437.84 -347.21,439.04 -347.09,440.19 -346.82,441.29 -346.39,442.31 -345.82,443.25 -345.10,444.10 -344.24,444.85 -343.27,445.51 -342.21,446.08 -341.10,446.55 -338.64,447.30 -336.10,447.79 -333.49,448.09"/>
    </edge>
    <edge id=":48_3" function="internal">
        <lane id=":48_3_0" index="0" disallow="pedestrian tram rail_urban rail rail_electric rail_fast ship" speed="36.11" length="40.24" width="3.50" shape="-342.87,425.70 -344.37,428.41 -352.55,443.87 -357.98,453.85 -362.21,460.98"/>
    </edge>
    <edge id=":48_4" function="internal">
        <lane id=":48_4_0" index="0" disallow="pedestrian tram rail_urban rail rail_electric rail_fast ship" speed="36.11" length="40.02" width="3.50" shape="-365.17,459.11 -360.99,452.08 -355.60,442.15 -347.43,426.71 -345.94,424.02"/>
    </edge>
    <edge id=":48_5" function="internal">
        <lane id=":48_5_0" index="0" disallow="pedestrian tram rail_urban rail rail_electric rail_fast ship" speed="15.93" length="35.33" width="3.50" shape="-365.17,459.11 -364.50,458.11 -363.00,456.23 -361.28,454.51 -359.37,453.00 -357.33,451.72 -355.18,450.66 -352.94,449.80 -349.55,448.86 -346.11,448.25 -342.64,447.93 -338.05,447.86 -333.49,448.09"/>
    </edge>
    <edge id=":49_0" function="internal">
        <lane id=":49_0_0" index="0" disallow="pedestrian tram rail_urban rail rail_electric rail_fast ship" speed="36.11" length="36.33" width="3.50" shape="-361.43,659.76 -364.28,666.44 -366.85,673.25 -369.11,680.17 -371.03,687.17 -372.59,694.25"/>
    </edge>
    <edge id=":49_1" function="internal">
        <lane id=":49_1_0" index="0" disallow="pedestrian tram rail_urban rail rail_electric rail_fast ship" speed="12.50" length="33.72" width="3.50" shape="-361.43,659.76 -362.54,662.01 -363.85,664.20 -365.38,666.27 -367.17,668.18 -369.20,669.82 -370.36,670.56 -371.55,671.18 -372.79,671.70 -374.07,672.11 -375.40,672.42 -378.00,672.71 -380.61,672.65 -383.17,672.28 -385.65,671.67 -389.16,670.45"/>
    </edge>
    <edge id=":49_2" function="internal">
        <lane id=":49_2_0" index="0" disallow="pedestrian tram rail_urban rail rail_electric rail_fast ship" speed="11.51" length="28.41" width="3.50" shape="-387.96,667.17 -384.80,668.27 -382.68,668.79 -380.53,669.10 -378.35,669.16 -376.18,668.92 -375.12,668.68 -374.08,668.34 -373.08,667.93 -372.11,667.42 -371.18,666.84 -369.49,665.48 -368.00,663.89 -366.70,662.14 -365.58,660.27 -364.62,658.31"/>
    </edge>
    <edge id=":49_3" function="internal">
        <lane id=":49_3_0" index="0" disallow="pedestrian tram rail_urban rail rail_electric rail_fast ship" speed="13.00" length="34.29" width="3.50" shape="-387.96,667.16 -385.69,668.16 -382.56,669.87 -380.54,671.25 -378.66,672.81 -376.93,674.58 -375.42,676.55 -374.16,678.70 -373.19,681.00 -372.52,683.39 -372.13,685.83 -372.00,688.27 -372.10,690.71 -372.59,694.25"/>
    </edge>
    <edge id=":49_4" function="internal">
        <lane id=":49_4_0" index="0" disallow="pedestrian tram rail_urban rail rail_electric rail_fast ship" speed="12.05" length="29.33" width="3.50" shape="-376.03,693.60 -375.60,690.48 -375.51,688.39 -375.63,686.29 -375.96,684.22 -376.53,682.20 -377.35,680.27 -378.41,678.46 -379.70,676.80 -381.16,675.30 -382.78,673.97 -384.52,672.79 -387.28,671.28 -389.16,670.45"/>
    </edge>
    <edge id=":49_5" function="internal">
        <lane id=":49_5_0" index="0" disallow="pedestrian tram rail_urban rail rail_electric rail_fast ship" speed="36.11" length="37.17" width="3.50" shape="-376.03,693.60 -374.43,686.34 -372.46,679.17 -370.15,672.11 -367.53,665.15 -364.62,658.31"/>
    </edge>

    <edge id="77979" from="49" to="45" priority="3" type="highway.residential" spreadType="center" length="49.80" shape="-376.80,673.05 -334.02,602.70">
        <lane id="77979_0" index="0" disallow="pedestrian tram rail_urban rail rail_electric rail_fast ship" speed="36.11" length="49.80" width="3.50" customShape="1" shape="-364.62,658.31 -359.92,648.17 -352.51,632.56 -347.01,621.12 -342.95,613.48"/>
    </edge>
    <edge id="77980" from="45" to="49" priority="3" type="highway.residential" spreadType="center" length="49.55" shape="-331.03,604.52 -373.81,674.87">
        <lane id="77980_0" index="0" disallow="pedestrian tram rail_urban rail rail_electric rail_fast ship" speed="36.11" length="49.55" width="3.50" customShape="1" shape="-339.89,615.17 -343.90,622.74 -349.38,634.11 -356.76,649.66 -361.45,659.78"/>
    </edge>
    <edge id="77982" from="44" to="49" priority="3" type="highway.residential" spreadType="center" length="49.19" shape="-385.32,741.89 -377.01,673.67">
        <lane id="77982_0" index="0" disallow="pedestrian tram rail_urban rail rail_electric rail_fast ship" speed="36.11" length="49.19" width="3.50" customShape="1" shape="-385.32,741.89 -380.67,717.74 -376.03,693.59"/>
    </edge>
    <edge id="77983" from="49" to="39" priority="3" type="highway.residential" spreadType="center" length="49.19" shape="-373.54,674.10 -381.88,742.55">
        <lane id="77983_0" index="0" disallow="pedestrian tram rail_urban rail rail_electric rail_fast ship" speed="36.11" length="49.19" width="3.50" customShape="1" shape="-372.59,694.25 -377.24,718.41 -381.88,742.55"/>
    </edge>
    <edge id="77985" from="41" to="48" priority="3" type="highway.residential" spreadType="center" length="70.01" shape="-263.98,456.57 -347.49,446.65">
        <lane id="77985_0" index="0" disallow="pedestrian tram rail_urban rail rail_electric rail_fast ship" speed="36.11" length="70.01" width="3.50" customShape="1" shape="-263.98,456.57 -277.49,456.02 -285.54,455.43 -304.07,453.20 -311.60,452.57 -325.71,452.04 -333.77,451.58"/>
    </edge>
    <edge id="77986" from="48" to="35" priority="3" type="highway.residential" spreadType="center" length="70.00" shape="-347.07,443.18 -263.71,453.07">
        <lane id="77986_0" index="0" disallow="pedestrian tram rail_urban rail rail_electric rail_fast ship" speed="36.11" length="70.00" width="3.50" customShape="1" shape="-333.49,448.09 -325.50,448.55 -311.38,449.08 -303.77,449.71 -285.27,451.94 -277.30,452.52 -263.71,453.07"/>
    </edge>
    <edge id="78080" from="48" to="47" priority="3" type="highway.residential" spreadType="center" length="53.37" shape="-345.94,446.09 -406.08,510.72">
        <lane id="78080_0" index="0" disallow="pedestrian tram rail_urban rail rail_electric rail_fast ship" speed="36.11" length="53.37" width="3.50" customShape="1" shape="-362.21,460.98 -364.46,464.38 -369.35,470.87 -374.85,477.53 -381.64,485.09 -397.10,501.25"/>
    </edge>
    <edge id="78081" from="47" to="48" priority="3" type="highway.residential" spreadType="center" length="52.73" shape="-408.64,508.34 -348.50,443.70">
        <lane id="78081_0" index="0" disallow="pedestrian tram rail_urban rail rail_electric rail_fast ship" speed="36.11" length="52.73" width="3.50" customShape="1" shape="-399.62,498.83 -384.29,482.80 -377.59,475.34 -372.16,468.79 -367.36,462.42 -365.13,459.05"/>
    </edge>
    <edge id="78083" from="43" to="48" priority="3" type="highway.residential" spreadType="center" length="20.74" shape="-333.32,407.32 -345.60,445.53">
        <lane id="78083_0" index="0" disallow="pedestrian tram rail_urban rail rail_electric rail_fast ship" speed="36.11" length="20.74" width="3.50" customShape="1" shape="-333.32,407.32 -333.75,408.26 -337.42,415.71 -342.88,425.72"/>
    </edge>
    <edge id="78084" from="48" to="36" priority="3" type="highway.residential" spreadType="center" length="20.43" shape="-348.93,444.45 -336.51,405.90">
        <lane id="78084_0" index="0" disallow="pedestrian tram rail_urban rail rail_electric rail_fast ship" speed="36.11" length="20.43" width="3.50" customShape="1" shape="-345.94,424.02 -340.54,414.12 -336.92,406.78 -336.51,405.90"/>
    </edge>
    <edge id="78149" from="42" to="49" priority="3" type="highway.residential" spreadType="center" length="38.04" shape="-425.22,660.96 -374.84,672.24">
        <lane id="78149_0" index="0" disallow="pedestrian tram rail_urban rail rail_electric rail_fast ship" speed="36.11" length="38.04" width="3.50" customShape="1" shape="-425.22,660.96 -418.04,661.38 -409.85,662.11 -403.24,663.04 -397.19,664.27 -392.23,665.61 -387.87,667.20"/>
    </edge>
    <edge id="78150" from="49" to="40" priority="3" type="highway.residential" spreadType="center" length="36.92" shape="-375.61,675.65 -425.42,664.46">
        <lane id="78150_0" index="0" disallow="pedestrian tram rail_urban rail rail_electric rail_fast ship" speed="36.11" length="36.92" width="3.50" customShape="1" shape="-389.16,670.45 -393.35,668.93 -398.11,667.65 -403.96,666.47 -410.38,665.57 -418.37,664.86 -425.42,664.46"/>
    </edge>
    <edge id="78174" from="47" to="19" priority="3" type="highway.residential" spreadType="center" length="54.05" shape="-408.29,511.01 -470.18,470.57">
        <lane id="78174_0" index="0" disallow="pedestrian tram rail_urban rail rail_electric rail_fast ship" speed="36.11" length="54.05" width="3.50" customShape="1" shape="-426.77,502.77 -429.97,500.27 -443.64,489.90 -470.18,470.57"/>
    </edge>
    <edge id="78175" from="31" to="47" priority="3" type="highway.residential" spreadType="center" length="54.17" shape="-468.12,467.75 -406.37,508.09">
        <lane id="78175_0" index="0" disallow="pedestrian tram rail_urban rail rail_electric rail_fast ship" speed="36.11" length="54.17" width="3.50" customShape="1" shape="-468.12,467.75 -441.53,487.10 -427.82,497.51 -424.62,500.02"/>
    </edge>
    <edge id="78177" from="46" to="47" priority="3" type="highway.residential" spreadType="center" length="6.74" shape="-385.76,551.84 -408.92,510.32">
        <lane id="78177_0" index="0" disallow="pedestrian tram rail_urban rail rail_electric rail_fast ship" speed="36.11" length="6.74" width="3.50" customShape="1" shape="-394.59,533.19 -396.94,530.79 -399.30,528.37"/>
    </edge>
    <edge id="78178" from="47" to="46" priority="3" type="highway.residential" spreadType="center" length="6.75" shape="-405.87,508.62 -382.71,550.13">
        <lane id="78178_0" index="0" disallow="pedestrian tram rail_urban rail rail_electric rail_fast ship" speed="36.11" length="6.75" width="3.50" customShape="1" shape="-396.78,525.94 -394.43,528.35 -392.07,530.77"/>
    </edge>
    <edge id="78180" from="45" to="46" priority="3" type="highway.residential" spreadType="center" length="34.61" shape="-333.78,604.83 -385.51,552.18">
        <lane id="78180_0" index="0" disallow="pedestrian tram rail_urban rail rail_electric rail_fast ship" speed="36.11" length="34.61" width="3.50" customShape="1" shape="-343.05,585.59 -355.20,573.29 -367.36,560.96"/>
    </edge>
    <edge id="78181" from="46" to="45" priority="3" type="highway.residential" spreadType="center" length="34.61" shape="-383.02,549.73 -331.28,602.38">
        <lane id="78181_0" index="0" disallow="pedestrian tram rail_urban rail rail_electric rail_fast ship" speed="36.11" length="34.61" width="3.50" customShape="1" shape="-364.87,558.51 -352.70,570.83 -340.55,583.14"/>
    </edge>
    <edge id="78183" from="32" to="45" priority="3" type="highway.residential" spreadType="center" length="70.02" shape="-260.52,656.39 -333.56,605.02">
        <lane id="78183_0" index="0" disallow="pedestrian tram rail_urban rail rail_electric rail_fast ship" speed="36.11" length="70.02" width="3.50" customShape="1" shape="-260.52,656.39 -271.09,648.92 -288.23,636.42 -295.00,631.15 -304.21,624.09 -308.49,620.54 -315.61,613.35"/>
    </edge>
    <edge id="78184" from="45" to="23" priority="3" type="highway.residential" spreadType="center" length="70.00" shape="-331.55,602.16 -258.02,653.88">
        <lane id="78184_0" index="0" disallow="pedestrian tram rail_urban rail rail_electric rail_fast ship" speed="36.11" length="70.00" width="3.50" customShape="1" shape="-313.13,610.89 -306.09,618.00 -301.91,621.45 -292.75,628.48 -286.01,633.71 -268.96,646.15 -258.02,653.88"/>
    </edge>
    <edge id="78202" from="46" to="6" priority="3" type="highway.residential" spreadType="center" length="53.77" shape="-382.86,552.06 -425.86,604.04">
        <lane id="78202_0" index="0" disallow="pedestrian tram rail_urban rail rail_electric rail_fast ship" speed="36.11" length="53.77" width="3.50" customShape="1" shape="-391.93,562.33 -408.89,583.18 -425.86,604.04"/>
    </edge>
    <edge id="78203" from="13" to="46" priority="3" type="highway.residential" spreadType="center" length="53.78" shape="-428.57,601.83 -385.56,549.83">
        <lane id="78203_0" index="0" disallow="pedestrian tram rail_urban rail rail_electric rail_fast ship" speed="36.11" length="53.78" width="3.50" customShape="1" shape="-428.57,601.83 -411.61,580.98 -394.63,560.11"/>
    </edge>

    <junction id="13" type="dead_end" x="-428.57" y="601.83" incLanes="" intLanes="" shape="-427.22,602.94 -429.93,600.73" rightOfWay="edgePriority"/>
    <junction id="19" type="dead_end" x="-470.18" y="470.57" incLanes="78174_0" intLanes="" shape="-471.21,471.99 -469.15,469.16" rightOfWay="edgePriority"/>
    <junction id="23" type="dead_end" x="-258.02" y="653.88" incLanes="78184_0" intLanes="" shape="-257.01,652.45 -259.03,655.30" rightOfWay="edgePriority"/>
    <junction id="31" type="dead_end" x="-468.12" y="467.75" incLanes="" intLanes="" shape="-469.15,469.16 -467.09,466.33" rightOfWay="edgePriority"/>
    <junction id="32" type="dead_end" x="-260.52" y="656.39" incLanes="" intLanes="" shape="-259.51,654.97 -261.53,657.82" rightOfWay="edgePriority"/>
    <junction id="35" type="dead_end" x="-263.71" y="453.07" incLanes="77986_0" intLanes="" shape="-263.64,451.33 -263.78,454.82" rightOfWay="edgePriority"/>
    <junction id="36" type="dead_end" x="-336.51" y="405.90" incLanes="78084_0" intLanes="" shape="-338.11,405.17 -334.92,406.63" rightOfWay="edgePriority"/>
    <junction id="39" type="dead_end" x="-381.88" y="742.55" incLanes="77983_0" intLanes="" shape="-380.16,742.88 -383.60,742.22" rightOfWay="edgePriority"/>
    <junction id="40" type="dead_end" x="-425.42" y="664.46" incLanes="78150_0" intLanes="" shape="-425.52,666.20 -425.31,662.71" rightOfWay="edgePriority"/>
    <junction id="41" type="dead_end" x="-263.98" y="456.57" incLanes="" intLanes="" shape="-263.91,454.82 -264.06,458.32" rightOfWay="edgePriority"/>
    <junction id="42" type="dead_end" x="-425.22" y="660.96" incLanes="" intLanes="" shape="-425.33,662.71 -425.12,659.21" rightOfWay="edgePriority"/>
    <junction id="43" type="dead_end" x="-333.32" y="407.32" incLanes="" intLanes="" shape="-334.91,406.59 -331.73,408.05" rightOfWay="edgePriority"/>
    <junction id="44" type="dead_end" x="-385.32" y="741.89" incLanes="" intLanes="" shape="-383.60,742.22 -387.04,741.56" rightOfWay="edgePriority"/>
    <junction id="45" type="priority" x="-332.53" y="603.61" incLanes="78183_0 78181_0 77979_0" intLanes=":45_0_0 :45_1_0 :45_2_0 :45_3_0 :45_4_0 :45_5_0" shape="-316.86,614.58 -311.88,609.66 -339.32,581.90 -344.30,586.82 -341.86,590.01 -340.42,593.66 -339.96,597.75 -340.49,602.29 -342.01,607.28 -344.52,612.71 -338.34,615.99 -335.53,611.78 -332.41,609.15 -328.98,608.12 -325.24,608.68 -321.20,610.83">
        <request index="0" response="000000" foes="001000" cont="0"/>
        <request index="1" response="000000" foes="111000" cont="0"/>
        <request index="2" response="000000" foes="100000" cont="0"/>
        <request index="3" response="000011" foes="100011" cont="0"/>
        <request index="4" response="000010" foes="000010" cont="0"/>
        <request index="5" response="001110" foes="001110" cont="0"/>
    </junction>