<routes>
	<vehicle depart="0.1" departLane="0" departPos="46.99724247786178" departSpeed="0.95267173" id="313" type="bicycle">
		<route edges="21539 20871"/>
	</vehicle>
	<vehicle depart="0.1" departLane="0" departPos="41.39868371448553" departSpeed="0.95007745" id="315" type="bicycle">
		<route edges="21539 20871"/>
	</vehicle>
	<vehicle depart="0.1" departLane="0" departPos="41.546916851359484" departSpeed="7.8775732" id="341" type="bus">
		<route edges="20870 21538"/>
	</vehicle>
	<vehicle depart="0.1" departLane="0" departPos="2.5" departSpeed="3.2590204" id="33" type="passenger">
		<route edges=":16_0 21341"/>
	</vehicle>
	<vehicle depart="0.1" departLane="0" departPos="55.43804787594455" departSpeed="1.2892064" id="38" type="passenger">
		<route edges="21539 20871"/>
	</vehicle>
	<vehicle depart="0.1" departLane="0" departPos="37.567516200519414" departSpeed="0.22799215" id="319" type="passenger">
		<route edges="21539 20871"/>
	</vehicle>
	<vehicle depart="0.1" departLane="0" departPos="28.53214834674689" departSpeed="0.47644274" id="322" type="passenger">
		<route edges="21539 20871"/>
	</vehicle>
	<vehicle depart="0.1" departLane="0" departPos="18.814638239548152" departSpeed="0.74267143" id="324" type="passenger">
		<route edges="21539 20871"/>
	</vehicle>
	<vehicle depart="0.1" departLane="0" departPos="25.723279994603345" departSpeed="13.811062" id="337" type="passenger">
		<route edges=":16_2 21538"/>
	</vehicle>
	<vehicle depart="0.1" departLane="0" departPos="5.694926331812615" departSpeed="13.26276" id="338" type="motorcycle">
		<route edges=":16_2 21538"/>
	</vehicle>
</routes>
