<routes>
	<vehicle depart="0.1" departLane="0" departPos="7.185046492364956" departSpeed="0.3949468" id="312" type="passenger">
		<route edges=":19_2 96030"/>
	</vehicle>
	<vehicle depart="0.1" departLane="0" departPos="36.79273509030397" departSpeed="13.340568" id="317" type="passenger">
		<route edges=":19_4 95639"/>
	</vehicle>
	<vehicle depart="0.1" departLane="0" departPos="10.717979559486698" departSpeed="10.179778" id="323" type="passenger">
		<route edges=":19_9 95357"/>
	</vehicle>
	<vehicle depart="0.1" departLane="0" departPos="37.57742650616889" departSpeed="12.389769" id="326" type="passenger">
		<route edges="95638 96030"/>
	</vehicle>
	<vehicle depart="0.1" departLane="0" departPos="16.990118620122168" departSpeed="0.5814674" id="318" type="truck">
		<route edges="96037 95636 95639"/>
	</vehicle>
</routes>
