<routes>
	<vehicle depart="0.1" departLane="0" departPos="7.31191789206595" departSpeed="2.2915836" id="37" type="bicycle">
		<route edges=":52_1 73 204"/>
	</vehicle>
	<vehicle depart="0.1" departLane="0" departPos="88.01755975891268" departSpeed="6.8999888" id="39" type="bicycle">
		<route edges="114 74"/>
	</vehicle>
	<vehicle depart="0.1" departLane="0" departPos="55.77403753005484" departSpeed="0.0016784136" id="343" type="bicycle">
		<route edges="202 205"/>
	</vehicle>
	<vehicle depart="0.1" departLane="0" departPos="11.018361591824016" departSpeed="1.1866206" id="371" type="bicycle">
		<route edges="320 944"/>
	</vehicle>
	<vehicle depart="0.1" departLane="0" departPos="14.960573966658957" departSpeed="4.878729" id="374" type="bicycle">
		<route edges="202 205"/>
	</vehicle>
	<vehicle depart="0.1" departLane="0" departPos="68.82099626469356" departSpeed="0.0" id="339" type="bus">
		<route edges="202 205"/>
	</vehicle>
	<vehicle depart="0.1" departLane="0" departPos="6.2" departSpeed="0.77490855" id="361" type="bus">
		<route edges="73 204"/>
	</vehicle>
	<vehicle depart="0.1" departLane="0" departPos="69.2826481815388" departSpeed="0.0" id="32" type="passenger">
		<route edges="320 944"/>
	</vehicle>
	<vehicle depart="0.1" departLane="0" departPos="62.1075008167049" departSpeed="0.0019927105" id="36" type="passenger">
		<route edges="320 944"/>
	</vehicle>
	<vehicle depart="0.1" departLane="0" departPos="45.36534435703806" departSpeed="3.9035137" id="310" type="passenger">
		<route edges="73 204"/>
	</vehicle>
	<vehicle depart="0.1" departLane="0" departPos="36.20983514294775" departSpeed="2.6294631" id="311" type="passenger">
		<route edges="73 204"/>
	</vehicle>
	<vehicle depart="0.1" departLane="0" departPos="22.35747732354872" departSpeed="0.0" id="312" type="passenger">
		<route edges="205 115"/>
	</vehicle>
	<vehicle depart="0.1" departLane="0" departPos="14.866676281770296" departSpeed="0.00010627421" id="315" type="passenger">
		<route edges="205 115"/>
	</vehicle>
	<vehicle depart="0.1" departLane="0" departPos="264.8052377942076" departSpeed="23.472476" id="316" type="passenger">
		<route edges="114 12 9"/>
	</vehicle>
	<vehicle depart="0.1" departLane="0" departPos="2.5" departSpeed="6.9754696" id="317" type="passenger">
		<route edges="115 118"/>
	</vehicle>
	<vehicle depart="0.1" departLane="0" departPos="14.106420103271184" departSpeed="8.7810228" id="321" type="passenger">
		<route edges=":48_8 74 689"/>
	</vehicle>
	<vehicle depart="0.1" departLane="0" departPos="14.937263443351181" departSpeed="0.42116281" id="327" type="passenger">
		<route edges="73 204"/>
	</vehicle>
	<vehicle depart="0.1" departLane="0" departPos="55.36334833340108" departSpeed="0.012011519" id="332" type="passenger">
		<route edges="320 944"/>
	</vehicle>
	<vehicle depart="0.1" departLane="0" departPos="128.25417891010557" departSpeed="22.594037" id="334" type="passenger">
		<route edges="114 74"/>
	</vehicle>
	<vehicle depart="0.1" departLane="0" departPos="42.23171466940474" departSpeed="15.176988" id="335" type="passenger">
		<route edges="319"/>
	</vehicle>
	<vehicle depart="0.1" departLane="0" departPos="5.138648191048706" departSpeed="7.0984838" id="337" type="passenger">
		<route edges=":52_2 319"/>
	</vehicle>
	<vehicle depart="0.1" departLane="0" departPos="298.3857382714767" departSpeed="22.981078" id="338" type="passenger">
		<route edges="114 12 9"/>
	</vehicle>
	<vehicle depart="0.1" departLane="0" departPos="61.01985395906657" departSpeed="0.0" id="341" type="passenger">
		<route edges="13 204"/>
	</vehicle>
	<vehicle depart="0.1" departLane="0" departPos="48.41886085561153" departSpeed="0.045981179" id="342" type="passenger">
		<route edges="320 944"/>
	</vehicle>
	<vehicle depart="0.1" departLane="0" departPos="53.75807770823911" departSpeed="0.065192153" id="345" type="passenger">
		<route edges="13 204"/>
	</vehicle>
	<vehicle depart="0.1" departLane="0" departPos="4.808519254775287" departSpeed="8.5316068" id="347" type="passenger">
		<route edges="114 74"/>
	</vehicle>
	<vehicle depart="0.1" departLane="0" departPos="45.92883298816467" departSpeed="0.54786552" id="348" type="passenger">
		<route edges="13 204"/>
	</vehicle>
	<vehicle depart="0.1" departLane="0" departPos="41.056096693272295" departSpeed="0.13169727" id="349" type="passenger">
		<route edges="320 944"/>
	</vehicle>
	<vehicle depart="0.1" departLane="0" departPos="54.38725651233202" departSpeed="0.0014996627" id="350" type="passenger">
		<route edges="202 205"/>
	</vehicle>
	<vehicle depart="0.1" departLane="0" departPos="204.44840050973818" departSpeed="27.755586" id="351" type="passenger">
		<route edges="114 12 9"/>
	</vehicle>
	<vehicle depart="0.1" departLane="0" departPos="36.595649458926054" departSpeed="1.9110848" id="352" type="passenger">
		<route edges="13 204"/>
	</vehicle>
	<vehicle depart="0.1" departLane="0" departPos="33.7158120952926" departSpeed="0.29467026" id="354" type="passenger">
		<route edges="320 944"/>
	</vehicle>
	<vehicle depart="0.1" departLane="0" departPos="22.12550845380574" departSpeed="0.80513262" id="355" type="passenger">
		<route edges="73 204"/>
	</vehicle>
	<vehicle depart="0.1" departLane="0" departPos="47.602369251576064" departSpeed="0.018074295" id="356" type="passenger">
		<route edges="202 205"/>
	</vehicle>
	<vehicle depart="0.1" departLane="0" departPos="85.88098844977081" departSpeed="19.129005" id="357" type="passenger">
		<route edges="114 74"/>
	</vehicle>
	<vehicle depart="0.1" departLane="0" departPos="24.417197371555364" departSpeed="3.9949884" id="358" type="passenger">
		<route edges="13 204"/>
	</vehicle>
	<vehicle depart="0.1" departLane="0" departPos="40.61648669624881" departSpeed="0.10062525" id="359" type="passenger">
		<route edges="202 205"/>
	</vehicle>
	<vehicle depart="0.1" departLane="0" departPos="26.095276518155917" departSpeed="0.57599779" id="360" type="passenger">
		<route edges="320 944"/>
	</vehicle>
	<vehicle depart="0.1" departLane="0" departPos="9.482597500102795" departSpeed="6.2400731" id="363" type="passenger">
		<route edges="13 204"/>
	</vehicle>
	<vehicle depart="0.1" departLane="0" departPos="33.09544841248328" departSpeed="0.35374029" id="364" type="passenger">
		<route edges="202 205"/>
	</vehicle>
	<vehicle depart="0.1" departLane="0" departPos="24.711641329090327" departSpeed="11.770705" id="366" type="passenger">
		<route edges="114 74"/>
	</vehicle>
	<vehicle depart="0.1" departLane="0" departPos="5.802915299555444" departSpeed="8.0983797" id="367" type="passenger">
		<route edges=":49_0 13 204"/>
	</vehicle>
	<vehicle depart="0.1" departLane="0" departPos="17.810111956842757" departSpeed="0.84989475" id="368" type="passenger">
		<route edges="320 944"/>
	</vehicle>
	<vehicle depart="0.1" departLane="0" departPos="24.78616464914865" departSpeed="0.88333617" id="369" type="passenger">
		<route edges="202 205"/>
	</vehicle>
	<vehicle depart="0.1" departLane="0" departPos="57.158136302826044" departSpeed="9.6154853" id="370" type="passenger">
		<route edges="10 13 204"/>
	</vehicle>
	<vehicle depart="0.1" departLane="0" departPos="4.585426569710938" departSpeed="2.5947225" id="375" type="passenger">
		<route edges=":50_3 114 74"/>
	</vehicle>
	<vehicle depart="0.1" departLane="0" departPos="27.579981557250754" departSpeed="1.660882" id="330" type="motorcycle">
		<route edges="73 204"/>
	</vehicle>
	<vehicle depart="0.1" departLane="0" departPos="64.68977033968943" departSpeed="17.70246" id="340" type="motorcycle">
		<route edges="114 74"/>
	</vehicle>
	<vehicle depart="0.1" departLane="0" departPos="16.159934541534668" departSpeed="1.5222246" id="372" type="motorcycle">
		<route edges="202 205"/>
	</vehicle>
	<vehicle depart="0.1" departLane="0" departPos="3.2540904301900855" departSpeed="0.896744" id="377" type="motorcycle">
		<route edges="76 73 204"/>
	</vehicle>
	<vehicle depart="0.1" departLane="0" departPos="32.13466959985866" departSpeed="0.0" id="30" type="truck">
		<route edges="205 115"/>
	</vehicle>
	<vehicle depart="0.1" departLane="0" departPos="118.28785728750233" departSpeed="0.0" id="325" type="truck">
		<route edges="62 13"/>
	</vehicle>
	<vehicle depart="0.1" departLane="0" departPos="7.7698746021518845" departSpeed="0.0014045368" id="328" type="truck">
		<route edges="205 115"/>
	</vehicle>
</routes>
