<routes>
	<vehicle depart="0.1" departLane="0" departPos="36.72310283235538" departSpeed="6.8953322" id="327" type="bicycle">
		<route edges="517 514"/>
	</vehicle>
	<vehicle depart="0.1" departLane="0" departPos="35.37175874111597" departSpeed="6.9062827" id="337" type="bicycle">
		<route edges="517 514"/>
	</vehicle>
	<vehicle depart="0.1" departLane="0" departPos="36.6781543773561" departSpeed="6.93076" id="384" type="bicycle">
		<route edges="518 558 555"/>
	</vehicle>
	<vehicle depart="0.1" departLane="0" departPos="11.562218996528475" departSpeed="3.7157559" id="399" type="bicycle">
		<route edges="625 22"/>
	</vehicle>
	<vehicle depart="0.1" departLane="0" departPos="32.9498279063886" departSpeed="0.0017915291" id="347" type="bus">
		<route edges="22 19"/>
	</vehicle>
	<vehicle depart="0.1" departLane="0" departPos="51.786023961916776" departSpeed="0.00022440973" id="355" type="bus">
		<route edges="518 562"/>
	</vehicle>
	<vehicle depart="0.1" departLane="0" departPos="137.4140853396638" departSpeed="5.0488521" id="367" type="bus">
		<route edges="556 578"/>
	</vehicle>
	<vehicle depart="0.1" departLane="0" departPos="65.19938265836367" departSpeed="14.136931" id="31" type="passenger">
		<route edges="556 578"/>
	</vehicle>
	<vehicle depart="0.1" departLane="0" departPos="58.888198812185635" departSpeed="1.2259409e-05" id="37" type="passenger">
		<route edges="518 562"/>
	</vehicle>
	<vehicle depart="0.1" departLane="0" departPos="78.11824554796058" departSpeed="3.6011873" id="39" type="passenger">
		<route edges="517 514"/>
	</vehicle>
	<vehicle depart="0.1" departLane="0" departPos="17.69211741577277" departSpeed="7.9023193" id="310" type="passenger">
		<route edges=":54_1 578 19"/>
	</vehicle>
	<vehicle depart="0.1" departLane="0" departPos="59.77535615267696" departSpeed="0.00065121176" id="311" type="passenger">
		<route edges="25 626"/>
	</vehicle>
	<vehicle depart="0.1" departLane="0" departPos="8.187780557928487" departSpeed="3.562211" id="312" type="passenger">
		<route edges=":55_5 26"/>
	</vehicle>
	<vehicle depart="0.1" departLane="0" departPos="38.60227636981939" departSpeed="0.0" id="313" type="passenger">
		<route edges="20 579"/>
	</vehicle>
	<vehicle depart="0.1" departLane="0" departPos="52.53987188375733" departSpeed="0.0065177612" id="316" type="passenger">
		<route edges="25 626"/>
	</vehicle>
	<vehicle depart="0.1" departLane="0" departPos="79.96969810581535" departSpeed="0.0" id="320" type="passenger">
		<route edges="518 562"/>
	</vehicle>
	<vehicle depart="0.1" departLane="0" departPos="6.9187603838814695" departSpeed="0.19989014" id="321" type="passenger">
		<route edges="22 19"/>
	</vehicle>
	<vehicle depart="0.1" departLane="0" departPos="9.965945182978935" departSpeed="7.0582612" id="323" type="passenger">
		<route edges="517 538"/>
	</vehicle>
	<vehicle depart="0.1" departLane="0" departPos="5.508223923636194" departSpeed="7.6909307" id="328" type="passenger">
		<route edges=":54_0 559 562"/>
	</vehicle>
	<vehicle depart="0.1" departLane="0" departPos="11.876383244151187" departSpeed="0.0" id="332" type="passenger">
		<route edges="579 559"/>
	</vehicle>
	<vehicle depart="0.1" departLane="0" departPos="163.0637750900012" departSpeed="6.6149029" id="333" type="passenger">
		<route edges="556 559 517 538"/>
	</vehicle>
	<vehicle depart="0.1" departLane="0" departPos="72.89631885292413" departSpeed="0.0" id="334" type="passenger">
		<route edges="518 562"/>
	</vehicle>
	<vehicle depart="0.1" departLane="0" departPos="31.502268360914123" departSpeed="0.0" id="336" type="passenger">
		<route edges="20 579"/>
	</vehicle>
	<vehicle depart="0.1" departLane="0" departPos="39.5495838705009" departSpeed="0.0" id="338" type="passenger">
		<route edges="22 19"/>
	</vehicle>
	<vehicle depart="0.1" departLane="0" departPos="65.89230376435127" departSpeed="0.0" id="341" type="passenger">
		<route edges="518 562"/>
	</vehicle>
	<vehicle depart="0.1" departLane="0" departPos="150.69891480629173" departSpeed="5.7180558" id="343" type="passenger">
		<route edges="556 559 562"/>
	</vehicle>
	<vehicle depart="0.1" departLane="0" departPos="24.569695002786958" departSpeed="6.7514153" id="345" type="passenger">
		<route edges="517 538"/>
	</vehicle>
	<vehicle depart="0.1" departLane="0" departPos="20.14684316399123" departSpeed="0.0" id="346" type="passenger">
		<route edges="20 579"/>
	</vehicle>
	<vehicle depart="0.1" departLane="0" departPos="2.5" departSpeed="3.9813116" id="351" type="passenger">
		<route edges=":53_3 517 538"/>
	</vehicle>
	<vehicle depart="0.1" departLane="0" departPos="19.951585262196627" departSpeed="0.016138228" id="353" type="passenger">
		<route edges="22 19"/>
	</vehicle>
	<vehicle depart="0.1" departLane="0" departPos="13.45504454473442" departSpeed="0.068519195" id="358" type="passenger">
		<route edges="22 19"/>
	</vehicle>
	<vehicle depart="0.1" departLane="0" departPos="53.91910029443421" departSpeed="1.937732" id="362" type="passenger">
		<route edges="561 558 555"/>
	</vehicle>
	<vehicle depart="0.1" departLane="0" departPos="17.424438229094307" departSpeed="0.4977863" id="363" type="passenger">
		<route edges=":55_3 22"/>
	</vehicle>
	<vehicle depart="0.1" departLane="0" departPos="8.096858249110188" departSpeed="0.0" id="364" type="passenger">
		<route edges="20 579"/>
	</vehicle>
	<vehicle depart="0.1" departLane="0" departPos="117.70526215097017" departSpeed="4.9641535" id="370" type="passenger">
		<route edges="556 578"/>
	</vehicle>
	<vehicle depart="0.1" departLane="0" departPos="45.52304026550906" departSpeed="1.3444269" id="371" type="passenger">
		<route edges="561 558"/>
	</vehicle>
	<vehicle depart="0.1" departLane="0" departPos="69.05731693511802" departSpeed="0.0" id="372" type="passenger">
		<route edges="625 22"/>
	</vehicle>
	<vehicle depart="0.1" departLane="0" departPos="104.74370817986438" departSpeed="5.3349163" id="373" type="passenger">
		<route edges="556 578"/>
	</vehicle>
	<vehicle depart="0.1" departLane="0" departPos="32.49761889450994" departSpeed="0.014939021" id="375" type="passenger">
		<route edges="518 562"/>
	</vehicle>
	<vehicle depart="0.1" departLane="0" departPos="37.6124474824879" departSpeed="1.100667" id="377" type="passenger">
		<route edges="561 517"/>
	</vehicle>
	<vehicle depart="0.1" departLane="0" departPos="62.58085836342539" departSpeed="0.018075725" id="378" type="passenger">
		<route edges="625 22"/>
	</vehicle>
	<vehicle depart="0.1" departLane="0" departPos="25.662616699678136" departSpeed="0.069403042" id="380" type="passenger">
		<route edges="518 562"/>
	</vehicle>
	<vehicle depart="0.1" departLane="0" departPos="55.63675670121109" departSpeed="0.12626456" id="383" type="passenger">
		<route edges="625 22"/>
	</vehicle>
	<vehicle depart="0.1" departLane="0" departPos="41.75297263590079" departSpeed="14.590879" id="386" type="passenger">
		<route edges="556 578"/>
	</vehicle>
	<vehicle depart="0.1" departLane="0" departPos="47.930439152270836" departSpeed="0.51012117" id="387" type="passenger">
		<route edges="625 22"/>
	</vehicle>
	<vehicle depart="0.1" departLane="0" departPos="11.333236899181502" departSpeed="15.423894" id="388" type="passenger">
		<route edges="556 578"/>
	</vehicle>
	<vehicle depart="0.1" departLane="0" departPos="19.340383634682677" departSpeed="1.3745025" id="389" type="passenger">
		<route edges="561 517"/>
	</vehicle>
	<vehicle depart="0.1" departLane="0" departPos="39.596197196085825" departSpeed="1.1960253" id="391" type="passenger">
		<route edges="625 22"/>
	</vehicle>
	<vehicle depart="0.1" departLane="0" departPos="2.5" departSpeed="3.3540839" id="394" type="passenger">
		<route edges="518 562"/>
	</vehicle>
	<vehicle depart="0.1" departLane="0" departPos="11.010493556344763" departSpeed="1.5063119" id="397" type="passenger">
		<route edges="561 517"/>
	</vehicle>
	<vehicle depart="0.1" departLane="0" departPos="24.603914991317264" departSpeed="0.0" id="339" type="motorcycle">
		<route edges="20 579"/>
	</vehicle>
	<vehicle depart="0.1" departLane="0" departPos="13.043248988651687" departSpeed="0.0" id="352" type="motorcycle">
		<route edges="20 579"/>
	</vehicle>
	<vehicle depart="0.1" departLane="0" departPos="37.029295993489846" departSpeed="0.0021196668" id="369" type="motorcycle">
		<route edges="518 562"/>
	</vehicle>
	<vehicle depart="0.1" departLane="0" departPos="7.247000534360493" departSpeed="7.8401897" id="30" type="truck">
		<route edges="19"/>
	</vehicle>
	<vehicle depart="0.1" departLane="0" departPos="69.42423011579818" departSpeed="0.0" id="324" type="truck">
		<route edges="25 626"/>
	</vehicle>
	<vehicle depart="0.1" departLane="0" departPos="29.8451778255214" departSpeed="1.2575543" id="385" type="truck">
		<route edges="561 517"/>
	</vehicle>
	<vehicle depart="0.1" departLane="0" departPos="16.805431061727635" departSpeed="1.6548786" id="390" type="truck">
		<route edges="518 562"/>
	</vehicle>
</routes>
