<?xml version="1.0" encoding="UTF-8"?>

<!-- generated on Fri Dec 18 16:14:54 2020 by Eclipse SUMO netconvert Version 1.8.0
<configuration xmlns:xsi="http://www.w3.org/2001/XMLSchema-instance" xsi:noNamespaceSchemaLocation="http://sumo.dlr.de/xsd/netconvertConfiguration.xsd">

    <input>
        <node-files value="./converted_scenarios/SUMO/CHN_Sha-6_8_I-1-1/nodes.net.xml"/>
        <edge-files value="./converted_scenarios/SUMO/CHN_Sha-6_8_I-1-1/edges.net.xml"/>
        <connection-files value="./converted_scenarios/SUMO/CHN_Sha-6_8_I-1-1/_connections.net.xml"/>
        <tllogic-files value="./converted_scenarios/SUMO/CHN_Sha-6_8_I-1-1/_tll.net.xml"/>
    </input>

    <output>
        <output-file value="./converted_scenarios/SUMO/CHN_Sha-6_8_I-1-1/CHN_Sha-6_8_I-1-1.net.xml"/>
    </output>

    <processing>
        <plain.extend-edge-shape value="true"/>
        <geometry.remove.keep-edges.explicit value="true"/>
        <geometry.avoid-overlap value="true"/>
        <offset.disable-normalization value="true"/>
    </processing>

    <junctions>
        <no-turnarounds value="true"/>
        <junctions.internal-link-detail value="20"/>
    </junctions>

    <report>
        <aggregate-warnings value="5"/>
    </report>

    <random_number>
        <seed value="1234"/>
    </random_number>

</configuration>
-->

<net version="1.6" junctionCornerDetail="5" junctionLinkDetail="20" limitTurnSpeed="5.50" xmlns:xsi="http://www.w3.org/2001/XMLSchema-instance" xsi:noNamespaceSchemaLocation="http://sumo.dlr.de/xsd/net_file.xsd">

    <location netOffset="0.00,0.00" convBoundary="-216.18,-95.98,122.24,173.78" origBoundary="-216.18,-96.71,122.24,173.78" projParameter="!"/>

    <edge id=":10_0" function="internal">
        <lane id=":10_0_0" index="0" disallow="bus truck rail_fast" speed="6.00" length="7.61" width="2.50" shape="18.71,30.31 18.79,30.49 18.91,30.75 19.05,31.07 19.22,31.44 19.40,31.86 19.60,32.32 19.82,32.80 20.04,33.29 20.28,33.79 20.52,34.28 20.76,34.75 21.00,35.20 21.24,35.61 21.47,35.98 21.69,36.29 21.90,36.53 22.09,36.70 22.27,36.78 22.42,36.76"/>
    </edge>
    <edge id=":10_1" function="internal">
        <lane id=":10_1_0" index="0" disallow="bus truck rail_fast" speed="36.11" length="9.98" width="2.50" shape="18.71,30.31 23.49,39.04"/>
        <lane id=":10_1_1" index="1" disallow="bus truck rail_fast" speed="36.11" length="9.98" width="2.50" shape="16.47,31.44 21.28,40.21"/>
    </edge>
    <edge id=":10_3" function="internal">
        <lane id=":10_3_0" index="0" disallow="bus truck rail_fast" speed="8.94" length="10.87" width="2.50" shape="16.47,31.44 16.85,32.18 17.19,32.91 17.50,33.61 17.78,34.29 18.02,34.94 18.24,35.58 18.42,36.19 18.57,36.78 18.69,37.34 18.78,37.88 18.84,38.40 18.87,38.90 18.86,39.38 18.82,39.83 18.76,40.26 18.66,40.66 18.52,41.05 18.36,41.41 18.17,41.75"/>
    </edge>
    <edge id=":11_0" function="internal">
        <lane id=":11_0_0" index="0" disallow="bus truck rail_fast" speed="36.11" length="4.48" width="2.50" shape="22.60,36.67 22.90,36.53 23.18,36.41 23.44,36.31 23.67,36.23 23.89,36.16 24.09,36.10 24.28,36.04 24.47,35.99 24.64,35.94 24.81,35.89 24.99,35.83 25.16,35.76 25.34,35.69 25.52,35.60 25.72,35.49 25.92,35.36 26.15,35.21 26.39,35.03 26.65,34.83"/>
    </edge>
    <edge id=":11_1" function="internal">
        <lane id=":11_1_0" index="0" disallow="bus truck rail_fast" speed="8.53" length="7.50" width="2.50" shape="22.37,40.75 22.39,40.49 22.43,40.22 22.50,39.94 22.59,39.66 22.70,39.37 22.83,39.08 22.99,38.78 23.17,38.48 23.37,38.17 23.59,37.86 23.84,37.54 24.11,37.22 24.41,36.89 24.72,36.56 25.06,36.23 25.42,35.88 25.81,35.54 26.22,35.19 26.65,34.83"/>
    </edge>
    <edge id=":11_2" function="internal">
        <lane id=":11_2_0" index="0" disallow="bus truck rail_fast" speed="36.11" length="4.02" width="2.50" shape="23.39,37.19 23.65,37.03 23.88,36.88 24.08,36.74 24.27,36.62 24.44,36.51 24.59,36.41 24.74,36.31 24.87,36.21 25.00,36.12 25.13,36.03 25.26,35.93 25.39,35.83 25.53,35.73 25.68,35.61 25.84,35.48 26.01,35.34 26.20,35.19 26.41,35.02 26.65,34.83"/>
    </edge>
    <edge id=":14_0" function="internal">
        <lane id=":14_0_0" index="0" disallow="bus truck rail_fast" speed="7.15" length="7.05" width="2.50" shape="30.39,35.01 29.93,35.38 29.51,35.75 29.11,36.10 28.73,36.45 28.39,36.78 28.06,37.11 27.77,37.42 27.50,37.73 27.26,38.03 27.05,38.32 26.86,38.59 26.70,38.86 26.56,39.12 26.45,39.37 26.37,39.61 26.31,39.84 26.29,40.06 26.28,40.27 26.31,40.47"/>
    </edge>
    <edge id=":14_1" function="internal">
        <lane id=":14_1_0" index="0" disallow="bus truck rail_fast" speed="36.11" length="8.68" width="2.50" shape="30.39,35.01 29.88,35.42 29.43,35.79 29.02,36.12 28.65,36.43 28.31,36.70 27.99,36.96 27.69,37.19 27.41,37.41 27.14,37.62 26.86,37.83 26.58,38.03 26.29,38.24 25.98,38.46 25.65,38.68 25.28,38.93 24.88,39.19 24.44,39.48 23.95,39.80 23.40,40.16"/>
    </edge>
    <edge id=":2_0" function="internal">
        <lane id=":2_0_0" index="0" disallow="bus truck rail_fast" speed="36.11" length="10.58" width="2.50" shape="11.18,44.66 20.25,39.21"/>
    </edge>
    <edge id=":2_1" function="internal">
        <lane id=":2_1_0" index="0" disallow="bus truck rail_fast" speed="8.79" length="9.18" width="2.50" shape="11.18,44.66 11.81,44.31 12.41,43.99 13.00,43.70 13.58,43.43 14.13,43.19 14.66,42.97 15.17,42.78 15.66,42.62 16.14,42.48 16.59,42.36 17.03,42.27 17.44,42.21 17.84,42.17 18.22,42.15 18.57,42.17 18.91,42.20 19.23,42.26 19.53,42.35 19.81,42.47"/>
    </edge>
    <edge id=":3_0" function="internal">
        <lane id=":3_0_0" index="0" disallow="bus truck rail_fast" speed="6.81" length="8.83" width="2.50" shape="19.90,48.07 19.58,47.70 19.24,47.36 18.89,47.06 18.53,46.79 18.17,46.56 17.79,46.36 17.40,46.20 17.01,46.08 16.60,45.99 16.18,45.94 15.76,45.92 15.32,45.94 14.87,46.00 14.41,46.09 13.95,46.21 13.47,46.37 12.98,46.57 12.48,46.80 11.98,47.07"/>
    </edge>
    <edge id=":3_1" function="internal">
        <lane id=":3_1_0" index="0" disallow="bus truck rail_fast" speed="36.11" length="8.46" width="2.50" shape="19.28,42.81 11.98,47.07"/>
    </edge>
    <edge id=":3_2" function="internal">
        <lane id=":3_2_0" index="0" disallow="bus truck rail_fast" speed="14.09" length="8.13" width="2.50" shape="18.06,41.92 17.73,42.42 17.43,42.87 17.15,43.27 16.88,43.62 16.63,43.94 16.38,44.22 16.14,44.48 15.89,44.71 15.64,44.92 15.39,45.12 15.11,45.31 14.83,45.49 14.52,45.68 14.18,45.87 13.82,46.07 13.42,46.28 12.98,46.52 12.50,46.78 11.98,47.07"/>
    </edge>
    <edge id=":6_0" function="internal">
        <lane id=":6_0_0" index="0" disallow="bus truck rail_fast" speed="36.11" length="3.16" width="2.50" shape="22.60,52.43 21.00,49.70"/>
    </edge>
    <edge id=":6_1" function="internal">
        <lane id=":6_1_0" index="0" disallow="bus truck rail_fast" speed="36.11" length="3.10" width="2.50" shape="24.78,51.21 24.67,51.01 24.56,50.83 24.47,50.67 24.39,50.52 24.31,50.38 24.24,50.25 24.18,50.14 24.11,50.02 24.06,49.91 24.00,49.80 23.95,49.69 23.89,49.58 23.83,49.45 23.77,49.32 23.71,49.18 23.64,49.03 23.56,48.85 23.47,48.66 23.38,48.45"/>
    </edge>
    <edge id=":7_0" function="internal">
        <lane id=":7_0_0" index="0" disallow="bus truck rail_fast" speed="25.67" length="8.80" width="2.50" shape="26.34,40.66 26.46,41.31 26.57,41.89 26.67,42.42 26.76,42.90 26.85,43.33 26.94,43.74 27.03,44.11 27.12,44.47 27.22,44.81 27.33,45.14 27.45,45.47 27.59,45.81 27.74,46.16 27.92,46.53 28.12,46.92 28.35,47.35 28.61,47.82 28.90,48.33 29.22,48.90"/>
    </edge>
    <edge id=":7_1" function="internal">
        <lane id=":7_1_0" index="0" disallow="bus truck rail_fast" speed="36.11" length="11.23" width="2.50" shape="23.59,39.21 29.22,48.90"/>
        <lane id=":7_1_1" index="1" disallow="bus truck rail_fast" speed="36.11" length="11.23" width="2.50" shape="21.38,40.38 27.03,50.11"/>
    </edge>
    <edge id=":7_3" function="internal">
        <lane id=":7_3_0" index="0" disallow="bus truck rail_fast" speed="13.02" length="10.63" width="2.50" shape="19.99,42.55 20.67,42.87 21.28,43.18 21.82,43.48 22.31,43.77 22.75,44.06 23.14,44.35 23.49,44.65 23.81,44.96 24.11,45.28 24.38,45.61 24.64,45.97 24.90,46.35 25.16,46.77 25.42,47.22 25.69,47.70 25.98,48.23 26.30,48.80 26.65,49.43 27.03,50.11"/>
    </edge>

    <edge id="468" from="1" to="2" priority="1" spreadType="center" length="262.12">
        <lane id="468_0" index="0" disallow="rail_fast" speed="36.11" length="262.12" width="2.50" customShape="1" shape="-216.18,171.59 -101.75,107.71 11.18,44.66"/>
    </edge>
    <edge id="469" from="3" to="4" priority="1" spreadType="center" length="262.09">
        <lane id="469_0" index="0" disallow="rail_fast" speed="36.11" length="262.09" width="2.50" customShape="1" shape="11.98,47.07 -100.53,109.89 -214.96,173.78"/>
    </edge>
    <edge id="470" from="5" to="6" priority="1" spreadType="center" length="103.89">
        <lane id="470_0" index="0" disallow="bus truck rail_fast" speed="36.11" length="103.89" width="2.50" customShape="1" shape="79.09,137.17 73.71,125.77 69.69,117.63 65.50,110.15 60.77,102.40 55.72,94.86 50.97,88.34 46.21,82.46 36.95,71.79 31.15,64.81 26.92,59.16 23.81,54.56 22.60,52.43"/>
        <lane id="470_1" index="1" disallow="bus truck rail_fast" speed="36.11" length="103.89" width="2.50" customShape="1" shape="81.35,136.10 75.95,124.66 71.90,116.47 67.69,108.94 62.93,101.14 57.86,93.55 53.07,86.97 48.29,81.05 39.05,70.40 33.28,63.47 29.07,57.88 26.01,53.36 24.78,51.21"/>
    </edge>
    <edge id="473" from="7" to="8" priority="1" spreadType="center" length="104.06">
        <lane id="473_0" index="0" disallow="bus truck rail_fast" speed="36.11" length="104.06" width="2.50" customShape="1" shape="29.22,48.90 30.40,50.95 33.51,55.48 37.76,61.06 43.60,68.01 52.88,78.75 57.64,84.72 62.40,91.32 67.46,98.93 72.20,106.75 76.41,114.30 80.45,122.48 85.84,133.91"/>
        <lane id="473_1" index="1" disallow="bus truck rail_fast" speed="36.11" length="104.06" width="2.50" customShape="1" shape="27.03,50.11 28.21,52.16 31.29,56.68 35.52,62.26 41.32,69.20 50.59,79.90 55.36,85.85 60.13,92.43 65.19,100.04 69.94,107.84 74.15,115.39 78.20,123.57 83.59,135.00"/>
    </edge>
    <edge id="475" from="9" to="10" priority="1" spreadType="center" length="158.60">
        <lane id="475_0" index="0" disallow="bus truck rail_fast" speed="36.11" length="158.60" width="2.50" customShape="1" shape="-74.02,-96.71 -62.07,-79.96 -51.77,-66.33 -38.38,-48.74 -26.80,-33.56 -8.71,-10.02 0.84,2.95 8.62,14.12 15.51,24.69 17.86,28.65 18.71,30.31"/>
        <lane id="475_1" index="1" disallow="bus truck rail_fast" speed="36.11" length="158.60" width="2.50" customShape="1" shape="-76.05,-95.26 -64.10,-78.51 -53.81,-64.89 -40.44,-47.32 -28.87,-32.15 -10.82,-8.67 -1.30,4.26 6.45,15.38 13.31,25.89 15.62,29.77 16.47,31.44"/>
    </edge>
    <edge id="476" from="11" to="12" priority="1" spreadType="center" length="124.17">
        <lane id="476_0" index="0" disallow="bus truck rail_fast" speed="36.11" length="124.17" width="2.50" customShape="1" shape="26.65,34.83 34.26,28.64 43.31,20.66 56.88,7.94 73.31,-6.87 120.59,-48.26"/>
    </edge>
    <edge id="477" from="13" to="14" priority="1" spreadType="center" length="124.30">
        <lane id="477_0" index="0" disallow="bus truck rail_fast" speed="36.11" length="124.30" width="2.50" customShape="1" shape="122.24,-46.38 74.94,-4.97 58.51,9.83 44.93,22.57 35.84,30.58 30.39,35.01"/>
    </edge>
    <edge id="478" from="6" to="3" priority="1" spreadType="center" length="10.59">
        <lane id="478_0" index="0" disallow="bus truck rail_fast" speed="36.11" length="10.59" width="2.50" customShape="1" shape="21.00,49.70 20.29,48.54 19.90,48.07"/>
    </edge>
    <edge id="479" from="14" to="3" priority="1" spreadType="center" length="18.30">
        <lane id="479_0" index="0" disallow="bus truck rail_fast" speed="36.11" length="18.30" width="2.50" customShape="1" shape="23.40,40.16 19.28,42.81"/>
    </edge>
    <edge id="480" from="6" to="11" priority="1" spreadType="center" length="17.96">
        <lane id="480_0" index="0" disallow="bus truck rail_fast" speed="36.11" length="17.96" width="2.50" customShape="1" shape="23.38,48.45 23.11,47.85 22.48,45.69 22.27,44.02 22.37,40.75"/>
    </edge>
    <edge id="481" from="14" to="7" priority="1" spreadType="center" length="12.72">
        <lane id="481_0" index="0" disallow="bus truck rail_fast" speed="36.11" length="12.72" width="2.50" customShape="1" shape="26.31,40.47 26.34,40.66"/>
    </edge>
    <edge id="482" from="2" to="11" priority="1" spreadType="center" length="17.88">
        <lane id="482_0" index="0" disallow="bus truck rail_fast" speed="36.11" length="17.88" width="2.50" customShape="1" shape="20.25,39.21 23.39,37.19"/>
    </edge>
    <edge id="483" from="10" to="3" priority="1" spreadType="center" length="15.30">
        <lane id="483_0" index="0" disallow="bus truck rail_fast" speed="36.11" length="15.30" width="2.50" customShape="1" shape="18.17,41.75 18.06,41.92"/>
    </edge>
    <edge id="485" from="10" to="7" priority="1" spreadType="center" length="18.17">
        <lane id="485_0" index="0" disallow="bus truck rail_fast" speed="36.11" length="18.17" width="2.50" customShape="1" shape="23.49,39.04 23.59,39.21"/>
        <lane id="485_1" index="1" disallow="bus truck rail_fast" speed="36.11" length="18.17" width="2.50" customShape="1" shape="21.28,40.21 21.38,40.38"/>
    </edge>
    <edge id="486" from="10" to="11" priority="1" spreadType="center" length="10.29">
        <lane id="486_0" index="0" disallow="bus truck rail_fast" speed="36.11" length="10.29" width="2.50" customShape="1" shape="22.42,36.76 22.60,36.67"/>
    </edge>
    <edge id="487" from="2" to="7" priority="1" spreadType="center" length="16.60">
        <lane id="487_0" index="0" disallow="bus truck rail_fast" speed="36.11" length="16.60" width="2.50" customShape="1" shape="19.81,42.47 19.99,42.55"/>
    </edge>

    <junction id="1" type="dead_end" x="-216.18" y="171.59" incLanes="" intLanes="" shape="-215.57,172.69 -216.78,170.50"/>
    <junction id="10" type="priority" x="18.34" y="32.33" incLanes="475_0 475_1" intLanes=":10_0_0 :10_1_0 :10_1_1 :10_3_0" shape="20.68,41.64 25.12,39.34 24.50,37.99 24.44,37.48 24.53,37.08 24.79,36.80 25.21,36.64 27.41,32.67 19.82,29.75 15.36,32.00 16.32,34.12 16.94,36.09 17.24,37.92 17.21,39.61 16.86,41.15 16.17,42.55 19.41,41.79 19.77,41.13 19.97,41.03 20.19,41.08 20.43,41.28">
        <request index="0" response="0000" foes="0000" cont="0"/>
        <request index="1" response="0000" foes="0000" cont="0"/>
        <request index="2" response="0000" foes="0000" cont="0"/>
        <request index="3" response="0000" foes="0000" cont="0"/>
    </junction>
    <junction id="11" type="priority" x="27.63" y="34.03" incLanes="486_0 480_0 482_0" intLanes=":11_0_0 :11_1_0 :11_2_0" shape="27.44,35.80 25.86,33.86 24.74,34.76 24.33,35.06 23.92,35.35 23.41,35.69 22.72,36.14 24.07,38.24 18.35,37.34 19.43,39.59 21.12,40.72 23.62,40.79 24.07,39.37 24.60,38.57 25.34,37.71 26.29,36.78">
        <request index="0" response="000" foes="110" cont="0"/>
        <request index="1" response="001" foes="101" cont="0"/>
        <request index="2" response="011" foes="011" cont="0"/>
    </junction>
    <junction id="12" type="dead_end" x="120.59" y="-48.26" incLanes="476_0" intLanes="" shape="119.77,-49.20 121.42,-47.32"/>
    <junction id="13" type="dead_end" x="122.24" y="-46.38" incLanes="" intLanes="" shape="121.42,-47.32 123.07,-45.44"/>
    <junction id="14" type="priority" x="29.18" y="35.99" incLanes="477_0" intLanes=":14_0_0 :14_1_0" shape="31.17,35.98 29.60,34.04 27.12,36.05 26.24,36.74 25.33,37.39 24.20,38.15 22.67,39.15 24.14,41.17 24.82,40.88 25.06,40.93 25.23,41.10 25.34,41.39 25.37,41.81 28.24,43.76 27.91,41.03 28.24,39.71 28.89,38.43 29.87,37.19">
        <request index="0" response="00" foes="00" cont="0"/>
        <request index="1" response="00" foes="00" cont="0"/>
    </junction>
    <junction id="2" type="priority" x="12.69" y="43.81" incLanes="468_0" intLanes=":2_0_0 :2_1_0" shape="21.87,45.05 21.07,41.67 20.45,41.24 20.35,41.01 20.39,40.78 20.57,40.54 20.88,40.30 19.62,38.13 10.57,43.57 11.79,45.75 13.83,44.74 15.73,44.09 17.49,43.80 19.10,43.86 20.56,44.28">
        <request index="0" response="00" foes="00" cont="0"/>
        <request index="1" response="00" foes="00" cont="0"/>
    </junction>
    <junction id="3" type="priority" x="13.88" y="46.01" incLanes="478_0 479_0 483_0" intLanes=":3_0_0 :3_1_0 :3_2_0" shape="19.89,50.28 19.92,46.17 19.27,45.32 19.21,44.92 19.31,44.53 19.59,44.16 20.04,43.81 17.32,40.19 15.99,42.99 15.20,43.80 14.22,44.45 11.37,45.98 12.59,48.16 15.39,47.28 16.66,47.44 17.83,47.99 18.90,48.94">
        <request index="0" response="000" foes="110" cont="0"/>
        <request index="1" response="101" foes="101" cont="0"/>
        <request index="2" response="001" foes="011" cont="0"/>
    </junction>
    <junction id="4" type="dead_end" x="-214.96" y="173.78" incLanes="469_0" intLanes="" shape="-214.35,174.87 -215.56,172.69"/>
    <junction id="5" type="dead_end" x="80.21" y="136.63" incLanes="" intLanes="" shape="82.48,135.56 77.95,137.70"/>
    <junction id="6" type="priority" x="22.92" y="50.47" incLanes="470_0 470_1" intLanes=":6_0_0 :6_1_0" shape="21.50,53.03 25.88,50.61 25.33,49.64 25.15,49.30 24.98,48.95 24.78,48.52 24.52,47.94 22.24,48.96 22.06,49.06 19.93,50.35">
        <request index="0" response="00" foes="00" cont="0"/>
        <request index="1" response="00" foes="00" cont="0"/>
    </junction>
    <junction id="7" type="priority" x="27.34" y="48.14" incLanes="481_0 485_0 485_1 487_0" intLanes=":7_0_0 :7_1_0 :7_1_1 :7_3_0" shape="25.94,50.71 30.32,48.30 29.09,45.93 28.29,43.80 27.91,41.90 27.95,40.24 28.41,38.82 29.29,37.63 25.85,38.41 25.43,38.90 25.17,38.88 24.87,38.68 24.54,38.31 24.18,37.75 19.77,40.11 20.03,40.80 19.97,41.01 19.79,41.14 19.48,41.18 19.04,41.13 16.40,43.70 19.59,43.92 21.18,44.82 22.77,46.26 24.35,48.22">
        <request index="0" response="0110" foes="0110" cont="0"/>
        <request index="1" response="0000" foes="1001" cont="0"/>
        <request index="2" response="0000" foes="1001" cont="0"/>
        <request index="3" response="0110" foes="0110" cont="0"/>
    </junction>
    <junction id="8" type="dead_end" x="84.71" y="134.45" incLanes="473_0 473_1" intLanes="" shape="86.97,133.38 82.45,135.51"/>
    <junction id="9" type="dead_end" x="-75.03" y="-95.98" incLanes="" intLanes="" shape="-77.07,-94.53 -73.00,-97.44"/>

    <connection from="468" to="482" fromLane="0" toLane="0" contPos="-4.00" via=":2_0_0" dir="s" state="M"/>
    <connection from="468" to="487" fromLane="0" toLane="0" contPos="-4.00" via=":2_1_0" dir="l" state="M"/>
    <connection from="470" to="478" fromLane="0" toLane="0" contPos="-4.00" via=":6_0_0" dir="s" state="M"/>
    <connection from="470" to="480" fromLane="1" toLane="0" contPos="-4.00" via=":6_1_0" dir="l" state="M"/>
    <connection from="475" to="486" fromLane="0" toLane="0" contPos="-4.00" via=":10_0_0" dir="R" state="M"/>
    <connection from="475" to="485" fromLane="0" toLane="0" contPos="-4.00" via=":10_1_0" dir="s" state="M"/>
    <connection from="475" to="485" fromLane="1" toLane="1" contPos="-4.00" via=":10_1_1" dir="s" state="M"/>
    <connection from="475" to="483" fromLane="1" toLane="0" contPos="-4.00" via=":10_3_0" dir="l" state="M"/>
    <connection from="477" to="481" fromLane="0" toLane="0" contPos="-4.00" via=":14_0_0" dir="R" state="M"/>
    <connection from="477" to="479" fromLane="0" toLane="0" contPos="-4.00" via=":14_1_0" dir="s" state="M"/>
    <connection from="478" to="469" fromLane="0" toLane="0" contPos="-4.00" via=":3_0_0" dir="r" state="M"/>
    <connection from="479" to="469" fromLane="0" toLane="0" contPos="-4.00" via=":3_1_0" dir="s" state="m"/>
    <connection from="480" to="476" fromLane="0" toLane="0" contPos="-4.00" via=":11_1_0" dir="s" state="m"/>
    <connection from="481" to="473" fromLane="0" toLane="0" contPos="-4.00" via=":7_0_0" dir="s" state="m"/>
    <connection from="482" to="476" fromLane="0" toLane="0" contPos="-4.00" via=":11_2_0" dir="s" state="m"/>
    <connection from="483" to="469" fromLane="0" toLane="0" contPos="-4.00" via=":3_2_0" dir="s" state="m"/>
    <connection from="485" to="473" fromLane="0" toLane="0" contPos="-4.00" via=":7_1_0" dir="s" state="M"/>
    <connection from="485" to="473" fromLane="1" toLane="1" contPos="-4.00" via=":7_1_1" dir="s" state="M"/>
    <connection from="486" to="476" fromLane="0" toLane="0" contPos="-4.00" via=":11_0_0" dir="r" state="M"/>
    <connection from="487" to="473" fromLane="0" toLane="1" contPos="-4.00" via=":7_3_0" dir="s" state="m"/>

    <connection from=":10_0" to="486" fromLane="0" toLane="0" dir="R" state="M"/>
    <connection from=":10_1" to="485" fromLane="0" toLane="0" dir="s" state="M"/>
    <connection from=":10_1" to="485" fromLane="1" toLane="1" dir="s" state="M"/>
    <connection from=":10_3" to="483" fromLane="0" toLane="0" dir="l" state="M"/>
    <connection from=":11_0" to="476" fromLane="0" toLane="0" dir="r" state="M"/>
    <connection from=":11_1" to="476" fromLane="0" toLane="0" dir="s" state="M"/>
    <connection from=":11_2" to="476" fromLane="0" toLane="0" dir="s" state="M"/>
    <connection from=":14_0" to="481" fromLane="0" toLane="0" dir="R" state="M"/>
    <connection from=":14_1" to="479" fromLane="0" toLane="0" dir="s" state="M"/>
    <connection from=":2_0" to="482" fromLane="0" toLane="0" dir="s" state="M"/>
    <connection from=":2_1" to="487" fromLane="0" toLane="0" dir="l" state="M"/>
    <connection from=":3_0" to="469" fromLane="0" toLane="0" dir="r" state="M"/>
    <connection from=":3_1" to="469" fromLane="0" toLane="0" dir="s" state="M"/>
    <connection from=":3_2" to="469" fromLane="0" toLane="0" dir="s" state="M"/>
    <connection from=":6_0" to="478" fromLane="0" toLane="0" dir="s" state="M"/>
    <connection from=":6_1" to="480" fromLane="0" toLane="0" dir="l" state="M"/>
    <connection from=":7_0" to="473" fromLane="0" toLane="0" dir="s" state="M"/>
    <connection from=":7_1" to="473" fromLane="0" toLane="0" dir="s" state="M"/>
    <connection from=":7_1" to="473" fromLane="1" toLane="1" dir="s" state="M"/>
    <connection from=":7_3" to="473" fromLane="0" toLane="1" dir="s" state="M"/>

</net>
