<routes>
	<vehicle depart="0.1" departLane="0" departPos="140.057634443742" departSpeed="4.4043" id="32" type="passenger">
		<route edges="475 485 473"/>
	</vehicle>
	<vehicle depart="0.1" departLane="1" departPos="151.3416173271902" departSpeed="4.8096" id="33" type="passenger">
		<route edges="475 475 485 473"/>
	</vehicle>
	<vehicle depart="0.1" departLane="0" departPos="202.7541936041507" departSpeed="9.6579" id="35" type="passenger">
		<route edges="468 487 473"/>
	</vehicle>
	<vehicle depart="0.1" departLane="0" departPos="63.13197620552246" departSpeed="17.8146" id="36" type="passenger">
		<route edges="473"/>
	</vehicle>
	<vehicle depart="0.1" departLane="0" departPos="124.30235954379023" departSpeed="0.0" id="37" type="passenger">
		<route edges="477 479 469"/>
	</vehicle>
	<vehicle depart="0.1" departLane="0" departPos="257.93156534899146" departSpeed="2.7404" id="38" type="passenger">
		<route edges="468 487 473"/>
	</vehicle>
	<vehicle depart="0.1" departLane="0" departPos="241.03884479793666" departSpeed="6.3986" id="39" type="passenger">
		<route edges="468 487 473"/>
	</vehicle>
	<vehicle depart="0.1" departLane="1" departPos="104.00520303729652" departSpeed="0.0" id="310" type="passenger">
		<route edges="470 480 476"/>
	</vehicle>
	<vehicle depart="0.1" departLane="0" departPos="0" departSpeed="11.536" id="312" type="passenger">
		<route edges="469"/>
	</vehicle>
	<vehicle depart="0.1" departLane="0" departPos="93.61068938346654" departSpeed="0.0017" id="313" type="passenger">
		<route edges="470 478 469"/>
	</vehicle>
	<vehicle depart="0.1" departLane="1" departPos="93.67611669467259" departSpeed="0.1197" id="314" type="passenger">
		<route edges="470 480 476"/>
	</vehicle>
	<vehicle depart="0.1" departLane="0" departPos="4.4503434984162595" departSpeed="5.5824" id="315" type="passenger">
		<route edges="483 469"/>
	</vehicle>
	<vehicle depart="0.1" departLane="0" departPos="0" departSpeed="12.1907" id="316" type="passenger">
		<route edges="469"/>
	</vehicle>
	<vehicle depart="0.1" departLane="0" departPos="85.8607310080423" departSpeed="0.2783" id="317" type="passenger">
		<route edges="470 478 469"/>
	</vehicle>
	<vehicle depart="0.1" departLane="0" departPos="124.16808832158752" departSpeed="12.9076" id="318" type="passenger">
		<route edges="476"/>
	</vehicle>
	<vehicle depart="0.1" departLane="0" departPos="127.82404878723804" departSpeed="4.5613" id="319" type="passenger">
		<route edges="475 485 473"/>
	</vehicle>
	<vehicle depart="0.1" departLane="0" departPos="77.33762081391065" departSpeed="1.0012" id="320" type="passenger">
		<route edges="470 478 469"/>
	</vehicle>
	<vehicle depart="0.1" departLane="0" departPos="171.98141663885443" departSpeed="12.1454" id="321" type="passenger">
		<route edges="468 487 473"/>
	</vehicle>
	<vehicle depart="0.1" departLane="0" departPos="113.90550770004356" departSpeed="0.3226" id="322" type="passenger">
		<route edges="477 479 469"/>
	</vehicle>
	<vehicle depart="0.1" departLane="0" departPos="67.92642279577872" departSpeed="1.7649" id="323" type="passenger">
		<route edges="470 478 469"/>
	</vehicle>
	<vehicle depart="0.1" departLane="0" departPos="114.81050435604662" departSpeed="4.8672" id="324" type="passenger">
		<route edges="475 485 473"/>
	</vehicle>
	<vehicle depart="0.1" departLane="0" departPos="152.1031701446762" departSpeed="12.0892" id="325" type="passenger">
		<route edges="468 487 473"/>
	</vehicle>
	<vehicle depart="0.1" departLane="0" departPos="104.69526134092324" departSpeed="1.5651" id="326" type="passenger">
		<route edges="477 479 469"/>
	</vehicle>
	<vehicle depart="0.1" departLane="0" departPos="132.31934273223857" departSpeed="12.2315" id="327" type="passenger">
		<route edges="468 487 473"/>
	</vehicle>
	<vehicle depart="0.1" departLane="1" departPos="100.72445462370509" departSpeed="5.5242" id="328" type="passenger">
		<route edges="475 483 469"/>
	</vehicle>
	<vehicle depart="0.1" departLane="0" departPos="57.8018694035088" departSpeed="2.3765" id="329" type="passenger">
		<route edges="470 478 469"/>
	</vehicle>
	<vehicle depart="0.1" departLane="0" departPos="93.27406494538282" departSpeed="3.2714" id="330" type="passenger">
		<route edges="477 479 469"/>
	</vehicle>
	<vehicle depart="0.1" departLane="0" departPos="0" departSpeed="11.3444" id="331" type="passenger">
		<route edges="468 487 473"/>
	</vehicle>
	<vehicle depart="0.1" departLane="1" departPos="86.02976293760925" departSpeed="6.2187" id="332" type="passenger">
		<route edges="475 483 469"/>
	</vehicle>
	<vehicle depart="0.1" departLane="0" departPos="47.17889678182854" departSpeed="2.9472" id="333" type="passenger">
		<route edges="470 478 469"/>
	</vehicle>
	<vehicle depart="0.1" departLane="0" departPos="0" departSpeed="4.6743" id="334" type="passenger">
		<route edges="477 479 469"/>
	</vehicle>
	<vehicle depart="0.1" departLane="0" departPos="0" departSpeed="11.3653" id="335" type="passenger">
		<route edges="468 487 473"/>
	</vehicle>
	<vehicle depart="0.1" departLane="0" departPos="70.86200814197443" departSpeed="6.8654" id="336" type="passenger">
		<route edges="475 485 473"/>
	</vehicle>
	<vehicle depart="0.1" departLane="1" departPos="36.18654709821222" departSpeed="3.2094" id="337" type="passenger">
		<route edges="470 480 476"/>
	</vehicle>
	<vehicle depart="0.1" departLane="0" departPos="0" departSpeed="6.6283" id="338" type="passenger">
		<route edges="477 479 469"/>
	</vehicle>
	<vehicle depart="0.1" departLane="0" departPos="0" departSpeed="11.4885" id="339" type="passenger">
		<route edges="468 487 473"/>
	</vehicle>
	<vehicle depart="0.1" departLane="0" departPos="55.28221803293349" departSpeed="7.3923" id="340" type="passenger">
		<route edges="475 475 483 469"/>
	</vehicle>
	<vehicle depart="0.1" departLane="1" departPos="24.95068172894129" departSpeed="3.4585" id="341" type="passenger">
		<route edges="470 470 478 469"/>
	</vehicle>
	<vehicle depart="0.1" departLane="0" departPos="0" departSpeed="9.3107" id="342" type="passenger">
		<route edges="477 479 469"/>
	</vehicle>
	<vehicle depart="0.1" departLane="0" departPos="0" departSpeed="11.3332" id="343" type="passenger">
		<route edges="468 487 473"/>
	</vehicle>
	<vehicle depart="0.1" departLane="0" departPos="40.18152105921166" departSpeed="7.4272" id="344" type="passenger">
		<route edges="475 485 473"/>
	</vehicle>
	<vehicle depart="0.1" departLane="0" departPos="0" departSpeed="11.0612" id="345" type="passenger">
		<route edges="468 487 473"/>
	</vehicle>
	<vehicle depart="0.1" departLane="1" departPos="0" departSpeed="3.3742" id="346" type="passenger">
		<route edges="470 470 478 469"/>
	</vehicle>
	<vehicle depart="0.1" departLane="0" departPos="0" departSpeed="7.2086" id="347" type="passenger">
		<route edges="475 475 483 469"/>
	</vehicle>
	<vehicle depart="0.1" departLane="0" departPos="0" departSpeed="9.4185" id="348" type="passenger">
		<route edges="477 479 469"/>
	</vehicle>
	<vehicle depart="0.1" departLane="0" departPos="0" departSpeed="8.1252" id="349" type="passenger">
		<route edges="468 487 473"/>
	</vehicle>
	<vehicle depart="0.1" departLane="0" departPos="0" departSpeed="5.9363" id="350" type="passenger">
		<route edges="475 485 473"/>
	</vehicle>
	<vehicle depart="0.1" departLane="0" departPos="0" departSpeed="6.3245" id="351" type="passenger">
		<route edges="477 479 469"/>
	</vehicle>
	<vehicle depart="0.1" departLane="1" departPos="0" departSpeed="0.2651" id="352" type="passenger">
		<route edges="470 470 478 469"/>
	</vehicle>
	<vehicle depart="0.1" departLane="0" departPos="0" departSpeed="2.3419" id="353" type="passenger">
		<route edges="470 478 469"/>
	</vehicle>
	<vehicle depart="0.1" departLane="0" departPos="0" departSpeed="2.7595" id="354" type="passenger">
		<route edges="468 487 473"/>
	</vehicle>
	<vehicle depart="0.1" departLane="0" departPos="0" departSpeed="1.9118" id="355" type="passenger">
		<route edges="475 475 483 469"/>
	</vehicle>
	<vehicle depart="0.1" departLane="0" departPos="0" departSpeed="3.2189" id="356" type="passenger">
		<route edges="477 479 469"/>
	</vehicle>
</routes>
