<!-- generated on Tue Feb  9 22:12:07 2021 by Eclipse SUMO netconvert Version 1.8.0
<configuration xmlns:xsi="http://www.w3.org/2001/XMLSchema-instance" xsi:noNamespaceSchemaLocation="http://sumo.dlr.de/xsd/netconvertConfiguration.xsd">

    <input>
        <node-files value="./converted_scenarios/scenario-factory/ESP_Ceuta-1_2_I-1-1/ESP_Ceuta-1_2_I-1-1.nod.xml"/>
        <edge-files value="./converted_scenarios/scenario-factory/ESP_Ceuta-1_2_I-1-1/ESP_Ceuta-1_2_I-1-1.edg.xml"/>
        <connection-files value="./converted_scenarios/scenario-factory/ESP_Ceuta-1_2_I-1-1/ESP_Ceuta-1_2_I-1-1.con.xml"/>
        <tllogic-files value="./converted_scenarios/scenario-factory/ESP_Ceuta-1_2_I-1-1/ESP_Ceuta-1_2_I-1-1.tll.xml"/>
        <type-files value="/home/zen/commonroad-interactive-benchmarks/install/commonroad-map-tool/crmapconverter/sumo_map/templates/DEU.typ.xml"/>
    </input>

    <output>
        <output-file value="./converted_scenarios/scenario-factory/ESP_Ceuta-1_2_I-1-1/ESP_Ceuta-1_2_I-1-1.net.xml"/>
    </output>

    <processing>
        <geometry.remove.keep-edges.explicit value="true"/>
        <geometry.avoid-overlap value="true"/>
        <offset.disable-normalization value="true"/>
    </processing>

    <junctions>
        <no-turnarounds value="true"/>
        <junctions.internal-link-detail value="20"/>
    </junctions>

    <report>
        <aggregate-warnings value="5"/>
    </report>

    <random_number>
        <seed value="1234"/>
    </random_number>

</configuration>
--><net xmlns:xsi="http://www.w3.org/2001/XMLSchema-instance" version="1.6" junctionCornerDetail="5" junctionLinkDetail="20" limitTurnSpeed="5.50" xsi:noNamespaceSchemaLocation="http://sumo.dlr.de/xsd/net_file.xsd">

    <location netOffset="0.00,0.00" convBoundary="273.89,-106.92,470.28,75.38" origBoundary="273.89,-107.65,470.28,76.59" projParameter="!"/>

    <type id="highway.bridleway" priority="1" speed="2.78" allow="pedestrian" oneway="1" width="2.00"/>
    <type id="highway.bus_guideway" priority="1" speed="27.78" allow="bus" oneway="1"/>
    <type id="highway.cycleway" priority="1" speed="8.33" allow="bicycle" oneway="0" width="1.00"/>
    <type id="highway.footway" priority="1" speed="2.78" allow="pedestrian" oneway="1" width="2.00"/>
    <type id="highway.ford" priority="1" speed="2.78" allow="army" oneway="0"/>
    <type id="highway.living_street" priority="2" speed="2.78" disallow="tram rail_urban rail rail_electric rail_fast ship" oneway="0"/>
    <type id="highway.motorway" priority="14" speed="39.44" allow="private emergency authority army vip passenger hov taxi bus coach delivery truck trailer motorcycle evehicle custom1 custom2" oneway="1"/>
    <type id="highway.motorway_link" priority="9" speed="22.22" allow="private emergency authority army vip passenger hov taxi bus coach delivery truck trailer motorcycle evehicle custom1 custom2" oneway="1"/>
    <type id="highway.path" priority="1" speed="2.78" allow="pedestrian bicycle" oneway="0" width="2.00"/>
    <type id="highway.pedestrian" priority="1" speed="2.78" allow="pedestrian" oneway="1" width="2.00"/>
    <type id="highway.primary" priority="12" speed="27.78" disallow="pedestrian tram rail_urban rail rail_electric rail_fast ship" oneway="0"/>
    <type id="highway.primary_link" priority="7" speed="22.22" disallow="pedestrian tram rail_urban rail rail_electric rail_fast ship" oneway="0"/>
    <type id="highway.raceway" priority="15" speed="83.33" allow="vip" oneway="0"/>
    <type id="highway.residential" priority="3" speed="13.89" disallow="pedestrian tram rail_urban rail rail_electric rail_fast ship" oneway="0"/>
    <type id="highway.secondary" priority="11" speed="27.78" disallow="pedestrian tram rail_urban rail rail_electric rail_fast ship" oneway="0"/>
    <type id="highway.secondary_link" priority="6" speed="22.22" disallow="pedestrian tram rail_urban rail rail_electric rail_fast ship" oneway="0"/>
    <type id="highway.service" priority="1" speed="5.56" allow="pedestrian delivery bicycle" oneway="0"/>
    <type id="highway.stairs" priority="1" speed="1.39" allow="pedestrian" oneway="1" width="2.00"/>
    <type id="highway.step" priority="1" speed="1.39" allow="pedestrian" oneway="1" width="2.00"/>
    <type id="highway.steps" priority="1" speed="1.39" allow="pedestrian" oneway="1" width="2.00"/>
    <type id="highway.tertiary" priority="10" speed="22.22" disallow="pedestrian tram rail_urban rail rail_electric rail_fast ship" oneway="0"/>
    <type id="highway.tertiary_link" priority="5" speed="22.22" disallow="pedestrian tram rail_urban rail rail_electric rail_fast ship" oneway="0"/>
    <type id="highway.track" priority="1" speed="5.56" allow="pedestrian motorcycle moped bicycle" oneway="0"/>
    <type id="highway.trunk" priority="13" speed="27.78" disallow="pedestrian bicycle tram rail_urban rail rail_electric rail_fast ship" oneway="0"/>
    <type id="highway.trunk_link" priority="8" speed="22.22" disallow="pedestrian bicycle tram rail_urban rail rail_electric rail_fast ship" oneway="0"/>
    <type id="highway.unclassified" priority="4" speed="13.89" disallow="pedestrian tram rail_urban rail rail_electric rail_fast ship" oneway="0"/>
    <type id="highway.unsurfaced" priority="1" speed="8.33" disallow="tram rail_urban rail rail_electric rail_fast ship" oneway="0"/>
    <type id="railway.highspeed" priority="21" speed="69.44" allow="rail_fast" oneway="1"/>
    <type id="railway.light_rail" priority="19" speed="27.78" allow="rail_urban" oneway="1"/>
    <type id="railway.preserved" priority="16" speed="27.78" allow="rail" oneway="1"/>
    <type id="railway.rail" priority="20" speed="44.44" allow="rail" oneway="1"/>
    <type id="railway.subway" priority="18" speed="27.78" allow="rail_urban" oneway="1"/>
    <type id="railway.tram" priority="17" speed="13.89" allow="tram" oneway="1"/>

    <edge id=":33_0" function="internal">
        <lane id=":33_0_0" index="0" disallow="pedestrian tram rail_urban rail rail_electric rail_fast ship" speed="36.11" length="58.57" width="3.50" shape="331.59,-32.85 291.68,-52.40 280.73,-57.59 278.88,-58.37"/>
    </edge>
    <edge id=":33_1" function="internal">
        <lane id=":33_1_0" index="0" disallow="pedestrian tram rail_urban rail rail_electric rail_fast ship" speed="36.11" length="63.83" width="3.50" shape="331.59,-32.85 327.94,-34.82 323.61,-37.60 319.50,-40.69 314.80,-44.71 308.09,-51.08 299.93,-58.93 295.28,-63.00 291.22,-66.16 286.94,-69.02 283.36,-71.04 281.52,-71.96"/>
    </edge>
    <edge id=":33_2" function="internal">
        <lane id=":33_2_0" index="0" disallow="pedestrian tram rail_urban rail rail_electric rail_fast ship" speed="36.11" length="63.88" width="3.50" shape="283.01,-75.12 284.93,-74.17 288.61,-72.09 293.00,-69.16 297.15,-65.93 301.87,-61.80 310.06,-53.92 316.74,-47.58 321.36,-43.63 325.38,-40.61 329.60,-37.90 333.13,-36.00"/>
    </edge>
    <edge id=":33_3" function="internal">
        <lane id=":33_3_0" index="0" disallow="pedestrian tram rail_urban rail rail_electric rail_fast ship" speed="36.11" length="59.08" width="3.50" shape="279.94,-61.71 281.98,-60.86 293.03,-55.63 333.13,-36.00"/>
    </edge>
    <edge id=":34_0" function="internal">
        <lane id=":34_0_0" index="0" disallow="pedestrian tram rail_urban rail rail_electric rail_fast ship" speed="36.11" length="74.02" width="3.50" shape="415.82,27.08 402.33,13.30 391.10,2.31 382.17,-5.94 375.25,-11.88 369.65,-16.24 365.47,-19.09 362.38,-20.84 360.51,-21.66"/>
    </edge>
    <edge id=":34_1" function="internal">
        <lane id=":34_1_0" index="0" disallow="pedestrian tram rail_urban rail rail_electric rail_fast ship" speed="36.11" length="78.79" width="3.50" shape="415.82,27.08 412.79,23.72 410.03,20.27 407.44,16.71 404.98,13.08 402.63,9.37 400.38,5.60 396.14,-2.05 392.18,-9.82 388.42,-17.70 383.13,-29.64 378.17,-41.68"/>
        <lane id=":34_1_1" index="1" disallow="pedestrian tram rail_urban rail rail_electric rail_fast ship" speed="36.11" length="77.46" width="3.50" shape="418.33,24.65 415.40,21.38 412.68,17.98 410.13,14.48 407.72,10.89 405.42,7.24 403.22,3.53 399.07,-3.99 395.18,-11.64 391.50,-19.38 386.30,-31.12 381.40,-43.00"/>
    </edge>
    <edge id=":34_3" function="internal">
        <lane id=":34_3_0" index="0" disallow="pedestrian tram rail_urban rail rail_electric rail_fast ship" speed="36.11" length="76.12" width="3.50" shape="384.64,-44.33 389.49,-32.56 394.62,-20.96 398.24,-13.33 402.07,-5.79 406.15,1.62 408.30,5.25 410.55,8.83 412.91,12.34 415.39,15.76 418.03,19.07 420.84,22.21"/>
    </edge>
    <edge id=":34_4" function="internal">
        <lane id=":34_4_0" index="0" disallow="pedestrian tram rail_urban rail rail_electric rail_fast ship" speed="36.11" length="76.10" width="3.50" shape="361.73,-24.94 365.96,-23.13 370.45,-20.78 375.64,-17.61 381.48,-13.57 387.92,-8.62 395.30,-2.43 403.57,5.07 412.68,13.88 420.84,22.21"/>
    </edge>
    <edge id=":35_0" function="internal">
        <lane id=":35_0_0" index="0" disallow="pedestrian tram rail_urban rail rail_electric rail_fast ship" speed="17.55" length="33.18" width="3.49" shape="360.29,-21.75 358.35,-22.26 356.35,-22.44 354.33,-22.39 351.34,-22.00 348.40,-21.35 344.54,-20.20 339.82,-18.45 334.28,-16.05 328.86,-13.42"/>
    </edge>
    <edge id=":35_1" function="internal">
        <lane id=":35_1_0" index="0" disallow="pedestrian tram rail_urban rail rail_electric rail_fast ship" speed="36.11" length="30.53" width="3.50" shape="360.28,-21.75 339.70,-29.57 331.80,-32.75"/>
    </edge>
    <edge id=":35_2" function="internal">
        <lane id=":35_2_0" index="0" disallow="pedestrian tram rail_urban rail rail_electric rail_fast ship" speed="19.55" length="33.06" width="3.50" shape="360.28,-21.74 359.06,-22.36 357.99,-23.13 356.29,-24.73 354.16,-27.31 352.26,-30.00 349.44,-34.59 345.87,-41.16 342.08,-48.81"/>
    </edge>
    <edge id=":35_3" function="internal">
        <lane id=":35_3_0" index="0" disallow="pedestrian tram rail_urban rail rail_electric rail_fast ship" speed="18.27" length="30.40" width="3.50" shape="345.23,-50.34 348.83,-43.02 352.19,-36.78 354.80,-32.43 356.50,-29.92 358.39,-27.53 359.82,-26.10 360.63,-25.49 361.48,-25.03"/>
    </edge>
    <edge id=":35_4" function="internal">
        <lane id=":35_4_0" index="0" disallow="pedestrian tram rail_urban rail rail_electric rail_fast ship" speed="14.27" length="45.98" width="3.49" shape="345.23,-50.34 346.69,-46.86 347.44,-44.49 348.00,-42.07 348.32,-39.61 348.38,-37.13 348.14,-34.65 347.61,-32.23 346.78,-29.89 345.68,-27.67 344.34,-25.58 342.80,-23.63 340.19,-20.97 337.32,-18.60 334.25,-16.48 331.05,-14.58 328.86,-13.42"/>
    </edge>
    <edge id=":35_5" function="internal">
        <lane id=":35_5_0" index="0" disallow="pedestrian tram rail_urban rail rail_electric rail_fast ship" speed="10.24" length="40.14" width="3.50" shape="345.23,-50.34 347.09,-46.22 348.71,-42.06 349.40,-39.93 349.96,-37.77 350.34,-35.57 350.42,-33.34 349.98,-31.17 348.66,-29.41 346.63,-28.56 344.41,-28.46 342.20,-28.79 340.04,-29.35 337.92,-30.07 333.80,-31.79 331.80,-32.75"/>
    </edge>
    <edge id=":35_6" function="internal">
        <lane id=":35_6_0" index="0" disallow="pedestrian tram rail_urban rail rail_electric rail_fast ship" speed="8.89" length="29.93" width="3.50" shape="333.30,-35.91 334.98,-35.11 338.38,-33.69 340.06,-33.13 341.73,-32.71 343.31,-32.48 344.67,-32.51 345.72,-32.94 346.28,-33.91 346.43,-35.26 346.31,-36.84 345.99,-38.53 345.53,-40.25 344.97,-41.96 343.62,-45.40 342.08,-48.81"/>
    </edge>
    <edge id=":35_7" function="internal">
        <lane id=":35_7_0" index="0" disallow="pedestrian tram rail_urban rail rail_electric rail_fast ship" speed="36.11" length="30.21" width="3.50" shape="333.30,-35.91 341.07,-32.79 361.48,-25.03"/>
    </edge>
    <edge id=":35_8" function="internal">
        <lane id=":35_8_0" index="0" disallow="pedestrian tram rail_urban rail rail_electric rail_fast ship" speed="9.98" length="33.34" width="3.49" shape="333.31,-35.91 336.41,-34.20 337.87,-33.23 339.25,-32.14 340.49,-30.90 341.53,-29.49 342.22,-27.88 342.41,-26.15 342.07,-24.43 341.32,-22.85 340.29,-21.43 339.09,-20.15 337.77,-18.99 334.94,-16.91 331.95,-15.08 328.86,-13.42"/>
    </edge>
    <edge id=":35_9" function="internal">
        <lane id=":35_9_0" index="0" disallow="pedestrian tram rail_urban rail rail_electric rail_fast ship" speed="8.67" length="24.88" width="3.50" shape="327.22,-16.51 329.87,-17.93 332.36,-19.44 334.70,-21.13 335.74,-22.02 336.68,-22.98 337.47,-23.99 338.03,-25.02 338.30,-26.02 338.27,-26.97 337.93,-27.92 337.31,-28.86 336.44,-29.76 335.41,-30.60 334.29,-31.37 331.80,-32.75"/>
    </edge>
    <edge id=":35_10" function="internal">
        <lane id=":35_10_0" index="0" disallow="pedestrian tram rail_urban rail rail_electric rail_fast ship" speed="13.42" length="40.54" width="3.50" shape="327.22,-16.51 329.27,-17.60 332.20,-19.33 334.98,-21.23 337.56,-23.34 339.89,-25.70 341.24,-27.38 342.42,-29.18 343.38,-31.08 344.11,-33.07 344.59,-35.13 344.81,-37.24 344.78,-39.37 344.51,-41.51 344.03,-43.63 343.38,-45.71 342.08,-48.81"/>
    </edge>
    <edge id=":35_11" function="internal">
        <lane id=":35_11_0" index="0" disallow="pedestrian tram rail_urban rail rail_electric rail_fast ship" speed="18.69" length="36.09" width="3.50" shape="327.21,-16.52 333.01,-19.31 338.88,-21.83 343.92,-23.65 348.07,-24.84 351.30,-25.51 354.59,-25.88 356.88,-25.90 359.20,-25.64 361.48,-25.03"/>
    </edge>

    <edge id="67177" from="21" to="35" priority="3" type="highway.residential" spreadType="center" length="70.00" shape="324.53,41.97 339.58,-30.96">
        <lane id="67177_0" index="0" disallow="pedestrian tram rail_urban rail rail_electric rail_fast ship" speed="36.11" length="70.00" width="3.50" customShape="1" shape="324.53,41.97 323.11,39.50 318.18,30.23 314.32,22.19 311.22,14.95 310.42,12.46 309.89,9.89 309.65,7.27 309.61,4.65 309.79,2.03 310.30,-0.54 310.95,-2.54 311.88,-4.41 312.77,-5.71 315.40,-8.99 316.84,-10.51 318.09,-11.46 322.18,-13.83 327.26,-16.54"/>
    </edge>
    <edge id="67178" from="35" to="3" priority="3" type="highway.residential" spreadType="center" length="70.00" shape="343.02,-30.32 330.39,45.15">
        <lane id="67178_0" index="0" disallow="pedestrian tram rail_urban rail rail_electric rail_fast ship" speed="36.11" length="70.00" width="3.49" customShape="1" shape="328.86,-13.42 323.96,-10.82 320.11,-8.60 319.11,-7.86 317.87,-6.48 315.44,-3.44 314.73,-2.35 314.01,-0.71 313.54,1.04 313.19,3.36 313.12,5.73 313.23,8.10 313.57,10.44 314.19,12.75 315.03,15.03 318.05,21.93 321.82,29.65 326.61,38.59 330.39,45.15"/>
    </edge>
    <edge id="67491" from="34" to="27" priority="3" type="highway.residential" spreadType="center" length="69.29" shape="384.29,-12.69 348.03,-103.98">
        <lane id="67491_0" index="0" disallow="pedestrian tram rail_urban rail rail_electric rail_fast ship" speed="36.11" length="69.29" width="3.50" customShape="1" shape="378.17,-41.68 373.64,-52.74 367.04,-70.46 364.20,-77.37 361.62,-82.75 358.94,-87.52 355.92,-92.09 352.61,-96.44 348.99,-100.55 346.79,-102.74"/>
        <lane id="67491_1" index="1" disallow="pedestrian tram rail_urban rail rail_electric rail_fast ship" speed="36.11" length="70.72" width="3.50" customShape="1" shape="381.41,-42.98 376.90,-54.04 370.25,-71.86 367.37,-78.87 364.73,-84.37 361.98,-89.26 358.90,-93.94 355.51,-98.41 351.83,-102.64 349.26,-105.22"/>
    </edge>
    <edge id="67494" from="28" to="34" priority="3" type="highway.residential" spreadType="center" length="69.32" shape="354.95,-106.92 390.80,-15.26">
        <lane id="67494_0" index="0" disallow="pedestrian tram rail_urban rail rail_electric rail_fast ship" speed="36.11" length="70.68" width="3.50" customShape="1" shape="356.21,-108.14 358.32,-105.92 361.94,-101.57 365.29,-97.01 368.34,-92.25 371.09,-87.31 373.74,-81.76 376.65,-74.71 383.33,-56.80 387.91,-45.60"/>
        <lane id="67494_1" index="1" disallow="pedestrian tram rail_urban rail rail_electric rail_fast ship" speed="36.11" length="69.32" width="3.50" customShape="1" shape="353.70,-105.70 355.08,-104.28 358.73,-99.99 362.09,-95.47 365.16,-90.75 367.91,-85.84 370.55,-80.31 373.45,-73.28 380.11,-55.42 384.66,-44.29"/>
    </edge>
    <edge id="67496" from="32" to="34" priority="3" type="highway.residential" spreadType="center" length="70.00" shape="466.48,75.38 384.87,-11.78">
        <lane id="67496_0" index="0" disallow="pedestrian tram rail_urban rail rail_electric rail_fast ship" speed="36.11" length="70.07" width="3.50" customShape="1" shape="465.26,76.64 451.34,63.21 435.70,47.61 415.78,27.04"/>
        <lane id="67496_1" index="1" disallow="pedestrian tram rail_urban rail rail_electric rail_fast ship" speed="36.11" length="70.00" width="3.50" customShape="1" shape="467.74,74.16 453.83,60.74 438.22,45.18 418.30,24.61"/>
    </edge>
    <edge id="67498" from="34" to="25" priority="3" type="highway.residential" spreadType="center" length="70.00" shape="388.76,-15.32 470.28,71.76">
        <lane id="67498_0" index="0" disallow="pedestrian tram rail_urban rail rail_electric rail_fast ship" speed="36.11" length="70.00" width="3.50" customShape="1" shape="420.84,22.21 440.72,42.73 456.32,58.29 470.28,71.76"/>
    </edge>
    <edge id="67976" from="35" to="5" priority="3" type="highway.residential" spreadType="center" length="70.00" shape="339.82,-29.61 296.74,-99.48">
        <lane id="67976_0" index="0" disallow="pedestrian tram rail_urban rail rail_electric rail_fast ship" speed="36.11" length="70.00" width="3.50" customShape="1" shape="342.08,-48.81 341.66,-49.68 339.29,-54.04 332.75,-64.60 329.24,-70.60 325.57,-77.08 323.12,-80.82 320.96,-83.55 318.21,-86.41 314.88,-89.39 311.32,-92.10 307.56,-94.51 303.62,-96.62 299.08,-98.63 296.74,-99.48"/>
    </edge>
    <edge id="67977" from="20" to="35" priority="3" type="highway.residential" spreadType="center" length="70.00" shape="300.51,-101.82 342.81,-31.43">
        <lane id="67977_0" index="0" disallow="pedestrian tram rail_urban rail rail_electric rail_fast ship" speed="36.11" length="70.00" width="3.50" customShape="1" shape="300.51,-101.82 305.17,-99.76 309.31,-97.55 313.25,-95.02 316.99,-92.18 320.49,-89.07 323.41,-86.06 325.73,-83.18 328.33,-79.27 332.12,-72.64 335.66,-66.55 342.33,-55.77 344.78,-51.25 345.25,-50.29"/>
    </edge>
    <edge id="68002" from="35" to="34" priority="3" type="highway.residential" spreadType="center" length="0.32" shape="341.81,-32.23 388.08,-15.75">
        <lane id="68002_0" index="0" disallow="pedestrian tram rail_urban rail rail_electric rail_fast ship" speed="36.11" length="0.32" width="3.50" customShape="1" shape="361.48,-25.03 361.64,-24.97 361.78,-24.92"/>
    </edge>
    <edge id="68003" from="34" to="35" priority="3" type="highway.residential" spreadType="center" length="0.29" shape="386.91,-12.45 340.64,-28.94">
        <lane id="68003_0" index="0" disallow="pedestrian tram rail_urban rail rail_electric rail_fast ship" speed="36.11" length="0.29" width="3.50" customShape="1" shape="360.51,-21.66 360.41,-21.70 360.24,-21.77"/>
    </edge>
    <edge id="68005" from="33" to="35" priority="3" type="highway.residential" spreadType="center" length="0.22" shape="298.91,-57.50 342.22,-32.04">
        <lane id="68005_0" index="0" disallow="pedestrian tram rail_urban rail rail_electric rail_fast ship" speed="36.11" length="0.22" width="3.50" customShape="1" shape="333.13,-36.00 333.22,-35.95 333.33,-35.90"/>
    </edge>
    <edge id="68006" from="35" to="33" priority="3" type="highway.residential" spreadType="center" length="0.27" shape="340.45,-29.03 297.13,-54.49">
        <lane id="68006_0" index="0" disallow="pedestrian tram rail_urban rail rail_electric rail_fast ship" speed="36.11" length="0.27" width="3.50" customShape="1" shape="331.80,-32.75 331.67,-32.81 331.56,-32.87"/>
    </edge>
    <edge id="68008" from="31" to="33" priority="3" type="highway.residential" spreadType="center" length="5.33" shape="274.92,-63.29 298.54,-57.65">
        <lane id="68008_0" index="0" disallow="pedestrian tram rail_urban rail rail_electric rail_fast ship" speed="36.11" length="5.33" width="3.47" customShape="1" shape="274.92,-63.29 279.69,-61.78 279.80,-61.75 280.00,-61.68"/>
    </edge>
    <edge id="68009" from="33" to="18" priority="3" type="highway.residential" spreadType="center" length="5.24" shape="297.74,-54.27 273.89,-59.96">
        <lane id="68009_0" index="0" disallow="pedestrian tram rail_urban rail rail_electric rail_fast ship" speed="36.11" length="5.24" width="3.50" customShape="1" shape="278.88,-58.37 278.75,-58.41 273.89,-59.96"/>
    </edge>
    <edge id="68196" from="33" to="19" priority="3" type="highway.residential" spreadType="center" length="5.23" shape="296.88,-54.67 276.79,-74.20">
        <lane id="68196_0" index="0" disallow="pedestrian tram rail_urban rail rail_electric rail_fast ship" speed="36.11" length="5.23" width="3.50" customShape="1" shape="281.52,-71.96 281.40,-72.01 281.30,-72.06 276.79,-74.20"/>
    </edge>
    <edge id="68197" from="30" to="33" priority="3" type="highway.residential" spreadType="center" length="5.27" shape="278.27,-77.37 299.30,-57.18">
        <lane id="68197_0" index="0" disallow="pedestrian tram rail_urban rail rail_electric rail_fast ship" speed="36.11" length="5.27" width="3.49" customShape="1" shape="278.27,-77.37 282.79,-75.23 282.90,-75.18 283.03,-75.12"/>
    </edge>

    <junction id="18" type="dead_end" x="273.89" y="-59.96" incLanes="68009_0" intLanes="" shape="273.36,-58.30 274.43,-61.63" rightOfWay="edgePriority"/>
    <junction id="19" type="dead_end" x="276.79" y="-74.20" incLanes="68196_0" intLanes="" shape="276.04,-72.62 277.54,-75.78" rightOfWay="edgePriority"/>
    <junction id="20" type="dead_end" x="300.51" y="-101.82" incLanes="" intLanes="" shape="299.80,-100.22 301.22,-103.42" rightOfWay="edgePriority"/>
    <junction id="21" type="dead_end" x="324.53" y="41.97" incLanes="" intLanes="" shape="326.05,41.10 323.02,42.84" rightOfWay="edgePriority"/>
    <junction id="25" type="dead_end" x="470.28" y="71.76" incLanes="67498_0" intLanes="" shape="471.50,70.50 469.07,73.02" rightOfWay="edgePriority"/>
    <junction id="27" type="dead_end" x="348.03" y="-103.98" incLanes="67491_0 67491_1" intLanes="" shape="345.56,-101.50 350.49,-106.46" rightOfWay="edgePriority"/>
    <junction id="28" type="dead_end" x="354.95" y="-106.92" incLanes="" intLanes="" shape="352.44,-104.48 357.46,-109.36" rightOfWay="edgePriority"/>
    <junction id="3" type="dead_end" x="330.39" y="45.15" incLanes="67178_0" intLanes="" shape="331.90,44.28 328.87,46.02" rightOfWay="edgePriority"/>
    <junction id="30" type="dead_end" x="278.27" y="-77.37" incLanes="" intLanes="" shape="277.52,-75.79 279.01,-78.94" rightOfWay="edgePriority"/>
    <junction id="31" type="dead_end" x="274.92" y="-63.29" incLanes="" intLanes="" shape="274.40,-61.64 275.44,-64.95" rightOfWay="edgePriority"/>
    <junction id="32" type="dead_end" x="466.48" y="75.38" incLanes="" intLanes="" shape="468.91,72.86 464.05,77.90" rightOfWay="edgePriority"/>
    <junction id="33" type="priority" x="298.02" y="-56.00" incLanes="68006_0 68197_0 68008_0" intLanes=":33_0_0 :33_1_0 :33_2_0 :33_3_0" shape="330.82,-31.28 333.89,-37.57 323.95,-43.53 315.93,-50.21 308.87,-57.23 301.81,-64.23 293.76,-70.84 283.76,-76.70 280.77,-70.38 283.08,-67.54 283.33,-65.77 282.97,-64.25 282.02,-63.33 280.47,-63.35 278.35,-56.70 288.94,-52.93 297.52,-49.13 305.05,-45.18 312.48,-40.97 320.75,-36.38">
        <request index="0" response="0000" foes="0000" cont="0"/>
        <request index="1" response="0000" foes="1000" cont="0"/>
        <request index="2" response="0000" foes="1000" cont="0"/>
        <request index="3" response="0110" foes="0110" cont="0"/>
    </junction>
    <junction id="34" type="priority" x="387.50" y="-14.10" incLanes="67496_0 67496_1 67494_0 67494_1 68002_0" intLanes=":34_0_0 :34_1_0 :34_1_1 :34_3_0 :34_4_0" shape="414.56,28.30 422.10,20.99 414.30,11.38 408.02,0.71 402.82,-10.71 398.29,-22.57 393.99,-34.54 389.50,-46.31 376.55,-41.02 377.71,-36.06 377.10,-31.79 375.00,-28.45 371.67,-26.30 367.36,-25.59 362.34,-26.58 359.90,-20.02 370.88,-14.67 380.62,-7.61 389.49,0.67 397.87,9.73 406.10,19.09">
        <request index="0" response="00000" foes="00000" cont="0"/>
        <request index="1" response="00000" foes="10000" cont="0"/>
        <request index="2" response="00000" foes="10000" cont="0"/>
        <request index="3" response="00000" foes="10000" cont="0"/>
        <request index="4" response="01110" foes="01110" cont="0"/>
    </junction>
    <junction id="35" type="priority" x="341.29" y="-30.56" incLanes="68003_0 67977_0 68005_0 67177_0" intLanes=":35_0_0 :35_1_0 :35_2_0 :35_3_0 :35_4_0 :35_5_0 :35_6_0 :35_7_0 :35_8_0 :35_9_0 :35_10_0 :35_11_0" shape="359.69,-20.10 362.08,-26.68 356.68,-29.30 353.50,-32.32 351.72,-35.88 350.55,-40.10 349.18,-45.13 346.80,-51.10 340.51,-48.04 342.75,-42.76 343.67,-38.88 343.26,-36.42 341.52,-35.36 338.45,-35.72 334.06,-37.49 331.04,-31.17 333.84,-29.41 335.21,-27.48 335.15,-25.38 333.66,-23.11 330.74,-20.67 326.39,-18.06 329.68,-11.88 336.52,-15.31 342.63,-17.91 348.00,-19.69 352.63,-20.65 356.53,-20.79">
        <request index="0" response="000000000000" foes="000100010000" cont="0"/>
        <request index="1" response="000000000000" foes="111100110000" cont="0"/>
        <request index="2" response="000011000000" foes="110011110000" cont="0"/>
        <request index="3" response="000010000000" foes="100010000000" cont="0"/>
        <request index="4" response="000110000111" foes="100110000111" cont="0"/>
        <request index="5" response="011110000110" foes="011110000110" cont="0"/>
        <request index="6" response="000000000000" foes="010000000100" cont="0"/>
        <request index="7" response="000000000000" foes="110000111100" cont="0"/>
        <request index="8" response="000000000011" foes="110000110011" cont="0"/>
        <request index="9" response="000000000010" foes="000000100010" cont="0"/>
        <request index="10" response="000111000110" foes="000111100110" cont="0"/>
        <request index="11" response="000110011110" foes="000110011110" cont="0"/>
    </junction>
    <junction id="5" type="dead_end" x="296.74" y="-99.48" incLanes="67976_0" intLanes="" shape="296.15,-97.83 297.34,-101.12" rightOfWay="edgePriority"/>

    <connection from="67177" to="68006" fromLane="0" toLane="0" contPos="-4.00" shape="327.26,-16.54 329.87,-17.93 332.36,-19.44 334.70,-21.13 335.74,-22.02 336.68,-22.98 337.47,-23.99 338.03,-25.02 338.30,-26.02 338.27,-26.97 337.93,-27.92 337.31,-28.86 336.44,-29.76 335.41,-30.60 334.29,-31.37 331.80,-32.75" via=":35_9_0" dir="r" state="m"/>
    <connection from="67177" to="67976" fromLane="0" toLane="0" contPos="-4.00" shape="327.26,-16.54 329.27,-17.60 332.20,-19.33 334.98,-21.23 337.56,-23.34 339.89,-25.70 341.24,-27.38 342.42,-29.18 343.38,-31.08 344.11,-33.07 344.59,-35.13 344.81,-37.24 344.78,-39.37 344.51,-41.51 344.03,-43.63 343.38,-45.71 342.08,-48.81" via=":35_10_0" dir="s" state="m"/>
    <connection from="67177" to="68002" fromLane="0" toLane="0" contPos="-4.00" shape="327.26,-16.54 333.01,-19.31 338.88,-21.83 343.92,-23.65 348.07,-24.84 351.30,-25.51 354.59,-25.88 356.88,-25.90 359.20,-25.64 361.48,-25.03" via=":35_11_0" dir="l" state="m"/>
    <connection from="67494" to="67498" fromLane="1" toLane="0" contPos="-4.00" shape="384.66,-44.29 389.49,-32.56 394.62,-20.96 398.24,-13.33 402.07,-5.79 406.15,1.62 408.30,5.25 410.55,8.83 412.91,12.34 415.39,15.76 418.03,19.07 420.84,22.21" via=":34_3_0" dir="s" state="M"/>
    <connection from="67496" to="68003" fromLane="0" toLane="0" contPos="-4.00" shape="415.78,27.04 402.33,13.30 391.10,2.31 382.17,-5.94 375.25,-11.88 369.65,-16.24 365.47,-19.09 362.38,-20.84 360.51,-21.66" via=":34_0_0" dir="R" state="M"/>
    <connection from="67496" to="67491" fromLane="0" toLane="0" contPos="-4.00" shape="415.78,27.04 412.79,23.72 410.03,20.27 407.44,16.71 404.98,13.08 402.63,9.37 400.38,5.60 396.14,-2.05 392.18,-9.82 388.42,-17.70 383.13,-29.64 378.17,-41.68" via=":34_1_0" dir="s" state="M"/>
    <connection from="67496" to="67491" fromLane="1" toLane="1" contPos="-4.00" shape="418.30,24.61 415.40,21.38 412.68,17.98 410.13,14.48 407.72,10.89 405.42,7.24 403.22,3.53 399.07,-3.99 395.18,-11.64 391.50,-19.38 386.30,-31.12 381.41,-42.98" via=":34_1_1" dir="s" state="M"/>
    <connection from="67977" to="68002" fromLane="0" toLane="0" contPos="-4.00" shape="345.25,-50.29 348.83,-43.02 352.19,-36.78 354.80,-32.43 356.50,-29.92 358.39,-27.53 359.82,-26.10 360.63,-25.49 361.48,-25.03" via=":35_3_0" dir="s" state="m"/>
    <connection from="67977" to="67178" fromLane="0" toLane="0" contPos="-4.00" shape="345.25,-50.29 346.69,-46.86 347.44,-44.49 348.00,-42.07 348.32,-39.61 348.38,-37.13 348.14,-34.65 347.61,-32.23 346.78,-29.89 345.68,-27.67 344.34,-25.58 342.80,-23.63 340.19,-20.97 337.32,-18.60 334.25,-16.48 331.05,-14.58 328.86,-13.42" via=":35_4_0" dir="L" state="m"/>
    <connection from="67977" to="68006" fromLane="0" toLane="0" contPos="-4.00" shape="345.25,-50.29 347.09,-46.22 348.71,-42.06 349.40,-39.93 349.96,-37.77 350.34,-35.57 350.42,-33.34 349.98,-31.17 348.66,-29.41 346.63,-28.56 344.41,-28.46 342.20,-28.79 340.04,-29.35 337.92,-30.07 333.80,-31.79 331.80,-32.75" via=":35_5_0" dir="l" state="m"/>
    <connection from="68002" to="67498" fromLane="0" toLane="0" contPos="-4.00" shape="361.78,-24.92 365.96,-23.13 370.45,-20.78 375.64,-17.61 381.48,-13.57 387.92,-8.62 395.30,-2.43 403.57,5.07 412.68,13.88 420.84,22.21" via=":34_4_0" dir="s" state="m"/>
    <connection from="68003" to="67178" fromLane="0" toLane="0" contPos="-4.00" shape="360.24,-21.77 358.35,-22.26 356.35,-22.44 354.33,-22.39 351.34,-22.00 348.40,-21.35 344.54,-20.20 339.82,-18.45 334.28,-16.05 328.86,-13.42" via=":35_0_0" dir="r" state="M"/>