<!-- generated on Tue Feb  9 22:22:13 2021 by Eclipse SUMO netconvert Version 1.8.0
<configuration xmlns:xsi="http://www.w3.org/2001/XMLSchema-instance" xsi:noNamespaceSchemaLocation="http://sumo.dlr.de/xsd/netconvertConfiguration.xsd">

    <input>
        <node-files value="./converted_scenarios/scenario-factory/ITA_CarpiCentro-7_1_I-1-1/ITA_CarpiCentro-7_1_I-1-1.nod.xml"/>
        <edge-files value="./converted_scenarios/scenario-factory/ITA_CarpiCentro-7_1_I-1-1/ITA_CarpiCentro-7_1_I-1-1.edg.xml"/>
        <connection-files value="./converted_scenarios/scenario-factory/ITA_CarpiCentro-7_1_I-1-1/ITA_CarpiCentro-7_1_I-1-1.con.xml"/>
        <tllogic-files value="./converted_scenarios/scenario-factory/ITA_CarpiCentro-7_1_I-1-1/ITA_CarpiCentro-7_1_I-1-1.tll.xml"/>
        <type-files value="/home/zen/commonroad-interactive-benchmarks/install/commonroad-map-tool/crmapconverter/sumo_map/templates/DEU.typ.xml"/>
    </input>

    <output>
        <output-file value="./converted_scenarios/scenario-factory/ITA_CarpiCentro-7_1_I-1-1/ITA_CarpiCentro-7_1_I-1-1.net.xml"/>
    </output>

    <processing>
        <geometry.remove.keep-edges.explicit value="true"/>
        <geometry.avoid-overlap value="true"/>
        <offset.disable-normalization value="true"/>
    </processing>

    <junctions>
        <no-turnarounds value="true"/>
        <junctions.internal-link-detail value="20"/>
    </junctions>

    <report>
        <aggregate-warnings value="5"/>
    </report>

    <random_number>
        <seed value="1234"/>
    </random_number>

</configuration>
--><net xmlns:xsi="http://www.w3.org/2001/XMLSchema-instance" version="1.6" junctionCornerDetail="5" junctionLinkDetail="20" limitTurnSpeed="5.50" xsi:noNamespaceSchemaLocation="http://sumo.dlr.de/xsd/net_file.xsd">

    <location netOffset="0.00,0.00" convBoundary="-327.33,-19.45,84.77,314.51" origBoundary="-327.33,-19.45,84.77,314.51" projParameter="!"/>

    <type id="highway.bridleway" priority="1" speed="2.78" allow="pedestrian" oneway="1" width="2.00"/>
    <type id="highway.bus_guideway" priority="1" speed="27.78" allow="bus" oneway="1"/>
    <type id="highway.cycleway" priority="1" speed="8.33" allow="bicycle" oneway="0" width="1.00"/>
    <type id="highway.footway" priority="1" speed="2.78" allow="pedestrian" oneway="1" width="2.00"/>
    <type id="highway.ford" priority="1" speed="2.78" allow="army" oneway="0"/>
    <type id="highway.living_street" priority="2" speed="2.78" disallow="tram rail_urban rail rail_electric rail_fast ship" oneway="0"/>
    <type id="highway.motorway" priority="14" speed="39.44" allow="private emergency authority army vip passenger hov taxi bus coach delivery truck trailer motorcycle evehicle custom1 custom2" oneway="1"/>
    <type id="highway.motorway_link" priority="9" speed="22.22" allow="private emergency authority army vip passenger hov taxi bus coach delivery truck trailer motorcycle evehicle custom1 custom2" oneway="1"/>
    <type id="highway.path" priority="1" speed="2.78" allow="pedestrian bicycle" oneway="0" width="2.00"/>
    <type id="highway.pedestrian" priority="1" speed="2.78" allow="pedestrian" oneway="1" width="2.00"/>
    <type id="highway.primary" priority="12" speed="27.78" disallow="pedestrian tram rail_urban rail rail_electric rail_fast ship" oneway="0"/>
    <type id="highway.primary_link" priority="7" speed="22.22" disallow="pedestrian tram rail_urban rail rail_electric rail_fast ship" oneway="0"/>
    <type id="highway.raceway" priority="15" speed="83.33" allow="vip" oneway="0"/>
    <type id="highway.residential" priority="3" speed="13.89" disallow="pedestrian tram rail_urban rail rail_electric rail_fast ship" oneway="0"/>
    <type id="highway.secondary" priority="11" speed="27.78" disallow="pedestrian tram rail_urban rail rail_electric rail_fast ship" oneway="0"/>
    <type id="highway.secondary_link" priority="6" speed="22.22" disallow="pedestrian tram rail_urban rail rail_electric rail_fast ship" oneway="0"/>
    <type id="highway.service" priority="1" speed="5.56" allow="pedestrian delivery bicycle" oneway="0"/>
    <type id="highway.stairs" priority="1" speed="1.39" allow="pedestrian" oneway="1" width="2.00"/>
    <type id="highway.step" priority="1" speed="1.39" allow="pedestrian" oneway="1" width="2.00"/>
    <type id="highway.steps" priority="1" speed="1.39" allow="pedestrian" oneway="1" width="2.00"/>
    <type id="highway.tertiary" priority="10" speed="22.22" disallow="pedestrian tram rail_urban rail rail_electric rail_fast ship" oneway="0"/>
    <type id="highway.tertiary_link" priority="5" speed="22.22" disallow="pedestrian tram rail_urban rail rail_electric rail_fast ship" oneway="0"/>
    <type id="highway.track" priority="1" speed="5.56" allow="pedestrian motorcycle moped bicycle" oneway="0"/>
    <type id="highway.trunk" priority="13" speed="27.78" disallow="pedestrian bicycle tram rail_urban rail rail_electric rail_fast ship" oneway="0"/>
    <type id="highway.trunk_link" priority="8" speed="22.22" disallow="pedestrian bicycle tram rail_urban rail rail_electric rail_fast ship" oneway="0"/>
    <type id="highway.unclassified" priority="4" speed="13.89" disallow="pedestrian tram rail_urban rail rail_electric rail_fast ship" oneway="0"/>
    <type id="highway.unsurfaced" priority="1" speed="8.33" disallow="tram rail_urban rail rail_electric rail_fast ship" oneway="0"/>
    <type id="railway.highspeed" priority="21" speed="69.44" allow="rail_fast" oneway="1"/>
    <type id="railway.light_rail" priority="19" speed="27.78" allow="rail_urban" oneway="1"/>
    <type id="railway.preserved" priority="16" speed="27.78" allow="rail" oneway="1"/>
    <type id="railway.rail" priority="20" speed="44.44" allow="rail" oneway="1"/>
    <type id="railway.subway" priority="18" speed="27.78" allow="rail_urban" oneway="1"/>
    <type id="railway.tram" priority="17" speed="13.89" allow="tram" oneway="1"/>

    <edge id=":137_0" function="internal">
        <lane id=":137_0_0" index="0" disallow="pedestrian tram rail_urban rail rail_electric rail_fast ship" speed="36.11" length="38.30" width="3.50" shape="-55.31,203.77 -69.63,209.82 -90.47,218.96"/>
    </edge>
    <edge id=":137_1" function="internal">
        <lane id=":137_1_0" index="0" disallow="pedestrian tram rail_urban rail rail_electric rail_fast ship" speed="12.21" length="34.52" width="3.50" shape="-55.31,203.77 -59.08,205.11 -61.66,205.75 -64.28,206.11 -66.93,206.14 -68.25,206.01 -69.55,205.78 -70.83,205.44 -72.08,204.98 -73.28,204.42 -74.43,203.75 -75.51,202.99 -77.48,201.22 -79.20,199.20 -80.67,197.00 -81.94,194.67 -83.04,192.22"/>
    </edge>
    <edge id=":137_2" function="internal">
        <lane id=":137_2_0" index="0" disallow="pedestrian tram rail_urban rail rail_electric rail_fast ship" speed="11.21" length="28.91" width="3.50" shape="-79.80,190.90 -78.84,193.03 -77.75,195.04 -76.50,196.91 -75.07,198.60 -73.43,200.07 -72.57,200.67 -71.65,201.20 -70.69,201.65 -69.70,202.02 -68.67,202.29 -67.61,202.48 -66.57,202.59 -64.34,202.56 -62.13,202.25 -59.95,201.71 -56.65,200.54"/>
    </edge>
    <edge id=":137_3" function="internal">
        <lane id=":137_3_0" index="0" disallow="pedestrian tram rail_urban rail rail_electric rail_fast ship" speed="12.34" length="34.18" width="3.50" shape="-79.80,190.90 -78.48,194.65 -77.85,197.20 -77.47,199.79 -77.39,202.42 -77.68,205.03 -77.97,206.31 -78.37,207.56 -78.88,208.77 -79.48,209.94 -80.18,211.05 -81.82,213.09 -83.74,214.89 -85.85,216.45 -88.11,217.79 -90.47,218.96"/>
    </edge>
    <edge id=":137_4" function="internal">
        <lane id=":137_4_0" index="0" disallow="pedestrian tram rail_urban rail rail_electric rail_fast ship" speed="11.35" length="28.75" width="3.50" shape="-91.92,215.77 -89.85,214.75 -87.91,213.60 -86.12,212.28 -84.53,210.78 -83.16,209.08 -82.62,208.20 -82.13,207.25 -81.73,206.28 -81.41,205.27 -81.18,204.26 -80.94,202.08 -81.01,199.89 -81.34,197.69 -81.88,195.51 -83.04,192.22"/>
    </edge>
    <edge id=":137_5" function="internal">
        <lane id=":137_5_0" index="0" disallow="pedestrian tram rail_urban rail rail_electric rail_fast ship" speed="36.11" length="38.42" width="3.50" shape="-91.92,215.77 -71.01,206.60 -56.65,200.54"/>
    </edge>
    <edge id=":138_0" function="internal">
        <lane id=":138_0_0" index="0" disallow="pedestrian tram rail_urban rail rail_electric rail_fast ship" speed="11.18" length="29.45" width="3.50" shape="-112.45,247.68 -112.82,246.62 -113.69,244.53 -114.72,242.58 -115.94,240.78 -117.39,239.17 -118.16,238.50 -119.00,237.87 -119.88,237.33 -120.81,236.86 -121.78,236.47 -122.78,236.17 -123.79,235.94 -125.95,235.71 -128.14,235.76 -130.34,236.05 -132.53,236.52 -135.80,237.53"/>
    </edge>
    <edge id=":138_1" function="internal">
        <lane id=":138_1_0" index="0" disallow="pedestrian tram rail_urban rail rail_electric rail_fast ship" speed="36.11" length="39.05" width="3.50" shape="-112.45,247.68 -114.87,240.94 -119.43,229.49 -127.06,211.48"/>
    </edge>
    <edge id=":138_2" function="internal">
        <lane id=":138_2_0" index="0" disallow="pedestrian tram rail_urban rail rail_electric rail_fast ship" speed="12.77" length="34.29" width="3.50" shape="-112.45,247.68 -112.83,246.46 -113.69,242.89 -114.02,240.39 -114.11,237.85 -113.89,235.29 -113.34,232.76 -112.42,230.33 -111.15,228.06 -109.57,226.00 -107.76,224.19 -105.78,222.61 -103.66,221.25 -100.36,219.55"/>
    </edge>
    <edge id=":138_3" function="internal">
        <lane id=":138_3_0" index="0" disallow="pedestrian tram rail_urban rail rail_electric rail_fast ship" speed="11.79" length="29.08" width="3.50" shape="-98.93,222.75 -101.81,224.22 -103.62,225.39 -105.30,226.73 -106.82,228.26 -108.13,229.97 -109.18,231.84 -109.94,233.86 -110.40,235.96 -110.57,238.11 -110.50,240.26 -110.21,242.40 -109.45,245.54 -109.13,246.57"/>
    </edge>
    <edge id=":138_4" function="internal">
        <lane id=":138_4_0" index="0" disallow="pedestrian tram rail_urban rail rail_electric rail_fast ship" speed="36.11" length="39.73" width="3.50" shape="-98.93,222.75 -111.41,228.14 -124.03,233.18 -135.80,237.53"/>
    </edge>
    <edge id=":138_5" function="internal">
        <lane id=":138_5_0" index="0" disallow="pedestrian tram rail_urban rail rail_electric rail_fast ship" speed="12.24" length="34.86" width="3.50" shape="-98.93,222.75 -102.54,224.15 -105.03,224.84 -107.58,225.27 -110.15,225.39 -111.44,225.32 -112.72,225.14 -113.98,224.86 -115.21,224.48 -116.41,223.99 -117.56,223.39 -118.65,222.71 -120.67,221.10 -122.44,219.23 -124.00,217.16 -125.35,214.96 -127.06,211.48"/>
    </edge>
    <edge id=":138_6" function="internal">
        <lane id=":138_6_0" index="0" disallow="pedestrian tram rail_urban rail rail_electric rail_fast ship" speed="11.24" length="29.24" width="3.50" shape="-123.85,210.09 -122.35,213.14 -121.20,215.02 -119.88,216.77 -118.41,218.33 -116.73,219.67 -115.87,220.21 -114.95,220.69 -113.99,221.08 -113.01,221.39 -111.99,221.62 -110.96,221.76 -109.94,221.83 -107.77,221.73 -105.63,221.36 -103.51,220.78 -100.36,219.55"/>
    </edge>
    <edge id=":138_7" function="internal">
        <lane id=":138_7_0" index="0" disallow="pedestrian tram rail_urban rail rail_electric rail_fast ship" speed="36.11" length="39.35" width="3.50" shape="-123.85,210.09 -116.17,228.20 -111.58,239.75 -109.13,246.57"/>
    </edge>
    <edge id=":138_8" function="internal">
        <lane id=":138_8_0" index="0" disallow="pedestrian tram rail_urban rail rail_electric rail_fast ship" speed="11.99" length="34.78" width="3.50" shape="-123.84,210.09 -122.49,213.71 -121.83,216.26 -121.43,218.89 -121.37,221.56 -121.50,222.96 -121.75,224.31 -122.12,225.65 -122.61,226.96 -123.23,228.21 -123.96,229.39 -124.79,230.49 -125.73,231.53 -127.72,233.30 -129.92,234.80 -132.24,236.05 -135.80,237.53"/>
    </edge>
    <edge id=":138_9" function="internal">
        <lane id=":138_9_0" index="0" disallow="pedestrian tram rail_urban rail rail_electric rail_fast ship" speed="10.98" length="28.94" width="3.50" shape="-136.98,234.23 -133.89,232.95 -131.93,231.90 -130.09,230.65 -128.43,229.17 -127.69,228.34 -127.02,227.45 -126.43,226.50 -125.94,225.51 -125.54,224.47 -125.24,223.39 -125.05,222.30 -124.94,221.19 -124.99,218.97 -125.32,216.77 -125.89,214.61 -127.06,211.48"/>
    </edge>
    <edge id=":138_10" function="internal">
        <lane id=":138_10_0" index="0" disallow="pedestrian tram rail_urban rail rail_electric rail_fast ship" speed="36.11" length="39.46" width="3.50" shape="-136.98,234.23 -125.29,229.91 -112.76,224.90 -100.36,219.55"/>
    </edge>
    <edge id=":138_11" function="internal">
        <lane id=":138_11_0" index="0" disallow="pedestrian tram rail_urban rail rail_electric rail_fast ship" speed="12.17" length="35.11" width="3.50" shape="-136.98,234.23 -133.25,233.09 -130.70,232.54 -128.12,232.22 -125.53,232.17 -122.94,232.45 -121.67,232.74 -120.43,233.12 -119.23,233.61 -118.07,234.20 -116.97,234.90 -115.93,235.68 -114.96,236.54 -113.23,238.48 -111.78,240.64 -110.56,242.94 -109.56,245.34 -109.13,246.57"/>
    </edge>
    <edge id=":139_0" function="internal">
        <lane id=":139_0_0" index="0" disallow="pedestrian tram rail_urban rail rail_electric rail_fast ship" speed="36.11" length="38.51" width="3.50" shape="-3.60,182.20 -21.40,189.63 -39.14,197.03"/>
    </edge>
    <edge id=":139_1" function="internal">
        <lane id=":139_1_0" index="0" disallow="pedestrian tram rail_urban rail rail_electric rail_fast ship" speed="12.89" length="34.69" width="3.50" shape="-3.60,182.20 -6.03,183.10 -8.51,183.78 -11.04,184.18 -13.61,184.27 -16.16,183.99 -18.64,183.35 -21.01,182.35 -23.21,181.02 -25.23,179.44 -27.07,177.65 -28.74,175.70 -30.96,172.55 -32.29,170.35"/>
    </edge>
    <edge id=":139_2" function="internal">
        <lane id=":139_2_0" index="0" disallow="pedestrian tram rail_urban rail rail_electric rail_fast ship" speed="11.94" length="29.58" width="3.50" shape="-29.25,168.60 -28.07,170.58 -26.10,173.37 -24.66,175.06 -23.09,176.61 -21.39,177.96 -19.56,179.08 -17.61,179.93 -15.57,180.48 -13.46,180.72 -11.32,180.66 -9.18,180.33 -7.06,179.76 -4.95,178.97"/>
    </edge>
    <edge id=":139_3" function="internal">
        <lane id=":139_3_0" index="0" disallow="pedestrian tram rail_urban rail rail_electric rail_fast ship" speed="11.85" length="35.44" width="3.50" shape="-29.25,168.60 -28.03,170.96 -26.98,173.39 -26.17,175.95 -25.65,178.60 -25.54,180.01 -25.54,181.42 -25.67,182.82 -25.94,184.22 -26.35,185.59 -26.89,186.91 -27.57,188.16 -28.35,189.33 -29.25,190.45 -31.19,192.35 -33.34,193.98 -35.63,195.36 -39.14,197.03"/>
    </edge>
    <edge id=":139_4" function="internal">
        <lane id=":139_4_0" index="0" disallow="pedestrian tram rail_urban rail rail_electric rail_fast ship" speed="10.83" length="29.41" width="3.50" shape="-40.52,193.82 -37.46,192.36 -35.52,191.19 -33.71,189.83 -32.10,188.25 -31.39,187.37 -30.76,186.43 -30.22,185.43 -29.79,184.39 -29.46,183.30 -29.25,182.19 -29.15,181.07 -29.14,179.94 -29.23,178.81 -29.66,176.59 -30.35,174.44 -31.24,172.36 -32.29,170.35"/>
    </edge>
    <edge id=":139_5" function="internal">
        <lane id=":139_5_0" index="0" disallow="pedestrian tram rail_urban rail rail_electric rail_fast ship" speed="36.11" length="38.55" width="3.50" shape="-40.52,193.82 -22.74,186.40 -4.95,178.97"/>
    </edge>
    <edge id=":140_0" function="internal">
        <lane id=":140_0_0" index="0" disallow="pedestrian tram rail_urban rail rail_electric rail_fast ship" speed="11.02" length="28.60" width="3.50" shape="-121.18,98.86 -122.57,95.89 -123.70,94.00 -125.01,92.24 -126.53,90.65 -127.38,89.94 -128.28,89.30 -129.23,88.75 -130.23,88.28 -131.26,87.91 -132.33,87.63 -133.41,87.45 -134.51,87.36 -136.71,87.44 -138.88,87.80 -141.00,88.38 -144.08,89.59"/>
    </edge>
    <edge id=":140_1" function="internal">
        <lane id=":140_1_0" index="0" disallow="pedestrian tram rail_urban rail rail_electric rail_fast ship" speed="36.11" length="39.15" width="3.50" shape="-121.18,98.86 -126.80,85.61 -132.78,72.48 -137.27,63.18"/>
    </edge>
    <edge id=":140_2" function="internal">
        <lane id=":140_2_0" index="0" disallow="pedestrian tram rail_urban rail rail_electric rail_fast ship" speed="11.99" length="34.61" width="3.50" shape="-121.18,98.86 -122.43,95.25 -123.04,92.69 -123.36,90.05 -123.34,87.39 -123.17,86.00 -122.88,84.65 -122.47,83.33 -121.94,82.05 -121.28,80.82 -120.52,79.67 -119.66,78.60 -118.70,77.59 -116.68,75.87 -114.46,74.43 -112.14,73.23 -108.57,71.81"/>
    </edge>
    <edge id=":140_3" function="internal">
        <lane id=":140_3_0" index="0" disallow="pedestrian tram rail_urban rail rail_electric rail_fast ship" speed="10.97" length="28.79" width="3.50" shape="-107.44,75.13 -110.53,76.35 -112.50,77.37 -114.36,78.57 -116.06,80.01 -116.82,80.81 -117.51,81.68 -118.13,82.60 -118.65,83.58 -119.08,84.60 -119.41,85.66 -119.64,86.74 -119.78,87.84 -119.80,90.06 -119.53,92.26 -119.02,94.42 -117.94,97.53"/>
    </edge>
    <edge id=":140_4" function="internal">
        <lane id=":140_4_0" index="0" disallow="pedestrian tram rail_urban rail rail_electric rail_fast ship" speed="36.11" length="39.41" width="3.50" shape="-107.44,75.13 -119.16,79.30 -130.75,83.84 -141.24,88.31 -144.08,89.59"/>
    </edge>
    <edge id=":140_5" function="internal">
        <lane id=":140_5_0" index="0" disallow="pedestrian tram rail_urban rail rail_electric rail_fast ship" speed="13.13" length="35.84" width="3.50" shape="-107.44,75.13 -111.00,76.16 -114.64,76.81 -117.11,76.99 -119.58,76.91 -122.02,76.55 -124.40,75.89 -126.67,74.92 -128.79,73.65 -130.73,72.13 -132.49,70.39 -134.06,68.48 -136.09,65.38 -137.27,63.18"/>
    </edge>
    <edge id=":140_6" function="internal">
        <lane id=":140_6_0" index="0" disallow="pedestrian tram rail_urban rail rail_electric rail_fast ship" speed="12.19" length="30.75" width="3.50" shape="-134.13,61.63 -133.11,63.56 -131.31,66.29 -129.97,67.91 -128.48,69.39 -126.84,70.68 -125.06,71.73 -123.17,72.54 -121.18,73.09 -119.12,73.39 -117.01,73.45 -114.91,73.30 -111.70,72.72 -108.57,71.81"/>
    </edge>
    <edge id=":140_7" function="internal">
        <lane id=":140_7_0" index="0" disallow="pedestrian tram rail_urban rail rail_electric rail_fast ship" speed="36.11" length="39.39" width="3.50" shape="-134.13,61.63 -129.61,70.99 -123.59,84.20 -117.94,97.53"/>
    </edge>
    <edge id=":140_8" function="internal">
        <lane id=":140_8_0" index="0" disallow="pedestrian tram rail_urban rail rail_electric rail_fast ship" speed="12.06" length="34.32" width="3.50" shape="-134.13,61.63 -132.55,65.28 -131.76,67.80 -131.22,70.38 -131.02,73.01 -131.07,74.33 -131.23,75.64 -131.50,76.93 -131.88,78.19 -132.38,79.41 -132.99,80.58 -133.70,81.70 -134.49,82.75 -136.31,84.66 -138.36,86.32 -140.57,87.77 -144.08,89.59"/>
    </edge>
    <edge id=":140_9" function="internal">
        <lane id=":140_9_0" index="0" disallow="pedestrian tram rail_urban rail rail_electric rail_fast ship" speed="11.04" length="28.61" width="3.50" shape="-145.53,86.40 -142.47,84.82 -140.60,83.60 -138.88,82.20 -137.36,80.60 -136.74,79.78 -136.17,78.88 -135.68,77.95 -135.29,76.98 -134.98,75.98 -134.77,74.95 -134.64,73.90 -134.60,72.86 -134.77,70.66 -135.22,68.49 -135.89,66.36 -137.27,63.18"/>
    </edge>
    <edge id=":140_10" function="internal">
        <lane id=":140_10_0" index="0" disallow="pedestrian tram rail_urban rail rail_electric rail_fast ship" speed="36.11" length="39.75" width="3.50" shape="-145.53,86.40 -142.66,85.11 -132.08,80.60 -120.39,76.02 -108.57,71.81"/>
    </edge>
    <edge id=":140_11" function="internal">
        <lane id=":140_11_0" index="0" disallow="pedestrian tram rail_urban rail rail_electric rail_fast ship" speed="12.04" length="34.32" width="3.50" shape="-145.53,86.40 -141.97,85.01 -139.45,84.31 -136.86,83.88 -134.22,83.79 -132.84,83.90 -131.49,84.12 -130.16,84.47 -128.87,84.93 -127.63,85.51 -126.44,86.20 -125.33,86.98 -124.27,87.87 -122.45,89.77 -120.88,91.87 -119.55,94.11 -117.94,97.53"/>
    </edge>
    <edge id=":141_0" function="internal">
        <lane id=":141_0_0" index="0" disallow="pedestrian tram rail_urban rail rail_electric rail_fast ship" speed="11.18" length="28.58" width="3.50" shape="-167.00,119.24 -167.99,117.15 -169.11,115.18 -170.38,113.36 -171.83,111.72 -173.49,110.30 -174.34,109.73 -175.26,109.22 -176.22,108.79 -177.21,108.45 -178.23,108.19 -179.28,108.02 -180.31,107.93 -182.51,107.99 -184.69,108.32 -186.85,108.88 -190.08,110.09"/>
    </edge>
    <edge id=":141_1" function="internal">
        <lane id=":141_1_0" index="0" disallow="pedestrian tram rail_urban rail rail_electric rail_fast ship" speed="12.28" length="34.25" width="3.50" shape="-167.00,119.24 -168.39,115.51 -169.06,112.96 -169.46,110.36 -169.53,107.73 -169.43,106.42 -169.22,105.12 -168.91,103.84 -168.49,102.59 -167.96,101.39 -167.33,100.23 -166.61,99.13 -164.93,97.11 -162.99,95.33 -160.86,93.78 -158.60,92.44 -156.24,91.27"/>
    </edge>
    <edge id=":141_2" function="internal">
        <lane id=":141_2_0" index="0" disallow="pedestrian tram rail_urban rail rail_electric rail_fast ship" speed="11.28" length="28.76" width="3.50" shape="-154.77,94.45 -156.85,95.47 -158.80,96.63 -160.61,97.95 -162.23,99.43 -163.64,101.12 -164.20,101.99 -164.71,102.92 -165.13,103.89 -165.47,104.89 -165.72,105.92 -165.89,106.98 -165.97,108.02 -165.91,110.23 -165.57,112.42 -165.01,114.59 -163.79,117.85"/>
    </edge>
    <edge id=":141_3" function="internal">
        <lane id=":141_3_0" index="0" disallow="pedestrian tram rail_urban rail rail_electric rail_fast ship" speed="36.11" length="38.62" width="3.50" shape="-154.77,94.45 -164.30,98.75 -190.08,110.09"/>
    </edge>
    <edge id=":141_4" function="internal">
        <lane id=":141_4_0" index="0" disallow="pedestrian tram rail_urban rail rail_electric rail_fast ship" speed="36.11" length="38.53" width="3.50" shape="-191.47,106.87 -165.73,95.55 -156.24,91.27"/>
    </edge>
    <edge id=":141_5" function="internal">
        <lane id=":141_5_0" index="0" disallow="pedestrian tram rail_urban rail rail_electric rail_fast ship" speed="12.18" length="34.16" width="3.50" shape="-191.47,106.87 -187.76,105.49 -185.22,104.83 -182.63,104.44 -180.00,104.37 -178.70,104.48 -177.40,104.69 -176.13,105.01 -174.89,105.44 -173.70,105.98 -172.55,106.62 -171.46,107.35 -169.47,109.06 -167.73,111.02 -166.23,113.17 -164.93,115.45 -163.79,117.85"/>
    </edge>
    <edge id=":142_0" function="internal">
        <lane id=":142_0_0" index="0" disallow="pedestrian tram rail_urban rail rail_electric rail_fast ship" speed="36.11" length="37.61" width="3.50" shape="-150.90,242.90 -152.87,243.61 -163.62,247.69 -174.24,252.09 -185.65,257.24"/>
    </edge>
    <edge id=":142_1" function="internal">
        <lane id=":142_1_0" index="0" disallow="pedestrian tram rail_urban rail rail_electric rail_fast ship" speed="12.47" length="33.95" width="3.50" shape="-150.90,242.90 -153.41,243.69 -155.95,244.28 -158.54,244.61 -161.15,244.65 -163.74,244.33 -165.01,244.02 -166.25,243.62 -167.45,243.12 -168.61,242.52 -170.77,241.05 -172.71,239.30 -174.40,237.32 -175.89,235.17 -177.18,232.90 -178.30,230.54"/>
    </edge>
    <edge id=":142_2" function="internal">
        <lane id=":142_2_0" index="0" disallow="pedestrian tram rail_urban rail rail_electric rail_fast ship" speed="11.49" length="28.64" width="3.50" shape="-175.10,229.14 -174.11,231.20 -173.00,233.17 -171.73,235.02 -170.30,236.69 -168.70,238.16 -166.89,239.37 -165.98,239.85 -165.00,240.26 -164.00,240.59 -162.99,240.83 -160.83,241.11 -158.64,241.08 -156.45,240.80 -154.26,240.30 -152.07,239.60"/>
    </edge>
    <edge id=":142_3" function="internal">
        <lane id=":142_3_0" index="0" disallow="pedestrian tram rail_urban rail rail_electric rail_fast ship" speed="12.30" length="34.14" width="3.50" shape="-175.10,229.14 -174.16,231.51 -173.39,233.96 -172.85,236.50 -172.60,239.12 -172.69,241.76 -172.90,243.12 -173.21,244.44 -173.63,245.73 -174.17,246.98 -174.80,248.18 -175.53,249.32 -176.36,250.41 -178.15,252.32 -180.16,254.00 -182.31,255.45 -185.65,257.24"/>
    </edge>
    <edge id=":142_4" function="internal">
        <lane id=":142_4_0" index="0" disallow="pedestrian tram rail_urban rail rail_electric rail_fast ship" speed="11.30" length="28.67" width="3.50" shape="-187.15,254.08 -184.24,252.52 -182.41,251.29 -180.72,249.87 -179.21,248.26 -178.54,247.38 -177.95,246.46 -177.43,245.48 -177.00,244.47 -176.66,243.42 -176.40,242.34 -176.24,241.25 -176.16,239.05 -176.37,236.86 -176.83,234.70 -177.49,232.59 -178.30,230.54"/>
    </edge>
    <edge id=":142_5" function="internal">
        <lane id=":142_5_0" index="0" disallow="pedestrian tram rail_urban rail rail_electric rail_fast ship" speed="36.11" length="37.96" width="3.50" shape="-187.15,254.08 -175.62,248.88 -164.91,244.44 -154.08,240.32 -152.07,239.60"/>
    </edge>
    <edge id=":143_0" function="internal">
        <lane id=":143_0_0" index="0" disallow="pedestrian tram rail_urban rail rail_electric rail_fast ship" speed="36.11" length="39.14" width="3.50" shape="-212.35,269.77 -237.61,281.41 -247.94,286.05"/>
    </edge>
    <edge id=":143_1" function="internal">
        <lane id=":143_1_0" index="0" disallow="pedestrian tram rail_urban rail rail_electric rail_fast ship" speed="12.07" length="34.36" width="3.50" shape="-212.35,269.77 -216.04,271.28 -218.58,272.02 -221.17,272.50 -223.80,272.64 -225.12,272.57 -226.43,272.38 -227.71,272.08 -228.96,271.67 -230.17,271.14 -231.33,270.51 -232.43,269.78 -233.46,268.96 -235.33,267.10 -236.95,265.02 -238.35,262.78 -240.11,259.20"/>
    </edge>
    <edge id=":143_2" function="internal">
        <lane id=":143_2_0" index="0" disallow="pedestrian tram rail_urban rail rail_electric rail_fast ship" speed="11.05" length="28.64" width="3.50" shape="-236.89,257.82 -235.36,260.94 -234.18,262.84 -232.82,264.59 -231.25,266.14 -230.44,266.78 -229.56,267.37 -228.64,267.87 -227.68,268.29 -226.68,268.62 -225.66,268.86 -224.61,269.00 -223.57,269.07 -221.37,268.95 -219.20,268.55 -217.05,267.92 -213.84,266.60"/>
    </edge>
    <edge id=":143_3" function="internal">
        <lane id=":143_3_0" index="0" disallow="pedestrian tram rail_urban rail rail_electric rail_fast ship" speed="12.33" length="34.67" width="3.50" shape="-236.89,257.82 -235.54,261.46 -234.88,263.94 -234.47,266.47 -234.36,269.04 -234.60,271.59 -234.87,272.84 -235.24,274.07 -235.71,275.27 -236.27,276.42 -237.67,278.57 -239.38,280.48 -241.31,282.17 -243.41,283.64 -246.78,285.50 -247.94,286.05"/>
    </edge>
    <edge id=":143_4" function="internal">
        <lane id=":143_4_0" index="0" disallow="pedestrian tram rail_urban rail rail_electric rail_fast ship" speed="11.34" length="29.15" width="3.50" shape="-249.38,282.85 -248.38,282.39 -245.41,280.76 -243.64,279.51 -242.01,278.10 -240.61,276.51 -239.45,274.74 -239.01,273.84 -238.63,272.88 -238.33,271.88 -238.12,270.90 -237.92,268.78 -238.01,266.64 -238.36,264.50 -238.92,262.39 -240.11,259.20"/>
    </edge>
    <edge id=":143_5" function="internal">
        <lane id=":143_5_0" index="0" disallow="pedestrian tram rail_urban rail rail_electric rail_fast ship" speed="36.11" length="39.08" width="3.50" shape="-249.38,282.85 -239.06,278.22 -213.84,266.60"/>
    </edge>
    <edge id=":144_0" function="internal">
        <lane id=":144_0_0" index="0" disallow="pedestrian tram rail_urban rail rail_electric rail_fast ship" speed="9.56" length="19.91" width="3.49" shape="-217.48,140.98 -219.35,136.98 -220.88,134.09 -222.59,131.33 -223.84,129.65 -225.22,128.13 -225.93,127.52 -226.67,127.00 -227.40,126.62 -228.10,126.40 -228.74,126.35 -229.52,126.51"/>
    </edge>
    <edge id=":144_1" function="internal">
        <lane id=":144_1_0" index="0" disallow="pedestrian tram rail_urban rail rail_electric rail_fast ship" speed="12.15" length="34.13" width="3.50" shape="-217.48,140.98 -218.82,137.42 -219.48,134.90 -219.87,132.31 -219.93,129.69 -219.81,128.32 -219.58,126.99 -219.24,125.67 -218.78,124.39 -218.21,123.15 -217.53,121.97 -216.77,120.86 -215.90,119.80 -214.04,117.96 -211.98,116.36 -209.78,114.99 -206.40,113.31"/>
    </edge>
    <edge id=":144_2" function="internal">
        <lane id=":144_2_0" index="0" disallow="pedestrian tram rail_urban rail rail_electric rail_fast ship" speed="11.15" length="28.55" width="3.50" shape="-204.99,116.52 -207.94,117.97 -209.81,119.14 -211.54,120.48 -213.11,122.02 -213.80,122.88 -214.42,123.78 -214.97,124.73 -215.43,125.73 -215.80,126.76 -216.08,127.83 -216.27,128.91 -216.36,130.00 -216.32,132.20 -215.99,134.37 -215.44,136.49 -214.28,139.58"/>
    </edge>
    <edge id=":144_3" function="internal">
        <lane id=":144_3_0" index="0" disallow="pedestrian tram rail_urban rail rail_electric rail_fast ship" speed="36.11" length="26.49" width="3.49" shape="-204.99,116.52 -220.55,123.08 -228.43,126.13 -229.52,126.51"/>
    </edge>
    <edge id=":144_4" function="internal">
        <lane id=":144_4_0" index="0" disallow="pedestrian tram rail_urban rail rail_electric rail_fast ship" speed="36.11" length="26.29" width="3.50" shape="-230.74,123.24 -229.61,122.84 -221.82,119.82 -206.40,113.31"/>
    </edge>
    <edge id=":144_5" function="internal">
        <lane id=":144_5_0" index="0" disallow="pedestrian tram rail_urban rail rail_electric rail_fast ship" speed="10.74" length="25.20" width="3.50" shape="-230.74,123.24 -229.34,122.89 -228.09,122.86 -226.86,123.09 -225.70,123.55 -224.62,124.17 -223.62,124.92 -221.83,126.67 -220.26,128.62 -218.21,131.76 -216.41,135.05 -214.28,139.58"/>
    </edge>
    <edge id=":145_0" function="internal">
        <lane id=":145_0_0" index="0" disallow="pedestrian tram rail_urban rail rail_electric rail_fast ship" speed="36.11" length="26.75" width="3.50" shape="35.73,164.20 17.65,173.15 11.65,175.83"/>
    </edge>
    <edge id=":145_1" function="internal">