<routes>
	<vehicle depart="0.1" departLane="0" departPos="18.45092672087708" departSpeed="9.1506747" id="35" type="passenger">
		<route edges=":150_1 47761"/>
	</vehicle>
	<vehicle depart="0.1" departLane="0" departPos="10.914588096810254" departSpeed="0.65300042" id="39" type="passenger">
		<route edges=":154_2 47930"/>
	</vehicle>
	<vehicle depart="0.1" departLane="0" departPos="6.774956556313254" departSpeed="1.2217843" id="322" type="passenger">
		<route edges="47928 47931"/>
	</vehicle>
	<vehicle depart="0.1" departLane="0" departPos="7.55334080378444" departSpeed="3.4168047" id="328" type="passenger">
		<route edges=":150_3 47928"/>
	</vehicle>
	<vehicle depart="0.1" departLane="0" departPos="72.49999989573766" departSpeed="1.1651861" id="332" type="passenger">
		<route edges="47762 47924 48129"/>
	</vehicle>
	<vehicle depart="0.1" departLane="0" departPos="94.14118217770667" departSpeed="10.940463" id="346" type="passenger">
		<route edges="47991 47931 47942"/>
	</vehicle>
	<vehicle depart="0.1" departLane="0" departPos="64.6772439910138" departSpeed="14.254811" id="352" type="passenger">
		<route edges="47991 47931"/>
	</vehicle>
	<vehicle depart="0.1" departLane="0" departPos="68.39219652204224" departSpeed="15.74966" id="36" type="motorcycle">
		<route edges="48128 47925 47928"/>
	</vehicle>
	<vehicle depart="0.1" departLane="0" departPos="25.387851676279315" departSpeed="0.14361621" id="32" type="truck">
		<route edges=":154_3 47930 47927"/>
	</vehicle>
</routes>
