<!-- generated on Tue Feb  9 22:00:43 2021 by Eclipse SUMO netconvert Version 1.8.0
<configuration xmlns:xsi="http://www.w3.org/2001/XMLSchema-instance" xsi:noNamespaceSchemaLocation="http://sumo.dlr.de/xsd/netconvertConfiguration.xsd">

    <input>
        <node-files value="./converted_scenarios/scenario-factory/ITA_Foggia-12_1_I-1-1/ITA_Foggia-12_1_I-1-1.nod.xml"/>
        <edge-files value="./converted_scenarios/scenario-factory/ITA_Foggia-12_1_I-1-1/ITA_Foggia-12_1_I-1-1.edg.xml"/>
        <connection-files value="./converted_scenarios/scenario-factory/ITA_Foggia-12_1_I-1-1/ITA_Foggia-12_1_I-1-1.con.xml"/>
        <tllogic-files value="./converted_scenarios/scenario-factory/ITA_Foggia-12_1_I-1-1/ITA_Foggia-12_1_I-1-1.tll.xml"/>
        <type-files value="/home/zen/commonroad-interactive-benchmarks/install/commonroad-map-tool/crmapconverter/sumo_map/templates/DEU.typ.xml"/>
    </input>

    <output>
        <output-file value="./converted_scenarios/scenario-factory/ITA_Foggia-12_1_I-1-1/ITA_Foggia-12_1_I-1-1.net.xml"/>
    </output>

    <processing>
        <geometry.remove.keep-edges.explicit value="true"/>
        <geometry.avoid-overlap value="true"/>
        <offset.disable-normalization value="true"/>
    </processing>

    <junctions>
        <no-turnarounds value="true"/>
        <junctions.internal-link-detail value="20"/>
    </junctions>

    <report>
        <aggregate-warnings value="5"/>
    </report>

    <random_number>
        <seed value="1234"/>
    </random_number>

</configuration>
--><net xmlns:xsi="http://www.w3.org/2001/XMLSchema-instance" version="1.6" junctionCornerDetail="5" junctionLinkDetail="20" limitTurnSpeed="5.50" xsi:noNamespaceSchemaLocation="http://sumo.dlr.de/xsd/net_file.xsd">

    <location netOffset="0.00,0.00" convBoundary="624.11,815.12,782.16,989.63" origBoundary="624.11,815.12,782.16,989.63" projParameter="!"/>

    <type id="highway.bridleway" priority="1" speed="2.78" allow="pedestrian" oneway="1" width="2.00"/>
    <type id="highway.bus_guideway" priority="1" speed="27.78" allow="bus" oneway="1"/>
    <type id="highway.cycleway" priority="1" speed="8.33" allow="bicycle" oneway="0" width="1.00"/>
    <type id="highway.footway" priority="1" speed="2.78" allow="pedestrian" oneway="1" width="2.00"/>
    <type id="highway.ford" priority="1" speed="2.78" allow="army" oneway="0"/>
    <type id="highway.living_street" priority="2" speed="2.78" disallow="tram rail_urban rail rail_electric rail_fast ship" oneway="0"/>
    <type id="highway.motorway" priority="14" speed="39.44" allow="private emergency authority army vip passenger hov taxi bus coach delivery truck trailer motorcycle evehicle custom1 custom2" oneway="1"/>
    <type id="highway.motorway_link" priority="9" speed="22.22" allow="private emergency authority army vip passenger hov taxi bus coach delivery truck trailer motorcycle evehicle custom1 custom2" oneway="1"/>
    <type id="highway.path" priority="1" speed="2.78" allow="pedestrian bicycle" oneway="0" width="2.00"/>
    <type id="highway.pedestrian" priority="1" speed="2.78" allow="pedestrian" oneway="1" width="2.00"/>
    <type id="highway.primary" priority="12" speed="27.78" disallow="pedestrian tram rail_urban rail rail_electric rail_fast ship" oneway="0"/>
    <type id="highway.primary_link" priority="7" speed="22.22" disallow="pedestrian tram rail_urban rail rail_electric rail_fast ship" oneway="0"/>
    <type id="highway.raceway" priority="15" speed="83.33" allow="vip" oneway="0"/>
    <type id="highway.residential" priority="3" speed="13.89" disallow="pedestrian tram rail_urban rail rail_electric rail_fast ship" oneway="0"/>
    <type id="highway.secondary" priority="11" speed="27.78" disallow="pedestrian tram rail_urban rail rail_electric rail_fast ship" oneway="0"/>
    <type id="highway.secondary_link" priority="6" speed="22.22" disallow="pedestrian tram rail_urban rail rail_electric rail_fast ship" oneway="0"/>
    <type id="highway.service" priority="1" speed="5.56" allow="pedestrian delivery bicycle" oneway="0"/>
    <type id="highway.stairs" priority="1" speed="1.39" allow="pedestrian" oneway="1" width="2.00"/>
    <type id="highway.step" priority="1" speed="1.39" allow="pedestrian" oneway="1" width="2.00"/>
    <type id="highway.steps" priority="1" speed="1.39" allow="pedestrian" oneway="1" width="2.00"/>
    <type id="highway.tertiary" priority="10" speed="22.22" disallow="pedestrian tram rail_urban rail rail_electric rail_fast ship" oneway="0"/>
    <type id="highway.tertiary_link" priority="5" speed="22.22" disallow="pedestrian tram rail_urban rail rail_electric rail_fast ship" oneway="0"/>
    <type id="highway.track" priority="1" speed="5.56" allow="pedestrian motorcycle moped bicycle" oneway="0"/>
    <type id="highway.trunk" priority="13" speed="27.78" disallow="pedestrian bicycle tram rail_urban rail rail_electric rail_fast ship" oneway="0"/>
    <type id="highway.trunk_link" priority="8" speed="22.22" disallow="pedestrian bicycle tram rail_urban rail rail_electric rail_fast ship" oneway="0"/>
    <type id="highway.unclassified" priority="4" speed="13.89" disallow="pedestrian tram rail_urban rail rail_electric rail_fast ship" oneway="0"/>
    <type id="highway.unsurfaced" priority="1" speed="8.33" disallow="tram rail_urban rail rail_electric rail_fast ship" oneway="0"/>
    <type id="railway.highspeed" priority="21" speed="69.44" allow="rail_fast" oneway="1"/>
    <type id="railway.light_rail" priority="19" speed="27.78" allow="rail_urban" oneway="1"/>
    <type id="railway.preserved" priority="16" speed="27.78" allow="rail" oneway="1"/>
    <type id="railway.rail" priority="20" speed="44.44" allow="rail" oneway="1"/>
    <type id="railway.subway" priority="18" speed="27.78" allow="rail_urban" oneway="1"/>
    <type id="railway.tram" priority="17" speed="13.89" allow="tram" oneway="1"/>

    <edge id=":19_0" function="internal">
        <lane id=":19_0_0" index="0" disallow="pedestrian tram rail_urban rail rail_electric rail_fast ship" speed="36.11" length="2.28" width="3.50" shape="707.42,965.65 708.56,963.68"/>
        <lane id=":19_0_1" index="1" disallow="pedestrian tram rail_urban rail rail_electric rail_fast ship" speed="36.11" length="2.29" width="3.50" shape="710.46,967.40 711.60,965.41"/>
    </edge>
    <edge id=":40_0" function="internal">
        <lane id=":40_0_0" index="0" disallow="pedestrian tram rail_urban rail rail_electric rail_fast ship" speed="27.03" length="36.20" width="3.50" shape="711.25,927.60 710.32,923.57 709.11,919.61 707.62,915.75 705.89,911.99 703.92,908.36 701.15,903.98 698.09,899.81 694.78,895.85"/>
    </edge>
    <edge id=":40_1" function="internal">
        <lane id=":40_1_0" index="0" disallow="pedestrian tram rail_urban rail rail_electric rail_fast ship" speed="23.96" length="34.84" width="3.48" shape="697.39,893.52 707.93,905.13 714.96,912.41 719.39,916.56 721.72,918.40"/>
    </edge>
    <edge id=":40_2" function="internal">
        <lane id=":40_2_0" index="0" disallow="pedestrian tram rail_urban rail rail_electric rail_fast ship" speed="27.81" length="38.04" width="3.50" shape="697.39,893.52 700.86,897.68 704.07,902.05 706.97,906.64 709.04,910.47 710.87,914.43 712.42,918.51 713.70,922.68 714.68,926.90"/>
    </edge>
    <edge id=":41_0" function="internal">
        <lane id=":41_0_0" index="0" disallow="pedestrian tram rail_urban rail rail_electric rail_fast ship" speed="7.66" length="15.42" width="3.50" shape="646.97,842.53 645.25,840.73 643.46,839.06 641.55,837.57 640.61,836.97 639.63,836.48 638.67,836.14 637.78,836.00 637.04,836.08 636.41,836.33 635.79,836.81 634.80,838.22"/>
    </edge>
    <edge id=":41_1" function="internal">
        <lane id=":41_1_0" index="0" disallow="pedestrian tram rail_urban rail rail_electric rail_fast ship" speed="36.11" length="28.67" width="3.50" shape="646.97,842.53 637.30,831.94 627.64,821.36"/>
    </edge>
    <edge id=":41_2" function="internal">
        <lane id=":41_2_0" index="0" disallow="pedestrian tram rail_urban rail rail_electric rail_fast ship" speed="36.11" length="28.66" width="3.50" shape="630.22,819.00 639.89,829.58 649.55,840.16"/>
    </edge>
    <edge id=":41_3" function="internal">
        <lane id=":41_3_0" index="0" disallow="pedestrian tram rail_urban rail rail_electric rail_fast ship" speed="9.06" length="22.17" width="3.50" shape="631.76,836.48 633.16,834.47 634.27,833.43 635.59,832.68 637.06,832.34 638.57,832.39 640.04,832.77 641.43,833.37 642.75,834.13 645.19,835.93 647.44,837.97 649.55,840.16"/>
    </edge>
    <edge id=":42_0" function="internal">
        <lane id=":42_0_0" index="0" disallow="pedestrian tram rail_urban rail rail_electric rail_fast ship" speed="36.11" length="27.27" width="3.50" shape="778.65,852.51 769.04,869.23 765.06,876.15"/>
    </edge>
    <edge id=":42_1" function="internal">
        <lane id=":42_1_0" index="0" disallow="pedestrian tram rail_urban rail rail_electric rail_fast ship" speed="16.63" length="30.40" width="3.50" shape="778.64,852.53 778.43,852.76 778.08,853.01 777.58,853.27 776.92,853.55 776.12,853.84 775.17,854.15 774.07,854.47 772.82,854.80 771.42,855.16 769.87,855.52 768.17,855.91 766.32,856.30 764.32,856.72 762.18,857.14 759.88,857.59 757.43,858.04 754.84,858.52 752.09,859.00 749.20,859.51"/>
    </edge>
    <edge id=":42_2" function="internal">
        <lane id=":42_2_0" index="0" disallow="pedestrian tram rail_urban rail rail_electric rail_fast ship" speed="12.10" length="32.77" width="3.50" shape="747.62,855.28 754.17,858.57 756.26,859.32 758.40,859.87 760.59,860.17 762.80,860.18 763.90,860.06 764.98,859.84 766.05,859.54 767.08,859.14 768.08,858.66 769.94,857.48 771.62,856.04 773.12,854.41 774.44,852.64 775.61,850.76"/>
    </edge>
    <edge id=":42_3" function="internal">
        <lane id=":42_3_0" index="0" disallow="pedestrian tram rail_urban rail rail_electric rail_fast ship" speed="10.73" length="26.93" width="3.50" shape="747.62,855.28 754.46,859.14 756.56,860.71 758.50,862.50 760.20,864.53 760.97,865.69 761.63,866.89 762.19,868.15 762.62,869.46 762.94,870.80 763.13,872.16 763.21,873.53 763.16,874.92 763.14,875.05"/>
    </edge>
    <edge id=":42_4" function="internal">
        <lane id=":42_4_0" index="0" disallow="pedestrian tram rail_urban rail rail_electric rail_fast ship" speed="9.85" length="21.61" width="3.50" shape="762.01,874.41 762.26,873.87 762.40,873.31 762.43,872.72 762.35,872.10 762.17,871.45 761.87,870.78 761.48,870.08 760.97,869.35 760.35,868.59 759.63,867.81 758.80,867.00 757.87,866.16 756.82,865.29 755.67,864.40 754.41,863.48 753.05,862.53 751.57,861.55 749.99,860.55 748.30,859.51"/>
    </edge>
    <edge id=":42_5" function="internal">
        <lane id=":42_5_0" index="0" disallow="pedestrian tram rail_urban rail rail_electric rail_fast ship" speed="36.11" length="27.28" width="3.50" shape="762.02,874.41 766.00,867.49 775.61,850.76"/>
    </edge>
    <edge id=":44_0" function="internal">
        <lane id=":44_0_0" index="0" disallow="pedestrian tram rail_urban rail rail_electric rail_fast ship" speed="36.11" length="23.13" width="3.50" shape="747.22,907.23 744.85,911.79 739.39,923.99 737.22,928.07"/>
        <lane id=":44_0_1" index="1" disallow="pedestrian tram rail_urban rail rail_electric rail_fast ship" speed="36.11" length="23.16" width="3.50" shape="747.22,907.23 746.66,908.18 744.34,911.78 736.95,921.99 734.17,926.35"/>
    </edge>
    <edge id=":44_2" function="internal">
        <lane id=":44_2_0" index="0" disallow="pedestrian tram rail_urban rail rail_electric rail_fast ship" speed="13.02" length="23.16" width="3.50" shape="728.12,919.58 734.22,919.17 735.08,918.61 736.54,917.14 738.73,914.27 742.09,909.05 744.18,905.49"/>
    </edge>
    <edge id=":44_3" function="internal">
        <lane id=":44_3_0" index="0" disallow="pedestrian tram rail_urban rail rail_electric rail_fast ship" speed="7.83" length="19.00" width="3.50" shape="728.12,919.58 735.95,919.32 737.41,919.64 738.07,919.97 738.64,920.45 739.04,921.08 739.25,921.79 739.29,922.53 739.05,924.00 738.26,926.09 737.22,928.07"/>
    </edge>
    <edge id=":44_4" function="internal">
        <lane id=":44_4_0" index="0" disallow="pedestrian tram rail_urban rail rail_electric rail_fast ship" speed="36.11" length="23.11" width="3.50" shape="731.16,924.57 733.99,920.13 741.38,909.93 743.65,906.39 744.18,905.49"/>
    </edge>
    <edge id=":45_0" function="internal">
        <lane id=":45_0_0" index="0" disallow="pedestrian tram rail_urban rail rail_electric rail_fast ship" speed="36.11" length="28.23" width="3.50" shape="728.48,943.13 720.94,956.21 714.39,967.59"/>
    </edge>
    <edge id=":45_1" function="internal">
        <lane id=":45_1_0" index="0" disallow="pedestrian tram rail_urban rail rail_electric rail_fast ship" speed="8.15" length="24.66" width="3.50" shape="725.45,941.38 722.52,946.14 720.81,948.28 719.44,949.48 718.65,949.93 717.76,950.14 716.88,949.98 716.13,949.46 715.56,948.75 714.76,947.11 714.00,944.48 713.11,939.15"/>
    </edge>
    <edge id=":45_2" function="internal">
        <lane id=":45_2_0" index="0" disallow="pedestrian tram rail_urban rail rail_electric rail_fast ship" speed="20.17" length="29.71" width="3.50" shape="716.56,938.56 717.73,946.77 717.98,950.95 717.89,955.13 717.45,958.76 716.77,961.82 715.75,964.78 714.63,967.14 714.39,967.59"/>
    </edge>
    <edge id=":45_3" function="internal">
        <lane id=":45_3_0" index="0" disallow="pedestrian tram rail_urban rail rail_electric rail_fast ship" speed="18.82" length="26.13" width="3.50" shape="708.29,964.15 710.47,959.95 712.07,956.08 713.13,952.57 713.72,949.48 713.93,946.87 713.85,944.25 713.11,939.15"/>
    </edge>
    <edge id=":45_4" function="internal">
        <lane id=":45_4_0" index="0" disallow="pedestrian tram rail_urban rail rail_electric rail_fast ship" speed="36.11" length="28.53" width="3.50" shape="711.34,965.86 712.97,962.68 714.71,958.41 718.40,947.78 720.01,944.02 722.41,939.63"/>
    </edge>

    <edge id="83638" from="44" to="45" priority="3" type="highway.residential" spreadType="center" length="17.41" shape="741.37,918.61 720.11,952.69">
        <lane id="83638_0" index="0" disallow="pedestrian tram rail_urban rail rail_electric rail_fast ship" speed="36.11" length="17.41" width="3.50" customShape="1" shape="737.22,928.07 737.16,928.18 737.10,928.29 732.36,936.44 728.48,943.13"/>
        <lane id="83638_1" index="1" disallow="pedestrian tram rail_urban rail rail_electric rail_fast ship" speed="36.11" length="17.41" width="3.50" customShape="1" shape="734.19,926.32 734.07,926.53 729.33,934.69 725.45,941.38"/>
    </edge>
    <edge id="83644" from="45" to="44" priority="3" type="highway.residential" spreadType="center" length="17.43" shape="715.79,949.73 736.91,915.83">
        <lane id="83644_0" index="0" disallow="pedestrian tram rail_urban rail rail_electric rail_fast ship" speed="36.11" length="17.43" width="3.50" customShape="1" shape="722.41,939.63 726.31,932.93 731.04,924.78 731.11,924.67 731.17,924.56"/>
    </edge>
    <edge id="84125" from="18" to="42" priority="3" type="highway.residential" spreadType="center" length="1.49" shape="746.31,854.58 765.20,864.65">
        <lane id="84125_0" index="0" disallow="pedestrian tram rail_urban rail rail_electric rail_fast ship" speed="36.11" length="1.49" width="3.50" customShape="1" shape="746.31,854.58 747.62,855.28"/>
    </edge>
    <edge id="84428" from="19" to="45" priority="3" type="highway.residential" spreadType="center" length="0.20" shape="709.70,965.22 714.21,948.97">
        <lane id="84428_0" index="0" disallow="pedestrian tram rail_urban rail rail_electric rail_fast ship" speed="36.11" length="0.20" width="3.50" customShape="1" shape="708.56,963.68 708.66,963.51"/>
        <lane id="84428_1" index="1" disallow="pedestrian tram rail_urban rail rail_electric rail_fast ship" speed="36.11" length="0.20" width="3.50" customShape="1" shape="711.60,965.41 711.70,965.24"/>
    </edge>
    <edge id="85038" from="41" to="40" priority="3" type="highway.residential" spreadType="center" length="71.69" shape="638.26,831.53 709.64,911.49">
        <lane id="85038_0" index="0" disallow="pedestrian tram rail_urban rail rail_electric rail_fast ship" speed="36.11" length="71.69" width="3.50" customShape="1" shape="649.55,840.16 660.08,851.73 697.41,893.54"/>
    </edge>
    <edge id="85039" from="40" to="41" priority="3" type="highway.residential" spreadType="center" length="71.63" shape="707.03,913.82 635.65,833.86">
        <lane id="85039_0" index="0" disallow="pedestrian tram rail_urban rail rail_electric rail_fast ship" speed="36.11" length="71.63" width="3.50" customShape="1" shape="694.78,895.85 657.49,854.08 646.96,842.52"/>
    </edge>
    <edge id="85191" from="40" to="44" priority="3" type="highway.residential" spreadType="center" length="6.61">
        <lane id="85191_0" index="0" disallow="pedestrian tram rail_urban rail rail_electric rail_fast ship" speed="36.11" length="6.61" width="3.48" customShape="1" shape="721.59,918.89 723.68,919.41 723.81,919.44 725.41,919.62 728.12,919.58"/>
    </edge>
    <edge id="85240" from="27" to="41" priority="3" type="highway.residential" spreadType="center" length="5.26" shape="626.68,815.12 638.48,831.84">
        <lane id="85240_0" index="0" disallow="pedestrian tram rail_urban rail rail_electric rail_fast ship" speed="36.11" length="5.26" width="3.48" customShape="1" shape="626.68,815.12 630.06,818.81 630.14,818.90 630.23,819.00"/>
    </edge>
    <edge id="85241" from="41" to="22" priority="3" type="highway.residential" spreadType="center" length="5.24" shape="635.64,833.85 624.11,817.49">
        <lane id="85241_0" index="0" disallow="pedestrian tram rail_urban rail rail_electric rail_fast ship" speed="36.11" length="5.24" width="3.50" customShape="1" shape="627.64,821.36 627.56,821.27 627.48,821.18 624.11,817.49"/>
    </edge>
    <edge id="85867" from="26" to="41" priority="3" type="highway.residential" spreadType="center" length="4.31" shape="629.45,840.12 635.75,831.47">
        <lane id="85867_0" index="0" disallow="pedestrian tram rail_urban rail rail_electric rail_fast ship" speed="36.11" length="4.31" width="3.49" customShape="1" shape="629.45,840.12 631.76,836.48"/>
    </edge>
    <edge id="85868" from="41" to="23" priority="3" type="highway.residential" spreadType="center" length="4.46" shape="638.54,833.49 632.41,841.99">
        <lane id="85868_0" index="0" disallow="pedestrian tram rail_urban rail rail_electric rail_fast ship" speed="36.11" length="4.46" width="3.50" customShape="1" shape="634.80,838.22 632.41,841.99"/>
    </edge>
    <edge id="85892" from="42" to="44" priority="3" type="highway.residential" spreadType="center" length="35.84" shape="765.81,866.92 739.93,917.60">
        <lane id="85892_0" index="0" disallow="pedestrian tram rail_urban rail rail_electric rail_fast ship" speed="36.11" length="35.84" width="3.50" customShape="1" shape="765.05,876.15 753.32,896.59 747.21,907.23"/>
    </edge>
    <edge id="85893" from="44" to="42" priority="3" type="highway.residential" spreadType="center" length="35.83" shape="736.81,916.01 762.70,865.33">
        <lane id="85893_0" index="0" disallow="pedestrian tram rail_urban rail rail_electric rail_fast ship" speed="36.11" length="35.83" width="3.50" customShape="1" shape="744.18,905.49 750.28,894.85 762.01,874.41"/>
    </edge>
    <edge id="85895" from="28" to="42" priority="3" type="highway.residential" spreadType="center" length="7.03" shape="782.16,846.44 765.55,867.30">
        <lane id="85895_0" index="0" disallow="pedestrian tram rail_urban rail rail_electric rail_fast ship" speed="36.11" length="7.03" width="3.50" customShape="1" shape="782.16,846.44 780.40,849.47 778.64,852.53"/>
    </edge>
    <edge id="85896" from="42" to="15" priority="3" type="highway.residential" spreadType="center" length="7.03" shape="762.82,865.12 779.13,844.67">
        <lane id="85896_0" index="0" disallow="pedestrian tram rail_urban rail rail_electric rail_fast ship" speed="36.11" length="7.03" width="3.50" customShape="1" shape="775.61,850.76 777.37,847.72 779.13,844.67"/>
    </edge>
    <edge id="86426" from="40" to="45" priority="3" type="highway.residential" spreadType="center" length="11.81" shape="710.03,912.25 719.04,950.26">
        <lane id="86426_0" index="0" disallow="pedestrian tram rail_urban rail rail_electric rail_fast ship" speed="36.11" length="11.81" width="3.50" customShape="1" shape="714.68,926.90 714.71,927.06 714.73,927.18 715.94,934.52 716.56,938.56"/>
    </edge>
    <edge id="86430" from="45" to="40" priority="3" type="highway.residential" spreadType="center" length="11.72" shape="715.63,951.07 706.63,913.06">
        <lane id="86430_0" index="0" disallow="pedestrian tram rail_urban rail rail_electric rail_fast ship" speed="36.11" length="11.72" width="3.50" customShape="1" shape="713.11,939.15 712.49,935.10 711.29,927.82 711.24,927.58"/>
    </edge>
    <edge id="95621" from="21" to="19" priority="3" type="highway.residential" spreadType="center" length="23.62">
        <lane id="95621_0" index="0" disallow="pedestrian tram rail_urban rail rail_electric rail_fast ship" speed="36.11" length="23.62" width="3.50" customShape="1" shape="695.59,986.09 701.89,975.22 707.42,965.65"/>
        <lane id="95621_1" index="1" disallow="pedestrian tram rail_urban rail rail_electric rail_fast ship" speed="36.11" length="23.64" width="3.50" customShape="1" shape="698.61,987.86 704.91,976.97 710.46,967.40"/>
    </edge>
    <edge id="95632" from="45" to="32" priority="3" type="highway.residential" spreadType="center" length="25.47" shape="718.94,951.24 701.63,989.63">
        <lane id="95632_0" index="0" disallow="pedestrian tram rail_urban rail rail_electric rail_fast ship" speed="36.11" length="25.47" width="3.50" customShape="1" shape="714.39,967.59 714.32,967.71 714.26,967.82 707.94,978.72 701.63,989.63"/>
    </edge>
    <edge id="97365" from="42" to="43" priority="3" type="highway.residential" spreadType="center" length="0.20" shape="763.61,867.75 749.56,860.27">
        <lane id="97365_0" index="0" disallow="pedestrian tram rail_urban rail rail_electric rail_fast ship" speed="36.11" length="0.20" width="3.50" customShape="1" shape="748.30,859.51 748.13,859.41"/>
    </edge>
    <edge id="97397" from="42" to="43" priority="3" type="highway.residential" spreadType="center" length="0.20">
        <lane id="97397_0" index="0" disallow="pedestrian tram rail_urban rail rail_electric rail_fast ship" speed="36.11" length="0.20" width="3.50" customShape="1" shape="749.20,859.51 749.00,859.54"/>
    </edge>

    <junction id="15" type="dead_end" x="779.13" y="844.67" incLanes="85896_0" intLanes="" shape="777.62,843.80 780.65,845.55" rightOfWay="edgePriority"/>
    <junction id="18" type="dead_end" x="746.31" y="854.58" incLanes="" intLanes="" shape="745.49,856.13 747.13,853.04" rightOfWay="edgePriority"/>
    <junction id="19" type="priority" x="709.70" y="965.22" incLanes="95621_0 95621_1" intLanes=":19_0_0 :19_0_1" shape="713.48,965.65 707.40,962.19 705.90,964.78 711.97,968.27" rightOfWay="edgePriority">
        <request index="0" response="00" foes="00" cont="0"/>
        <request index="1" response="00" foes="00" cont="0"/>
    </junction>
    <junction id="21" type="dead_end" x="697.10" y="986.97" incLanes="" intLanes="" shape="700.13,988.72 694.08,985.22" rightOfWay="edgePriority"/>
    <junction id="22" type="dead_end" x="624.11" y="817.49" incLanes="85241_0" intLanes="" shape="622.82,818.67 625.41,816.31" rightOfWay="edgePriority"/>
    <junction id="23" type="dead_end" x="632.41" y="841.99" incLanes="85868_0" intLanes="" shape="633.89,842.93 630.93,841.05" rightOfWay="edgePriority"/>
    <junction id="26" type="dead_end" x="629.45" y="840.12" incLanes="" intLanes="" shape="630.93,841.06 627.97,839.19" rightOfWay="edgePriority"/>
    <junction id="27" type="dead_end" x="626.68" y="815.12" incLanes="" intLanes="" shape="625.40,816.29 627.97,813.95" rightOfWay="edgePriority"/>
    <junction id="28" type="dead_end" x="782.16" y="846.44" incLanes="" intLanes="" shape="780.64,845.56 783.67,847.31" rightOfWay="edgePriority"/>
    <junction id="32" type="dead_end" x="701.63" y="989.63" incLanes="95632_0" intLanes="" shape="703.15,990.51 700.12,988.75" rightOfWay="edgePriority"/>
    <junction id="40" type="priority" x="708.33" y="912.65" incLanes="86430_0 85038_0" intLanes=":40_0_0 :40_1_0 :40_2_0" shape="709.53,927.92 716.39,926.57 716.11,924.30 716.26,922.55 716.84,921.30 717.86,920.55 719.30,920.31 721.18,920.58 722.01,917.20 715.33,914.82 711.14,911.76 708.41,908.00 706.11,903.53 703.21,898.32 698.69,892.35 693.47,897.01 698.46,902.63 702.05,907.00 704.60,910.93 706.46,915.20 707.98,920.60">
        <request index="0" response="000" foes="000" cont="0"/>
        <request index="1" response="000" foes="000" cont="0"/>
        <request index="2" response="000" foes="000" cont="0"/>
    </junction>
    <junction id="41" type="priority" x="636.98" y="832.72" incLanes="85039_0 85240_0 85867_0" intLanes=":41_0_0 :41_1_0 :41_2_0 :41_3_0" shape="645.67,843.70 650.84,838.98 631.51,817.82 626.35,822.54 628.45,825.09 629.98,827.48 630.92,829.74 631.27,831.84 631.05,833.80 630.24,835.61 636.32,839.09 638.30,838.12 639.71,838.57 641.41,839.65 643.40,841.36">
        <request index="0" response="0000" foes="0000" cont="0"/>
        <request index="1" response="0000" foes="1000" cont="0"/>
        <request index="2" response="0000" foes="1000" cont="0"/>
        <request index="3" response="0110" foes="0110" cont="0"/>
    </junction>
    <junction id="42" type="priority" x="764.26" y="866.12" incLanes="85895_0 84125_0 85893_0" intLanes=":42_0_0 :42_1_0 :42_2_0 :42_3_0 :42_4_0 :42_5_0" shape="780.16,853.39 774.10,849.89 771.24,853.71 767.82,856.25 763.83,857.53 759.27,857.54 754.14,856.27 748.45,853.74 746.80,856.83 746.71,857.00 749.82,862.33 758.07,866.07 762.88,867.97 764.25,868.03 762.17,866.24 756.65,862.60 747.69,857.11 745.89,860.11 750.91,863.25 754.89,866.03 757.84,868.44 759.76,870.50 760.64,872.20 760.50,873.54 766.57,877.02">
        <request index="0" response="000000" foes="001000" cont="0"/>
        <request index="1" response="100000" foes="101000" cont="0"/>
        <request index="2" response="100000" foes="100000" cont="0"/>
        <request index="3" response="100011" foes="100011" cont="0"/>
        <request index="4" response="000000" foes="000000" cont="0"/>
        <request index="5" response="000000" foes="001110" cont="0"/>
    </junction>
    <junction id="43" type="dead_end" x="749.56" y="860.27" incLanes="97365_0 97397_0" intLanes="" shape="748.66,861.77 750.46,858.77 748.82,861.86 750.30,858.69"/>
    <junction id="44" type="priority" x="738.40" y="916.76" incLanes="85892_0 85191_0 83644_0" intLanes=":44_0_0 :44_0_1 :44_2_0 :44_3_0 :44_4_0" shape="748.73,908.10 742.66,904.62 740.16,908.63 737.69,911.92 735.23,914.48 732.80,916.33 730.39,917.45 728.00,917.84 728.25,921.32 729.65,921.56 730.00,921.89 730.12,922.36 730.00,922.96 729.65,923.70 738.74,928.95">
        <request index="0" response="00000" foes="01000" cont="0"/>
        <request index="1" response="00000" foes="01000" cont="0"/>
        <request index="2" response="10000" foes="10000" cont="0"/>
        <request index="3" response="10011" foes="10011" cont="0"/>
        <request index="4" response="00000" foes="01100" cont="0"/>
    </junction>
    <junction id="45" type="priority" x="717.32" y="950.59" incLanes="83638_0 83638_1 86426_0 84428_0 84428_1" intLanes=":45_0_0 :45_1_0 :45_2_0 :45_3_0 :45_4_0" shape="729.99,944.01 720.90,938.76 719.71,940.25 719.24,940.37 718.84,940.08 718.52,939.38 718.28,938.27 711.38,939.44 712.10,944.64 712.35,948.61 712.04,951.91 711.07,955.08 709.35,958.69 706.78,963.27 715.91,968.46">
        <request index="0" response="00000" foes="00100" cont="0"/>
        <request index="1" response="11000" foes="11100" cont="0"/>
        <request index="2" response="10011" foes="10011" cont="0"/>
        <request index="3" response="00000" foes="00010" cont="0"/>
        <request index="4" response="00000" foes="00110" cont="0"/>
    </junction>

    <connection from="83638" to="95632" fromLane="0" toLane="0" contPos="-4.00" shape="727.50,944.82 720.94,956.21 714.39,967.59" via=":45_0_0" dir="s" state="M"/>
    <connection from="83638" to="86430" fromLane="1" toLane="0" contPos="-4.00" shape="724.48,943.05 722.52,946.14 720.81,948.28 719.44,949.48 718.65,949.93 717.76,950.14 716.88,949.98 716.13,949.46 715.56,948.75 714.76,947.11 714.00,944.48 713.65,942.69" via=":45_1_0" dir="l" state="m"/>
    <connection from="83644" to="85893" fromLane="0" toLane="0" contPos="-4.00" shape="731.17,924.56 733.99,920.13 741.38,909.93 743.65,906.39 744.18,905.49" via=":44_4_0" dir="s" state="M"/>
    <connection from="84125" to="85896" fromLane="0" toLane="0" contPos="-4.00" shape="751.20,857.18 754.17,858.57 756.26,859.32 758.40,859.87 760.59,860.17 762.80,860.18 763.90,860.06 764.98,859.84 766.05,859.54 767.08,859.14 768.08,858.66 769.94,857.48 771.62,856.04 773.12,854.41 774.44,852.64 775.61,850.76" via=":42_2_0" dir="r" state="m"/>
    <connection from="84125" to="85892" fromLane="0" toLane="0" contPos="-4.00" shape="751.20,857.18 754.46,859.14 756.56,860.71 758.50,862.50 760.20,864.53 760.97,865.69 761.63,866.89 762.19,868.15 762.62,869.46 762.94,870.80 763.13,872.16 763.21,873.53 763.16,874.92 762.79,877.54 762.10,880.08 761.16,882.53 759.44,885.92" via=":42_3_0" dir="l" state="m"/>
    <connection from="84428" to="86430" fromLane="0" toLane="0" contPos="-4.00" shape="708.29,964.15 710.47,959.95 712.07,956.08 713.13,952.57 713.72,949.48 713.93,946.87 713.85,944.25 713.65,942.69" via=":45_3_0" dir="R" state="M"/>
    <connection from="84428" to="83644" fromLane="1" toLane="0" contPos="-4.00" shape="711.34,965.86 712.97,962.68 714.71,958.41 718.40,947.78 720.01,944.02 721.45,941.30" via=":45_4_0" dir="s" state="M"/>