<routes>
	<vehicle depart="0.1" departLane="0" departPos="39.39414205350209" departSpeed="0.0" id="33" type="passenger">
		<route edges=":40_1 85191"/>
	</vehicle>
	<vehicle depart="0.1" departLane="0" departPos="8.418772945207651" departSpeed="10.621478" id="313" type="passenger">
		<route edges=":44_3 83638 95632"/>
	</vehicle>
	<vehicle depart="0.1" departLane="0" departPos="6.8070823219431755" departSpeed="1.7612208" id="322" type="passenger">
		<route edges="95621 84428"/>
	</vehicle>
	<vehicle depart="0.1" departLane="1" departPos="7.305803221156164" departSpeed="1.8273574" id="332" type="passenger">
		<route edges="95621 84428"/>
	</vehicle>
	<vehicle depart="0.1" departLane="1" departPos="16.288135523777143" departSpeed="2.9216388" id="333" type="passenger">
		<route edges="95621 84428 83644"/>
	</vehicle>
	<vehicle depart="0.1" departLane="0" departPos="25.25844842038493" departSpeed="0.50288531" id="318" type="motorcycle">
		<route edges="95621 84428 86430"/>
	</vehicle>
	<vehicle depart="0.1" departLane="0" departPos="18.16564970740421" departSpeed="2.1457838" id="30" type="truck">
		<route edges="83644 85893"/>
	</vehicle>
	<vehicle depart="0.1" departLane="0" departPos="33.565372809546815" departSpeed="0.010365072" id="311" type="truck">
		<route edges=":40_1 85191"/>
	</vehicle>
	<vehicle depart="0.1" departLane="0" departPos="20.375348928621086" departSpeed="0.52049523" id="314" type="truck">
		<route edges=":45_1 86430"/>
	</vehicle>
	<vehicle depart="0.1" departLane="0" departPos="6.93607774626815" departSpeed="1.9329321" id="330" type="truck">
		<route edges=":45_4 83644"/>
	</vehicle>
</routes>
