<routes>
	<vehicle depart="0.1" departLane="0" departPos="62.72463203102792" departSpeed="0.6486886" id="329" type="bicycle">
		<route edges="38559 38562"/>
	</vehicle>
	<vehicle depart="0.1" departLane="0" departPos="19.730070858866075" departSpeed="5.3726057" id="31" type="passenger">
		<route edges=":26_1 38184"/>
	</vehicle>
	<vehicle depart="0.1" departLane="0" departPos="2.5" departSpeed="0.033457778" id="33" type="passenger">
		<route edges=":26_10 38464"/>
	</vehicle>
	<vehicle depart="0.1" departLane="0" departPos="58.64711973864697" departSpeed="0.020919328" id="37" type="passenger">
		<route edges="38461 38188"/>
	</vehicle>
	<vehicle depart="0.1" departLane="0" departPos="27.608109915488797" departSpeed="0.13120582" id="310" type="passenger">
		<route edges=":26_8 38460"/>
	</vehicle>
	<vehicle depart="0.1" departLane="0" departPos="19.440871766076093" departSpeed="6.7434552" id="317" type="passenger">
		<route edges=":26_3 38188 38562"/>
	</vehicle>
	<vehicle depart="0.1" departLane="0" departPos="71.83529839114247" departSpeed="1.9177001" id="324" type="passenger">
		<route edges="38559 38187 38464"/>
	</vehicle>
	<vehicle depart="0.1" departLane="0" departPos="56.955271315130105" departSpeed="4.4772606" id="325" type="passenger">
		<route edges="38463 38460"/>
	</vehicle>
	<vehicle depart="0.1" departLane="0" departPos="52.75814382029128" departSpeed="1.9079865" id="333" type="passenger">
		<route edges="38559 38562"/>
	</vehicle>
	<vehicle depart="0.1" departLane="0" departPos="22.085254815278812" departSpeed="0.82987021" id="30" type="truck">
		<route edges=":26_10 38464"/>
	</vehicle>
</routes>
