<!-- generated on Tue Feb  9 22:11:17 2021 by Eclipse SUMO netconvert Version 1.8.0
<configuration xmlns:xsi="http://www.w3.org/2001/XMLSchema-instance" xsi:noNamespaceSchemaLocation="http://sumo.dlr.de/xsd/netconvertConfiguration.xsd">

    <input>
        <node-files value="./converted_scenarios/scenario-factory/BEL_Zwevegem-3_2_I-1-1/BEL_Zwevegem-3_2_I-1-1.nod.xml"/>
        <edge-files value="./converted_scenarios/scenario-factory/BEL_Zwevegem-3_2_I-1-1/BEL_Zwevegem-3_2_I-1-1.edg.xml"/>
        <connection-files value="./converted_scenarios/scenario-factory/BEL_Zwevegem-3_2_I-1-1/BEL_Zwevegem-3_2_I-1-1.con.xml"/>
        <tllogic-files value="./converted_scenarios/scenario-factory/BEL_Zwevegem-3_2_I-1-1/BEL_Zwevegem-3_2_I-1-1.tll.xml"/>
        <type-files value="/home/zen/commonroad-interactive-benchmarks/install/commonroad-map-tool/crmapconverter/sumo_map/templates/DEU.typ.xml"/>
    </input>

    <output>
        <output-file value="./converted_scenarios/scenario-factory/BEL_Zwevegem-3_2_I-1-1/BEL_Zwevegem-3_2_I-1-1.net.xml"/>
    </output>

    <processing>
        <geometry.remove.keep-edges.explicit value="true"/>
        <geometry.avoid-overlap value="true"/>
        <offset.disable-normalization value="true"/>
    </processing>

    <junctions>
        <no-turnarounds value="true"/>
        <junctions.internal-link-detail value="20"/>
    </junctions>

    <report>
        <aggregate-warnings value="5"/>
    </report>

    <random_number>
        <seed value="1234"/>
    </random_number>

</configuration>
--><net xmlns:xsi="http://www.w3.org/2001/XMLSchema-instance" version="1.6" junctionCornerDetail="5" junctionLinkDetail="20" limitTurnSpeed="5.50" xsi:noNamespaceSchemaLocation="http://sumo.dlr.de/xsd/net_file.xsd">

    <location netOffset="0.00,0.00" convBoundary="-804.82,-516.34,-674.69,-340.43" origBoundary="-804.82,-516.34,-674.69,-340.43" projParameter="!"/>

    <type id="highway.bridleway" priority="1" speed="2.78" allow="pedestrian" oneway="1" width="2.00"/>
    <type id="highway.bus_guideway" priority="1" speed="27.78" allow="bus" oneway="1"/>
    <type id="highway.cycleway" priority="1" speed="8.33" allow="bicycle" oneway="0" width="1.00"/>
    <type id="highway.footway" priority="1" speed="2.78" allow="pedestrian" oneway="1" width="2.00"/>
    <type id="highway.ford" priority="1" speed="2.78" allow="army" oneway="0"/>
    <type id="highway.living_street" priority="2" speed="2.78" disallow="tram rail_urban rail rail_electric rail_fast ship" oneway="0"/>
    <type id="highway.motorway" priority="14" speed="39.44" allow="private emergency authority army vip passenger hov taxi bus coach delivery truck trailer motorcycle evehicle custom1 custom2" oneway="1"/>
    <type id="highway.motorway_link" priority="9" speed="22.22" allow="private emergency authority army vip passenger hov taxi bus coach delivery truck trailer motorcycle evehicle custom1 custom2" oneway="1"/>
    <type id="highway.path" priority="1" speed="2.78" allow="pedestrian bicycle" oneway="0" width="2.00"/>
    <type id="highway.pedestrian" priority="1" speed="2.78" allow="pedestrian" oneway="1" width="2.00"/>
    <type id="highway.primary" priority="12" speed="27.78" disallow="pedestrian tram rail_urban rail rail_electric rail_fast ship" oneway="0"/>
    <type id="highway.primary_link" priority="7" speed="22.22" disallow="pedestrian tram rail_urban rail rail_electric rail_fast ship" oneway="0"/>
    <type id="highway.raceway" priority="15" speed="83.33" allow="vip" oneway="0"/>
    <type id="highway.residential" priority="3" speed="13.89" disallow="pedestrian tram rail_urban rail rail_electric rail_fast ship" oneway="0"/>
    <type id="highway.secondary" priority="11" speed="27.78" disallow="pedestrian tram rail_urban rail rail_electric rail_fast ship" oneway="0"/>
    <type id="highway.secondary_link" priority="6" speed="22.22" disallow="pedestrian tram rail_urban rail rail_electric rail_fast ship" oneway="0"/>
    <type id="highway.service" priority="1" speed="5.56" allow="pedestrian delivery bicycle" oneway="0"/>
    <type id="highway.stairs" priority="1" speed="1.39" allow="pedestrian" oneway="1" width="2.00"/>
    <type id="highway.step" priority="1" speed="1.39" allow="pedestrian" oneway="1" width="2.00"/>
    <type id="highway.steps" priority="1" speed="1.39" allow="pedestrian" oneway="1" width="2.00"/>
    <type id="highway.tertiary" priority="10" speed="22.22" disallow="pedestrian tram rail_urban rail rail_electric rail_fast ship" oneway="0"/>
    <type id="highway.tertiary_link" priority="5" speed="22.22" disallow="pedestrian tram rail_urban rail rail_electric rail_fast ship" oneway="0"/>
    <type id="highway.track" priority="1" speed="5.56" allow="pedestrian motorcycle moped bicycle" oneway="0"/>
    <type id="highway.trunk" priority="13" speed="27.78" disallow="pedestrian bicycle tram rail_urban rail rail_electric rail_fast ship" oneway="0"/>
    <type id="highway.trunk_link" priority="8" speed="22.22" disallow="pedestrian bicycle tram rail_urban rail rail_electric rail_fast ship" oneway="0"/>
    <type id="highway.unclassified" priority="4" speed="13.89" disallow="pedestrian tram rail_urban rail rail_electric rail_fast ship" oneway="0"/>
    <type id="highway.unsurfaced" priority="1" speed="8.33" disallow="tram rail_urban rail rail_electric rail_fast ship" oneway="0"/>
    <type id="railway.highspeed" priority="21" speed="69.44" allow="rail_fast" oneway="1"/>
    <type id="railway.light_rail" priority="19" speed="27.78" allow="rail_urban" oneway="1"/>
    <type id="railway.preserved" priority="16" speed="27.78" allow="rail" oneway="1"/>
    <type id="railway.rail" priority="20" speed="44.44" allow="rail" oneway="1"/>
    <type id="railway.subway" priority="18" speed="27.78" allow="rail_urban" oneway="1"/>
    <type id="railway.tram" priority="17" speed="13.89" allow="tram" oneway="1"/>

    <edge id=":25_0" function="internal">
        <lane id=":25_0_0" index="0" disallow="pedestrian tram rail_urban rail rail_electric rail_fast ship" speed="36.11" length="33.90" width="3.50" shape="-693.33,-436.83 -696.98,-430.53 -703.37,-420.04 -705.80,-415.54 -707.92,-410.88 -709.33,-407.03"/>
    </edge>
    <edge id=":25_1" function="internal">
        <lane id=":25_1_0" index="0" disallow="pedestrian tram rail_urban rail rail_electric rail_fast ship" speed="11.34" length="26.61" width="3.49" shape="-693.33,-436.83 -694.73,-434.45 -696.26,-432.29 -698.01,-430.30 -699.99,-428.56 -701.08,-427.81 -702.23,-427.15 -703.44,-426.61 -704.69,-426.18 -705.98,-425.88 -707.29,-425.70 -708.61,-425.64 -709.93,-425.70 -712.54,-426.13 -715.11,-426.90"/>
    </edge>
    <edge id=":25_2" function="internal">
        <lane id=":25_2_0" index="0" disallow="pedestrian tram rail_urban rail rail_electric rail_fast ship" speed="10.25" length="21.51" width="3.50" shape="-713.94,-430.20 -711.80,-429.55 -709.66,-429.22 -708.64,-429.18 -707.61,-429.23 -706.59,-429.38 -705.59,-429.63 -704.63,-429.97 -703.69,-430.40 -702.79,-430.93 -701.96,-431.52 -700.32,-432.97 -698.89,-434.62 -697.60,-436.45 -696.45,-438.41"/>
    </edge>
    <edge id=":25_3" function="internal">
        <lane id=":25_3_0" index="0" disallow="pedestrian tram rail_urban rail rail_electric rail_fast ship" speed="10.86" length="26.37" width="3.50" shape="-713.94,-430.20 -712.67,-429.66 -711.53,-429.01 -710.48,-428.21 -709.57,-427.27 -708.79,-426.20 -708.18,-425.04 -707.71,-423.81 -707.38,-422.54 -707.18,-421.24 -707.06,-418.61 -707.24,-415.99 -707.92,-412.10 -708.93,-408.29 -709.33,-407.03"/>
    </edge>
    <edge id=":25_4" function="internal">
        <lane id=":25_4_0" index="0" disallow="pedestrian tram rail_urban rail rail_electric rail_fast ship" speed="9.73" length="20.92" width="3.49" shape="-712.65,-408.11 -712.32,-409.19 -711.42,-412.51 -710.79,-415.85 -710.59,-418.03 -710.62,-420.21 -710.74,-421.21 -710.94,-422.20 -711.23,-423.13 -711.63,-423.99 -712.12,-424.76 -712.71,-425.44 -713.40,-426.02 -714.19,-426.50 -715.11,-426.90"/>
    </edge>
    <edge id=":25_5" function="internal">
        <lane id=":25_5_0" index="0" disallow="pedestrian tram rail_urban rail rail_electric rail_fast ship" speed="36.11" length="34.39" width="3.50" shape="-712.66,-408.11 -710.94,-412.06 -708.63,-416.75 -706.16,-421.35 -699.97,-432.13 -696.45,-438.41"/>
    </edge>
    <edge id=":26_0" function="internal">
        <lane id=":26_0_0" index="0" disallow="pedestrian tram rail_urban rail rail_electric rail_fast ship" speed="9.44" length="20.52" width="3.50" shape="-715.28,-426.97 -716.30,-427.23 -717.33,-427.27 -718.33,-427.07 -719.27,-426.67 -720.13,-426.12 -720.91,-425.45 -721.61,-424.71 -722.25,-423.91 -723.38,-422.20 -724.36,-420.40 -725.62,-417.60 -726.71,-414.72 -727.37,-412.78"/>
    </edge>
    <edge id=":26_1" function="internal">
        <lane id=":26_1_0" index="0" disallow="pedestrian tram rail_urban rail rail_electric rail_fast ship" speed="36.11" length="28.60" width="3.50" shape="-715.29,-426.96 -720.27,-428.71 -742.47,-435.85"/>
    </edge>
    <edge id=":26_2" function="internal">
        <lane id=":26_2_0" index="0" disallow="pedestrian tram rail_urban rail rail_electric rail_fast ship" speed="10.73" length="25.86" width="3.50" shape="-715.29,-426.96 -716.50,-427.49 -717.60,-428.16 -718.58,-429.00 -719.42,-429.98 -720.09,-431.08 -720.60,-432.27 -720.95,-433.51 -721.16,-434.78 -721.28,-437.36 -721.08,-439.94 -720.38,-443.75 -719.35,-447.48 -718.53,-449.94"/>
    </edge>
    <edge id=":26_3" function="internal">
        <lane id=":26_3_0" index="0" disallow="pedestrian tram rail_urban rail rail_electric rail_fast ship" speed="9.57" length="20.38" width="3.50" shape="-715.21,-448.83 -715.94,-446.64 -716.86,-443.41 -717.52,-440.15 -717.74,-438.03 -717.74,-435.91 -717.62,-434.95 -717.42,-434.01 -717.13,-433.13 -716.73,-432.35 -716.24,-431.68 -715.64,-431.10 -714.94,-430.63 -714.12,-430.26"/>
    </edge>
    <edge id=":26_4" function="internal">
        <lane id=":26_4_0" index="0" disallow="pedestrian tram rail_urban rail rail_electric rail_fast ship" speed="36.11" length="38.05" width="3.50" shape="-715.21,-448.83 -722.56,-427.41 -727.37,-412.78"/>
    </edge>
    <edge id=":26_5" function="internal">
        <lane id=":26_5_0" index="0" disallow="pedestrian tram rail_urban rail rail_electric rail_fast ship" speed="12.20" length="34.53" width="3.50" shape="-715.21,-448.83 -716.20,-446.30 -717.36,-443.92 -718.74,-441.66 -720.38,-439.58 -721.30,-438.62 -722.29,-437.74 -723.34,-436.94 -724.46,-436.23 -725.64,-435.62 -726.86,-435.12 -728.13,-434.72 -729.42,-434.42 -732.05,-434.12 -734.70,-434.17 -737.33,-434.51 -739.91,-435.08 -742.47,-435.85"/>
    </edge>
    <edge id=":26_6" function="internal">
        <lane id=":26_6_0" index="0" disallow="pedestrian tram rail_urban rail rail_electric rail_fast ship" speed="11.21" length="28.94" width="3.50" shape="-741.35,-439.16 -739.12,-438.49 -736.89,-438.00 -734.64,-437.71 -732.42,-437.66 -730.22,-437.91 -729.19,-438.15 -728.17,-438.47 -727.18,-438.87 -726.24,-439.36 -725.33,-439.93 -724.48,-440.58 -723.67,-441.30 -722.93,-442.06 -721.54,-443.82 -720.37,-445.74 -719.37,-447.79 -718.53,-449.94"/>
    </edge>
    <edge id=":26_7" function="internal">
        <lane id=":26_7_0" index="0" disallow="pedestrian tram rail_urban rail rail_electric rail_fast ship" speed="36.11" length="28.65" width="3.50" shape="-741.35,-439.16 -719.12,-432.02 -714.12,-430.26"/>
    </edge>
    <edge id=":26_8" function="internal">
        <lane id=":26_8_0" index="0" disallow="pedestrian tram rail_urban rail rail_electric rail_fast ship" speed="12.27" length="34.16" width="3.50" shape="-741.35,-439.16 -737.67,-437.72 -735.33,-436.54 -733.10,-435.14 -731.06,-433.48 -729.27,-431.56 -728.50,-430.50 -727.82,-429.38 -727.23,-428.20 -726.76,-426.98 -726.38,-425.72 -726.12,-424.43 -725.87,-421.82 -725.98,-419.19 -726.37,-416.59 -726.99,-414.04 -727.37,-412.78"/>
    </edge>
    <edge id=":26_9" function="internal">
        <lane id=":26_9_0" index="0" disallow="pedestrian tram rail_urban rail rail_electric rail_fast ship" speed="11.26" length="28.63" width="3.50" shape="-730.70,-413.86 -730.37,-414.94 -729.83,-417.15 -729.50,-419.36 -729.41,-421.56 -729.62,-423.74 -729.84,-424.76 -730.14,-425.77 -730.53,-426.75 -731.00,-427.70 -731.55,-428.59 -732.16,-429.42 -733.65,-431.02 -735.35,-432.39 -737.24,-433.58 -739.24,-434.59 -742.47,-435.85"/>
    </edge>
    <edge id=":26_10" function="internal">
        <lane id=":26_10_0" index="0" disallow="pedestrian tram rail_urban rail rail_electric rail_fast ship" speed="36.11" length="38.08" width="3.50" shape="-730.70,-413.86 -725.88,-428.52 -718.53,-449.94"/>
    </edge>
    <edge id=":26_11" function="internal">
        <lane id=":26_11_0" index="0" disallow="pedestrian tram rail_urban rail rail_electric rail_fast ship" speed="10.59" length="26.05" width="3.50" shape="-730.70,-413.86 -729.92,-416.13 -728.61,-419.49 -727.04,-422.77 -725.76,-424.92 -724.25,-426.92 -723.34,-427.90 -722.33,-428.78 -721.19,-429.57 -719.91,-430.19 -718.51,-430.61 -717.04,-430.76 -715.56,-430.64 -714.12,-430.26"/>
    </edge>

    <edge id="38184" from="26" to="11" priority="3" type="highway.residential" spreadType="center" length="70.00" shape="-726.34,-430.60 -804.82,-467.14">
        <lane id="38184_0" index="0" disallow="pedestrian tram rail_urban rail rail_electric rail_fast ship" speed="36.11" length="70.00" width="3.50" customShape="1" shape="-742.47,-435.85 -745.31,-436.82 -757.56,-441.52 -766.87,-445.39 -774.19,-448.80 -780.88,-452.33 -790.87,-458.23 -801.96,-465.22 -804.82,-467.14"/>
    </edge>
    <edge id="38185" from="24" to="26" priority="3" type="highway.residential" spreadType="center" length="70.02" shape="-803.64,-470.56 -724.86,-433.77">
        <lane id="38185_0" index="0" disallow="pedestrian tram rail_urban rail rail_electric rail_fast ship" speed="36.11" length="70.02" width="3.50" customShape="1" shape="-803.64,-470.56 -800.24,-468.28 -789.23,-461.33 -779.33,-455.48 -772.74,-451.99 -765.53,-448.62 -756.31,-444.78 -744.15,-440.12 -741.33,-439.15"/>
    </edge>
    <edge id="38187" from="25" to="26" priority="3" type="highway.residential" spreadType="center" length="0.21" shape="-707.46,-422.95 -726.43,-430.64">
        <lane id="38187_0" index="0" disallow="pedestrian tram rail_urban rail rail_electric rail_fast ship" speed="36.11" length="0.21" width="3.49" customShape="1" shape="-715.11,-426.90 -715.31,-426.97"/>
    </edge>
    <edge id="38188" from="26" to="25" priority="3" type="highway.residential" spreadType="center" length="0.22" shape="-725.12,-433.87 -706.15,-426.19">
        <lane id="38188_0" index="0" disallow="pedestrian tram rail_urban rail rail_electric rail_fast ship" speed="36.11" length="0.22" width="3.50" customShape="1" shape="-714.12,-430.26 -713.91,-430.19"/>
    </edge>
    <edge id="38460" from="26" to="9" priority="3" type="highway.residential" spreadType="center" length="69.99" shape="-723.95,-431.74 -748.90,-346.18">
        <lane id="38460_0" index="0" disallow="pedestrian tram rail_urban rail rail_electric rail_fast ship" speed="36.11" length="69.99" width="3.50" customShape="1" shape="-727.37,-412.78 -739.73,-374.55 -748.90,-346.18"/>
    </edge>
    <edge id="38461" from="20" to="26" priority="3" type="highway.residential" spreadType="center" length="70.00" shape="-752.23,-347.25 -727.30,-432.72">
        <lane id="38461_0" index="0" disallow="pedestrian tram rail_urban rail rail_electric rail_fast ship" speed="36.11" length="70.00" width="3.50" customShape="1" shape="-752.23,-347.25 -743.06,-375.62 -730.70,-413.86"/>
    </edge>
    <edge id="38463" from="21" to="26" priority="3" type="highway.residential" spreadType="center" length="69.99" shape="-693.06,-515.17 -724.01,-431.56">
        <lane id="38463_0" index="0" disallow="pedestrian tram rail_urban rail rail_electric rail_fast ship" speed="36.11" length="69.99" width="3.50" customShape="1" shape="-693.06,-515.17 -715.23,-448.78"/>
    </edge>
    <edge id="38464" from="26" to="6" priority="3" type="highway.residential" spreadType="center" length="70.00" shape="-727.29,-432.77 -696.36,-516.34">
        <lane id="38464_0" index="0" disallow="pedestrian tram rail_urban rail rail_electric rail_fast ship" speed="36.11" length="70.00" width="3.50" customShape="1" shape="-718.53,-449.94 -696.36,-516.34"/>
    </edge>
    <edge id="38558" from="25" to="19" priority="3" type="highway.residential" spreadType="center" length="69.99" shape="-705.12,-424.09 -730.85,-340.43">
        <lane id="38558_0" index="0" disallow="pedestrian tram rail_urban rail rail_electric rail_fast ship" speed="36.11" length="69.99" width="3.50" customShape="1" shape="-709.33,-407.03 -721.22,-370.24 -730.85,-340.43"/>
    </edge>
    <edge id="38559" from="22" to="25" priority="3" type="highway.residential" spreadType="center" length="70.00" shape="-734.17,-341.55 -708.46,-425.12">
        <lane id="38559_0" index="0" disallow="pedestrian tram rail_urban rail rail_electric rail_fast ship" speed="36.11" length="70.00" width="3.49" customShape="1" shape="-734.17,-341.55 -724.55,-371.32 -712.64,-408.16"/>
    </edge>
    <edge id="38561" from="23" to="25" priority="3" type="highway.residential" spreadType="center" length="69.89" shape="-674.69,-503.91 -705.18,-423.91">
        <lane id="38561_0" index="0" disallow="pedestrian tram rail_urban rail rail_electric rail_fast ship" speed="36.11" length="69.89" width="3.50" customShape="1" shape="-674.69,-503.91 -676.03,-497.96 -679.43,-481.06 -682.05,-468.65 -684.15,-460.29 -686.21,-453.49 -688.46,-447.29 -690.87,-441.70 -693.33,-436.83"/>
    </edge>
    <edge id="38562" from="25" to="16" priority="3" type="highway.residential" spreadType="center" length="70.00" shape="-708.45,-425.16 -677.90,-505.64">
        <lane id="38562_0" index="0" disallow="pedestrian tram rail_urban rail rail_electric rail_fast ship" speed="36.11" length="70.00" width="3.50" customShape="1" shape="-696.45,-438.41 -694.00,-443.27 -691.65,-448.75 -689.45,-454.85 -687.44,-461.55 -685.37,-469.82 -682.78,-482.16 -679.37,-499.04 -677.90,-505.64"/>
    </edge>

    <junction id="11" type="dead_end" x="-804.82" y="-467.14" incLanes="38184_0" intLanes="" shape="-805.79,-465.69 -803.84,-468.59" rightOfWay="edgePriority"/>
    <junction id="16" type="dead_end" x="-677.90" y="-505.64" incLanes="38562_0" intLanes="" shape="-679.61,-506.02 -676.19,-505.25" rightOfWay="edgePriority"/>
    <junction id="19" type="dead_end" x="-730.85" y="-340.43" incLanes="38558_0" intLanes="" shape="-729.19,-339.89 -732.52,-340.97" rightOfWay="edgePriority"/>
    <junction id="20" type="dead_end" x="-752.23" y="-347.25" incLanes="" intLanes="" shape="-750.56,-346.72 -753.89,-347.79" rightOfWay="edgePriority"/>
    <junction id="21" type="dead_end" x="-693.06" y="-515.17" incLanes="" intLanes="" shape="-694.72,-515.73 -691.40,-514.62" rightOfWay="edgePriority"/>
    <junction id="22" type="dead_end" x="-734.17" y="-341.55" incLanes="" intLanes="" shape="-732.50,-341.02 -735.83,-342.09" rightOfWay="edgePriority"/>
    <junction id="23" type="dead_end" x="-674.69" y="-503.91" incLanes="" intLanes="" shape="-676.40,-504.30 -672.98,-503.53" rightOfWay="edgePriority"/>
    <junction id="24" type="dead_end" x="-803.64" y="-470.56" incLanes="" intLanes="" shape="-804.62,-469.11 -802.67,-472.02" rightOfWay="edgePriority"/>
    <junction id="25" type="priority" x="-706.80" y="-424.57" incLanes="38561_0 38188_0 38559_0" intLanes=":25_0_0 :25_1_0 :25_2_0 :25_3_0 :25_4_0 :25_5_0" shape="-691.77,-436.04 -698.01,-439.20 -699.96,-435.98 -702.15,-433.56 -704.58,-431.94 -707.26,-431.11 -710.18,-431.08 -713.35,-431.84 -715.70,-425.26 -713.98,-424.20 -712.85,-422.45 -712.32,-420.03 -712.39,-416.92 -713.05,-413.12 -714.31,-408.65 -707.66,-406.50 -705.22,-413.19 -702.93,-417.92 -700.62,-421.64 -698.10,-425.28 -695.21,-429.77">
        <request index="0" response="000000" foes="001000" cont="0"/>
        <request index="1" response="110000" foes="111000" cont="0"/>
        <request index="2" response="100000" foes="100000" cont="0"/>
        <request index="3" response="100011" foes="100011" cont="0"/>
        <request index="4" response="000000" foes="000010" cont="0"/>
        <request index="5" response="000000" foes="001110" cont="0"/>
    </junction>
    <junction id="26" type="priority" x="-725.63" y="-432.20" incLanes="38187_0 38463_0 38185_0 38461_0" intLanes=":26_0_0 :26_1_0 :26_2_0 :26_3_0 :26_4_0 :26_5_0 :26_6_0 :26_7_0 :26_8_0 :26_9_0 :26_10_0 :26_11_0" shape="-715.87,-425.32 -713.54,-431.91 -715.72,-434.50 -715.99,-436.87 -715.72,-439.95 -714.91,-443.76 -713.55,-448.28 -720.19,-450.49 -722.15,-446.05 -724.71,-442.73 -727.84,-440.55 -731.56,-439.51 -735.87,-439.59 -740.76,-440.81 -743.04,-434.19 -738.47,-432.17 -735.02,-429.64 -732.69,-426.60 -731.47,-423.05 -731.36,-418.98 -732.36,-414.40 -725.70,-412.25 -724.10,-416.74 -722.47,-420.30 -720.84,-422.94 -719.20,-424.66 -717.54,-425.45">
        <request index="0" response="000000000000" foes="000100010000" cont="0"/>
        <request index="1" response="000000000000" foes="111100110000" cont="0"/>
        <request index="2" response="000011000000" foes="110011110000" cont="0"/>
        <request index="3" response="000010000000" foes="100010000000" cont="0"/>
        <request index="4" response="000110000111" foes="100110000111" cont="0"/>
        <request index="5" response="011110000110" foes="011110000110" cont="0"/>
        <request index="6" response="000000000000" foes="010000000100" cont="0"/>
        <request index="7" response="000000000000" foes="110000111100" cont="0"/>
        <request index="8" response="000000000011" foes="110000110011" cont="0"/>
        <request index="9" response="000000000010" foes="000000100010" cont="0"/>
        <request index="10" response="000111000110" foes="000111100110" cont="0"/>
        <request index="11" response="000110011110" foes="000110011110" cont="0"/>
    </junction>
    <junction id="6" type="dead_end" x="-696.36" y="-516.34" incLanes="38464_0" intLanes="" shape="-698.02,-516.89 -694.70,-515.78" rightOfWay="edgePriority"/>
    <junction id="9" type="dead_end" x="-748.90" y="-346.18" incLanes="38460_0" intLanes="" shape="-747.23,-345.64 -750.56,-346.71" rightOfWay="edgePriority"/>

    <connection from="38185" to="38464" fromLane="0" toLane="0" contPos="-4.00" shape="-741.35,-439.16 -739.12,-438.49 -736.89,-438.00 -734.64,-437.71 -732.42,-437.66 -730.22,-437.91 -729.19,-438.15 -728.17,-438.47 -727.18,-438.87 -726.24,-439.36 -725.33,-439.93 -724.48,-440.58 -723.67,-441.30 -722.93,-442.06 -721.54,-443.82 -720.37,-445.74 -719.37,-447.79 -718.53,-449.94" via=":26_6_0" dir="r" state="M"/>
    <connection from="38185" to="38188" fromLane="0" toLane="0" contPos="-4.00" shape="-741.35,-439.16 -719.12,-432.02 -714.12,-430.26" via=":26_7_0" dir="s" state="M"/>
    <connection from="38185" to="38460" fromLane="0" toLane="0" contPos="-4.00" shape="-741.35,-439.16 -737.67,-437.72 -735.33,-436.54 -733.10,-435.14 -731.06,-433.48 -729.27,-431.56 -728.50,-430.50 -727.82,-429.38 -727.23,-428.20 -726.76,-426.98 -726.38,-425.72 -726.12,-424.43 -725.87,-421.82 -725.98,-419.19 -726.37,-416.59 -726.99,-414.04 -727.37,-412.78" via=":26_8_0" dir="l" state="m"/>
    <connection from="38187" to="38460" fromLane="0" toLane="0" contPos="-4.00" shape="-715.31,-426.97 -716.30,-427.23 -717.33,-427.27 -718.33,-427.07 -719.27,-426.67 -720.13,-426.12 -720.91,-425.45 -721.61,-424.71 -722.25,-423.91 -723.38,-422.20 -724.36,-420.40 -725.62,-417.60 -726.71,-414.72 -727.37,-412.78" via=":26_0_0" dir="r" state="M"/>
    <connection from="38187" to="38184" fromLane="0" toLane="0" contPos="-4.00" shape="-715.31,-426.97 -720.27,-428.71 -742.47,-435.85" via=":26_1_0" dir="s" state="M"/>
    <connection from="38187" to="38464" fromLane="0" toLane="0" contPos="-4.00" shape="-715.31,-426.97 -716.50,-427.49 -717.60,-428.16 -718.58,-429.00 -719.42,-429.98 -720.09,-431.08 -720.60,-432.27 -720.95,-433.51 -721.16,-434.78 -721.28,-437.36 -721.08,-439.94 -720.38,-443.75 -719.35,-447.48 -718.53,-449.94" via=":26_2_0" dir="l" state="m"/>
    <connection from="38188" to="38562" fromLane="0" toLane="0" contPos="-4.00" shape="-713.91,-430.19 -711.80,-429.55 -709.66,-429.22 -708.64,-429.18 -707.61,-429.23 -706.59,-429.38 -705.59,-429.63 -704.63,-429.97 -703.69,-430.40 -702.79,-430.93 -701.96,-431.52 -700.32,-432.97 -698.89,-434.62 -697.60,-436.45 -696.45,-438.41" via=":25_2_0" dir="r" state="m"/>
    <connection from="38188" to="38558" fromLane="0" toLane="0" contPos="-4.00" shape="-713.91,-430.19 -712.67,-429.66 -711.53,-429.01 -710.48,-428.21 -709.57,-427.27 -708.79,-426.20 -708.18,-425.04 -707.71,-423.81 -707.38,-422.54 -707.18,-421.24 -707.06,-418.61 -707.24,-415.99 -707.92,-412.10 -708.93,-408.29 -709.33,-407.03" via=":25_3_0" dir="l" state="m"/>
    <connection from="38461" to="38184" fromLane="0" toLane="0" contPos="-4.00" shape="-730.70,-413.86 -730.37,-414.94 -729.83,-417.15 -729.50,-419.36 -729.41,-421.56 -729.62,-423.74 -729.84,-424.76 -730.14,-425.77 -730.53,-426.75 -731.00,-427.70 -731.55,-428.59 -732.16,-429.42 -733.65,-431.02 -735.35,-432.39 -737.24,-433.58 -739.24,-434.59 -742.47,-435.85" via=":26_9_0" dir="r" state="m"/>
    <connection from="38461" to="38464" fromLane="0" toLane="0" contPos="-4.00" shape="-730.70,-413.86 -725.88,-428.52 -718.53,-449.94" via=":26_10_0" dir="s" state="m"/>
    <connection from="38461" to="38188" fromLane="0" toLane="0" contPos="-4.00" shape="-730.70,-413.86 -729.92,-416.13 -728.61,-419.49 -727.04,-422.77 -725.76,-424.92 -724.25,-426.92 -723.34,-427.90 -722.33,-428.78 -721.19,-429.57 -719.91,-430.19 -718.51,-430.61 -717.04,-430.76 -715.56,-430.64 -714.12,-430.26" via=":26_11_0" dir="l" state="m"/>
    <connection from="38463" to="38188" fromLane="0" toLane="0" contPos="-4.00" shape="-715.23,-448.78 -715.94,-446.64 -716.86,-443.41 -717.52,-440.15 -717.74,-438.03 -717.74,-435.91 -717.62,-434.95 -717.42,-434.01 -717.13,-433.13 -716.73,-432.35 -716.24,-431.68 -715.64,-431.10 -714.94,-430.63 -714.12,-430.26" via=":26_3_0" dir="r" state="m"/>
    <connection from="38463" to="38460" fromLane="0" toLane="0" contPos="-4.00" shape="-715.23,-448.78 -722.56,-427.41 -727.37,-412.78" via=":26_4_0" dir="s" state="m"/>
    <connection from="38463" to="38184" fromLane="0" toLane="0" contPos="-4.00" shape="-715.23,-448.78 -716.20,-446.30 -717.36,-443.92 -718.74,-441.66 -720.38,-439.58 -721.30,-438.62 -722.29,-437.74 -723.34,-436.94 -724.46,-436.23 -725.64,-435.62 -726.86,-435.12 -728.13,-434.72 -729.42,-434.42 -732.05,-434.12 -734.70,-434.17 -737.33,-434.51 -739.91,-435.08 -742.47,-435.85" via=":26_5_0" dir="l" state="m"/>
    <connection from="38559" to="38187" fromLane="0" toLane="0" contPos="-4.00" shape="-712.64,-408.16 -712.32,-409.19 -711.42,-412.51 -710.79,-415.85 -710.59,-418.03 -710.62,-420.21 -710.74,-421.21 -710.94,-422.20 -711.23,-423.13 -711.63,-423.99 -712.12,-424.76 -712.71,-425.44 -713.40,-426.02 -714.19,-426.50 -715.11,-426.90" via=":25_4_0" dir="r" state="M"/>
    <connection from="38559" to="38562" fromLane="0" toLane="0" contPos="-4.00" shape="-712.64,-408.16 -710.94,-412.06 -708.63,-416.75 -706.16,-421.35 -699.97,-432.13 -696.45,-438.41" via=":25_5_0" dir="s" state="M"/>
    <connection from="38561" to="38558" fromLane="0" toLane="0" contPos="-4.00" shape="-693.38,-436.73 -696.98,-430.53 -703.37,-420.04 -705.80,-415.54 -707.92,-410.88 -709.33,-407.03" via=":25_0_0" dir="s" state="M"/>
    <connection from="38561" to="38187" fromLane="0" toLane="0" contPos="-4.00" shape="-693.38,-436.73 -694.73,-434.45 -696.26,-432.29 -698.01,-430.30 -699.99,-428.56 -701.08,-427.81 -702.23,-427.15 -703.44,-426.61 -704.69,-426.18 -705.98,-425.88 -707.29,-425.70 -708.61,-425.64 -709.93,-425.70 -712.54,-426.13 -715.11,-426.90" via=":25_1_0" dir="l" state="m"/>

    <connection from=":25_0" to="38558" fromLane="0" toLane="0" dir="s" state="M"/>
    <connection from=":25_1" to="38187" fromLane="0" toLane="0" dir="l" state="M"/>
    <connection from=":25_2" to="38562" fromLane="0" toLane="0" dir="r" state="M"/>
    <connection from=":25_3" to="38558" fromLane="0" toLane="0" dir="l" state="M"/>
    <connection from=":25_4" to="38187" fromLane="0" toLane="0" dir="r" state="M"/>
    <connection from=":25_5" to="38562" fromLane="0" toLane="0" dir="s" state="M"/>
    <connection from=":26_0" to="38460" fromLane="0" toLane="0" dir="r" state="M"/>
    <connection from=":26_1" to="38184" fromLane="0" toLane="0" dir="s" state="M"/>
    <connection from=":26_2" to="38464" fromLane="0" toLane="0" dir="l" state="M"/>
    <connection from=":26_3" to="38188" fromLane="0" toLane="0" dir="r" state="M"/>
    <connection from=":26_4" to="38460" fromLane="0" toLane="0" dir="s" state="M"/>
    <connection from=":26_5" to="38184" fromLane="0" toLane="0" dir="l" state="M"/>
    <connection from=":26_6" to="38464" fromLane="0" toLane="0" dir="r" state="M"/>
    <connection from=":26_7" to="38188" fromLane="0" toLane="0" dir="s" state="M"/>
    <connection from=":26_8" to="38460" fromLane="0" toLane="0" dir="l" state="M"/>
    <connection from=":26_9" to="38184" fromLane="0" toLane="0" dir="r" state="M"/>
    <connection from=":26_10" to="38464" fromLane="0" toLane="0" dir="s" state="M"/>
    <connection from=":26_11" to="38188" fromLane="0" toLane="0" dir="l" state="M"/>

</net>