<routes>
	<vehicle depart="0.1" departLane="0" departPos="6.2" departSpeed="8.2418804" id="338" type="bus">
		<route edges="44380 44430"/>
	</vehicle>
	<vehicle depart="0.1" departLane="0" departPos="22.309430652139635" departSpeed="0.87066045" id="313" type="passenger">
		<route edges=":49_6 44590"/>
	</vehicle>
	<vehicle depart="0.1" departLane="0" departPos="6.552892833232404" departSpeed="1.3899775" id="316" type="passenger">
		<route edges=":49_6 44590"/>
	</vehicle>
	<vehicle depart="0.1" departLane="0" departPos="26.57936915146829" departSpeed="1.0560524" id="317" type="passenger">
		<route edges="44591 44380"/>
	</vehicle>
	<vehicle depart="0.1" departLane="0" departPos="46.25191350427112" departSpeed="0.21457523" id="318" type="passenger">
		<route edges="44381 44590"/>
	</vehicle>
	<vehicle depart="0.1" departLane="0" departPos="35.993370500891025" departSpeed="1.0278261" id="320" type="passenger">
		<route edges="44381 44590"/>
	</vehicle>
	<vehicle depart="0.1" departLane="0" departPos="26.478726260292273" departSpeed="0.67462691" id="331" type="passenger">
		<route edges="44381 44590"/>
	</vehicle>
	<vehicle depart="0.1" departLane="0" departPos="14.544383320276426" departSpeed="0.53731765" id="339" type="passenger">
		<route edges="44381 44590"/>
	</vehicle>
	<vehicle depart="0.1" departLane="0" departPos="24.141377815569346" departSpeed="9.9458589" id="353" type="passenger">
		<route edges=":49_1 44380 44430"/>
	</vehicle>
	<vehicle depart="0.1" departLane="0" departPos="57.78691259517241" departSpeed="12.005219" id="354" type="passenger">
		<route edges="44383 44380"/>
	</vehicle>
</routes>
