<routes>
	<vehicle depart="0.1" departLane="0" departPos="69.899165485508" departSpeed="3.4152008" id="36" type="bicycle">
		<route edges="74379 74376"/>
	</vehicle>
	<vehicle depart="0.1" departLane="0" departPos="34.160035134739736" departSpeed="9.2884273" id="341" type="bus">
		<route edges=":38_4 74501 74433"/>
	</vehicle>
	<vehicle depart="0.1" departLane="0" departPos="62.58420860608812" departSpeed="0.65948819" id="314" type="passenger">
		<route edges="74379 74376"/>
	</vehicle>
	<vehicle depart="0.1" departLane="0" departPos="31.75434248894541" departSpeed="0.23543565" id="340" type="passenger">
		<route edges="74379 74501"/>
	</vehicle>
	<vehicle depart="0.1" departLane="0" departPos="16.76968437754642" departSpeed="2.2891393" id="344" type="passenger">
		<route edges=":38_4 74501"/>
	</vehicle>
	<vehicle depart="0.1" departLane="0" departPos="16.797936929157558" departSpeed="2.162832" id="345" type="passenger">
		<route edges="74379 74501"/>
	</vehicle>
	<vehicle depart="0.1" departLane="0" departPos="63.98332052010448" departSpeed="4.3570162" id="348" type="passenger">
		<route edges="74377 74380"/>
	</vehicle>
	<vehicle depart="0.1" departLane="0" departPos="42.269043357396335" departSpeed="4.2095485" id="352" type="passenger">
		<route edges="74377 74380"/>
	</vehicle>
	<vehicle depart="0.1" departLane="0" departPos="38.0082545650841" departSpeed="1.5190279" id="335" type="motorcycle">
		<route edges="74379 74501"/>
	</vehicle>
	<vehicle depart="0.1" departLane="0" departPos="54.54955646372582" departSpeed="0.24934729" id="331" type="truck">
		<route edges="74379 74501"/>
	</vehicle>
</routes>
