<routes>
	<vehicle depart="0.1" departLane="0" departPos="73.27893283932532" departSpeed="6.8554777" id="39" type="bicycle">
		<route edges="339 16"/>
	</vehicle>
	<vehicle depart="0.1" departLane="0" departPos="22.955306791497726" departSpeed="0.83513031" id="360" type="bicycle">
		<route edges="40 29"/>
	</vehicle>
	<vehicle depart="0.1" departLane="0" departPos="32.746248599794086" departSpeed="6.9241529" id="371" type="bicycle">
		<route edges="31 343"/>
	</vehicle>
	<vehicle depart="0.1" departLane="0" departPos="36.26608048570995" departSpeed="0.57076531" id="356" type="bus">
		<route edges="40 29"/>
	</vehicle>
	<vehicle depart="0.1" departLane="0" departPos="21.71426636401656" departSpeed="0.0041383252" id="366" type="bus">
		<route edges="26 41"/>
	</vehicle>
	<vehicle depart="0.1" departLane="0" departPos="28.204424077294835" departSpeed="0.0" id="34" type="passenger">
		<route edges="29 32"/>
	</vehicle>
	<vehicle depart="0.1" departLane="0" departPos="20.988644545559115" departSpeed="0.0" id="38" type="passenger">
		<route edges="29 32"/>
	</vehicle>
	<vehicle depart="0.1" departLane="0" departPos="65.6021208879803" departSpeed="0.0" id="310" type="passenger">
		<route edges="40 29"/>
	</vehicle>
	<vehicle depart="0.1" departLane="0" departPos="16.350825559396995" departSpeed="0.0012190558" id="315" type="passenger">
		<route edges=":38_3 29"/>
	</vehicle>
	<vehicle depart="0.1" departLane="0" departPos="35.341355728645624" departSpeed="0.0" id="316" type="passenger">
		<route edges="29 32"/>
	</vehicle>
	<vehicle depart="0.1" departLane="0" departPos="149.38959738534064" departSpeed="0.0" id="317" type="passenger">
		<route edges="340 32"/>
	</vehicle>
	<vehicle depart="0.1" departLane="0" departPos="15.173169697714354" departSpeed="12.132405" id="319" type="passenger">
		<route edges="340 32"/>
	</vehicle>
	<vehicle depart="0.1" departLane="0" departPos="13.888093786662601" departSpeed="2.7496077e-05" id="323" type="passenger">
		<route edges="29 32"/>
	</vehicle>
	<vehicle depart="0.1" departLane="0" departPos="58.7357363739424" departSpeed="0.018962905" id="324" type="passenger">
		<route edges="40 29"/>
	</vehicle>
	<vehicle depart="0.1" departLane="0" departPos="16.477921352494803" departSpeed="9.9391242" id="327" type="passenger">
		<route edges=":39_4 340 32"/>
	</vehicle>
	<vehicle depart="0.1" departLane="0" departPos="7.1868766698269555" departSpeed="0.00022585039" id="328" type="passenger">
		<route edges="29 32"/>
	</vehicle>
	<vehicle depart="0.1" departLane="0" departPos="51.3934893039758" departSpeed="0.10906666" id="329" type="passenger">
		<route edges="40 29"/>
	</vehicle>
	<vehicle depart="0.1" departLane="0" departPos="60.22499415861641" departSpeed="0.0" id="330" type="passenger">
		<route edges="31 343"/>
	</vehicle>
	<vehicle depart="0.1" departLane="0" departPos="43.78435861481148" departSpeed="0.30713775" id="335" type="passenger">
		<route edges="40 29"/>
	</vehicle>
	<vehicle depart="0.1" departLane="0" departPos="2.5" departSpeed="8.6903752" id="338" type="passenger">
		<route edges=":39_4 340 32"/>
	</vehicle>
	<vehicle depart="0.1" departLane="0" departPos="53.03456637636291" departSpeed="5.0394638e-05" id="344" type="passenger">
		<route edges="31 343"/>
	</vehicle>
	<vehicle depart="0.1" departLane="0" departPos="43.57146298639059" departSpeed="0.0" id="347" type="passenger">
		<route edges="26 41"/>
	</vehicle>
	<vehicle depart="0.1" departLane="0" departPos="36.35632535006056" departSpeed="0.00010077755" id="349" type="passenger">
		<route edges="26 41"/>
	</vehicle>
	<vehicle depart="0.1" departLane="0" departPos="52.34249641263002" departSpeed="16.570693" id="353" type="passenger">
		<route edges="339 336"/>
	</vehicle>
	<vehicle depart="0.1" departLane="0" departPos="41.315479912304404" departSpeed="0.0026949943" id="354" type="passenger">
		<route edges="31 343"/>
	</vehicle>
	<vehicle depart="0.1" departLane="0" departPos="28.874885273587697" departSpeed="0.00082344194" id="355" type="passenger">
		<route edges="26 41"/>
	</vehicle>
	<vehicle depart="0.1" departLane="0" departPos="34.08142655988763" departSpeed="0.012441522" id="357" type="passenger">
		<route edges="31 343"/>
	</vehicle>
	<vehicle depart="0.1" departLane="0" departPos="32.56013999908032" departSpeed="14.918486" id="358" type="passenger">
		<route edges="339 16"/>
	</vehicle>
	<vehicle depart="0.1" departLane="0" departPos="14.327177052383112" departSpeed="13.144509" id="362" type="passenger">
		<route edges="339 16"/>
	</vehicle>
	<vehicle depart="0.1" departLane="0" departPos="27.217178513504564" departSpeed="0.041449931" id="363" type="passenger">
		<route edges="31 343"/>
	</vehicle>
	<vehicle depart="0.1" departLane="0" departPos="21.386643109717745" departSpeed="0.78100101" id="365" type="passenger">
		<route edges="40 29"/>
	</vehicle>
	<vehicle depart="0.1" departLane="0" departPos="14.612055797736282" departSpeed="12.045672" id="367" type="passenger">
		<route edges=":37_10 339 16"/>
	</vehicle>
	<vehicle depart="0.1" departLane="0" departPos="68.22434158903597" departSpeed="10.928635" id="370" type="passenger">
		<route edges="342 339 16"/>
	</vehicle>
	<vehicle depart="0.1" departLane="0" departPos="7.162801133173332" departSpeed="0.015901545" id="372" type="passenger">
		<route edges="26 41"/>
	</vehicle>
	<vehicle depart="0.1" departLane="0" departPos="13.654000809860406" departSpeed="0.93080316" id="373" type="passenger">
		<route edges="40 29"/>
	</vehicle>
	<vehicle depart="0.1" departLane="0" departPos="37.61379874541841" departSpeed="8.8849118" id="376" type="passenger">
		<route edges="342 339 16"/>
	</vehicle>
	<vehicle depart="0.1" departLane="0" departPos="23.503308343054616" departSpeed="7.8032249" id="378" type="passenger">
		<route edges="342 339 16"/>
	</vehicle>
	<vehicle depart="0.1" departLane="0" departPos="10.848327345786428" departSpeed="4.8058691" id="379" type="passenger">
		<route edges="342 339 16"/>
	</vehicle>
	<vehicle depart="0.1" departLane="0" departPos="6.021889807290437" departSpeed="0.7681749" id="380" type="passenger">
		<route edges="40 29"/>
	</vehicle>
	<vehicle depart="0.1" departLane="0" departPos="32.16400104438195" departSpeed="11.590742" id="35" type="motorcycle">
		<route edges="25"/>
	</vehicle>
	<vehicle depart="0.1" departLane="0" departPos="48.13087344020065" departSpeed="0.0" id="331" type="motorcycle">
		<route edges="26 41"/>
	</vehicle>
	<vehicle depart="0.1" departLane="0" departPos="45.92174583685924" departSpeed="0.00048006772" id="346" type="motorcycle">
		<route edges="31 343"/>
	</vehicle>
	<vehicle depart="0.1" departLane="0" departPos="69.91643923764924" departSpeed="0.0" id="326" type="truck">
		<route edges="31 343"/>
	</vehicle>
	<vehicle depart="0.1" departLane="0" departPos="19.99096909929645" departSpeed="0.11805321" id="369" type="truck">
		<route edges="31 343"/>
	</vehicle>
	<vehicle depart="0.1" departLane="0" departPos="9.722492426135771" departSpeed="0.27246144" id="377" type="truck">
		<route edges="31 343"/>
	</vehicle>
</routes>
