<routes>
	<vehicle depart="0.1" departLane="0" departPos="35.761964584342" departSpeed="0.0" id="321" type="bus">
		<route edges=":42_0 61452"/>
	</vehicle>
	<vehicle depart="0.1" departLane="0" departPos="11.757151123664858" departSpeed="13.532661" id="310" type="passenger">
		<route edges=":40_0 61432 61448"/>
	</vehicle>
	<vehicle depart="0.1" departLane="0" departPos="22.415712149977384" departSpeed="2.2639351" id="311" type="passenger">
		<route edges=":40_2 61486 61519"/>
	</vehicle>
	<vehicle depart="0.1" departLane="0" departPos="2.5" departSpeed="0.0" id="314" type="passenger">
		<route edges="61471 61620"/>
	</vehicle>
	<vehicle depart="0.1" departLane="0" departPos="2.5" departSpeed="0.83323988" id="320" type="passenger">
		<route edges=":41_1 61519"/>
	</vehicle>
	<vehicle depart="0.1" departLane="0" departPos="19.242628564123397" departSpeed="1.6257231" id="324" type="passenger">
		<route edges=":42_0 61452"/>
	</vehicle>
	<vehicle depart="0.1" departLane="0" departPos="4.3287465135188326" departSpeed="0.0" id="32" type="motorcycle">
		<route edges="61447 61452"/>
	</vehicle>
	<vehicle depart="0.1" departLane="0" departPos="17.388949361911482" departSpeed="6.8832055" id="328" type="motorcycle">
		<route edges=":38_2 61441 61620"/>
	</vehicle>
</routes>
