<routes>
	<vehicle depart="0.1" departLane="0" departPos="118.1463840400063" departSpeed="6.5287525" id="39" type="bicycle">
		<route edges=":56_2 66175 66664"/>
	</vehicle>
	<vehicle depart="0.1" departLane="0" departPos="38.23890035664286" departSpeed="8.1285881" id="357" type="bus">
		<route edges="66173 66176"/>
	</vehicle>
	<vehicle depart="0.1" departLane="0" departPos="32.6221209679313" departSpeed="0.046252823" id="31" type="passenger">
		<route edges=":55_4 66667 66176"/>
	</vehicle>
	<vehicle depart="0.1" departLane="0" departPos="62.00963145023938" departSpeed="0.042157822" id="38" type="passenger">
		<route edges="66665 66172"/>
	</vehicle>
	<vehicle depart="0.1" departLane="0" departPos="31.93768881634845" departSpeed="0.060635037" id="328" type="passenger">
		<route edges=":51_11 66668 66510"/>
	</vehicle>
	<vehicle depart="0.1" departLane="0" departPos="4.525992062900628" departSpeed="3.3437423" id="336" type="passenger">
		<route edges=":51_9 66664"/>
	</vehicle>
	<vehicle depart="0.1" departLane="0" departPos="2.5" departSpeed="4.4383625" id="352" type="passenger">
		<route edges="66668 66506"/>
	</vehicle>
	<vehicle depart="0.1" departLane="0" departPos="9.867215977307552" departSpeed="11.029731" id="353" type="passenger">
		<route edges=":51_5 66664"/>
	</vehicle>
	<vehicle depart="0.1" departLane="0" departPos="15.894672981801692" departSpeed="6.0867152" id="358" type="motorcycle">
		<route edges="66173 66176"/>
	</vehicle>
	<vehicle depart="0.1" departLane="0" departPos="22.74519262733678" departSpeed="3.040891" id="30" type="truck">
		<route edges=":51_2 66172"/>
	</vehicle>
</routes>
