<routes>
	<vehicle depart="0.1" departLane="0" departPos="11.120499268491852" departSpeed="1.3005757" id="31" type="passenger">
		<route edges=":45_2 53201"/>
	</vehicle>
	<vehicle depart="0.1" departLane="0" departPos="18.086798632368026" departSpeed="8.0235368" id="35" type="passenger">
		<route edges=":41_7 53304 53306 53289"/>
	</vehicle>
	<vehicle depart="0.1" departLane="0" departPos="54.81279630904375" departSpeed="0.20352791" id="37" type="passenger">
		<route edges="53279 53153"/>
	</vehicle>
	<vehicle depart="0.1" departLane="0" departPos="14.787852616464676" departSpeed="1.5863164" id="313" type="passenger">
		<route edges="53153 53304"/>
	</vehicle>
	<vehicle depart="0.1" departLane="0" departPos="71.05592907446511" departSpeed="0.04150488" id="314" type="passenger">
		<route edges="53279 53153 53304"/>
	</vehicle>
	<vehicle depart="0.1" departLane="0" departPos="6.521592316316934" departSpeed="5.9423847" id="322" type="passenger">
		<route edges=":41_7 53304"/>
	</vehicle>
	<vehicle depart="0.1" departLane="1" departPos="10.169342941913278" departSpeed="5.2763723" id="324" type="passenger">
		<route edges=":45_2 53201"/>
	</vehicle>
	<vehicle depart="0.1" departLane="0" departPos="18.7223775811281" departSpeed="0.0" id="333" type="passenger">
		<route edges=":46_1 53273 53199 53178"/>
	</vehicle>
	<vehicle depart="0.1" departLane="0" departPos="1.25" departSpeed="0.16458253" id="34" type="motorcycle">
		<route edges=":45_2 53201"/>
	</vehicle>
	<vehicle depart="0.1" departLane="0" departPos="16.450820509565204" departSpeed="1.372533" id="30" type="truck">
		<route edges="53414 53278"/>
	</vehicle>
</routes>
