<!-- generated on Tue Feb  9 22:18:39 2021 by Eclipse SUMO netconvert Version 1.8.0
<configuration xmlns:xsi="http://www.w3.org/2001/XMLSchema-instance" xsi:noNamespaceSchemaLocation="http://sumo.dlr.de/xsd/netconvertConfiguration.xsd">

    <input>
        <node-files value="./converted_scenarios/scenario-factory/DEU_Moelln-12_1_I-1-1/DEU_Moelln-12_1_I-1-1.nod.xml"/>
        <edge-files value="./converted_scenarios/scenario-factory/DEU_Moelln-12_1_I-1-1/DEU_Moelln-12_1_I-1-1.edg.xml"/>
        <connection-files value="./converted_scenarios/scenario-factory/DEU_Moelln-12_1_I-1-1/DEU_Moelln-12_1_I-1-1.con.xml"/>
        <tllogic-files value="./converted_scenarios/scenario-factory/DEU_Moelln-12_1_I-1-1/DEU_Moelln-12_1_I-1-1.tll.xml"/>
        <type-files value="/home/zen/commonroad-interactive-benchmarks/install/commonroad-map-tool/crmapconverter/sumo_map/templates/DEU.typ.xml"/>
    </input>

    <output>
        <output-file value="./converted_scenarios/scenario-factory/DEU_Moelln-12_1_I-1-1/DEU_Moelln-12_1_I-1-1.net.xml"/>
    </output>

    <processing>
        <geometry.remove.keep-edges.explicit value="true"/>
        <geometry.avoid-overlap value="true"/>
        <offset.disable-normalization value="true"/>
    </processing>

    <junctions>
        <no-turnarounds value="true"/>
        <junctions.internal-link-detail value="20"/>
    </junctions>

    <report>
        <aggregate-warnings value="5"/>
    </report>

    <random_number>
        <seed value="1234"/>
    </random_number>

</configuration>
--><net xmlns:xsi="http://www.w3.org/2001/XMLSchema-instance" version="1.6" junctionCornerDetail="5" junctionLinkDetail="20" limitTurnSpeed="5.50" xsi:noNamespaceSchemaLocation="http://sumo.dlr.de/xsd/net_file.xsd">

    <location netOffset="0.00,0.00" convBoundary="-285.77,649.86,-86.05,806.74" origBoundary="-285.77,649.86,-86.05,806.74" projParameter="!"/>

    <type id="highway.bridleway" priority="1" speed="2.78" allow="pedestrian" oneway="1" width="2.00"/>
    <type id="highway.bus_guideway" priority="1" speed="27.78" allow="bus" oneway="1"/>
    <type id="highway.cycleway" priority="1" speed="8.33" allow="bicycle" oneway="0" width="1.00"/>
    <type id="highway.footway" priority="1" speed="2.78" allow="pedestrian" oneway="1" width="2.00"/>
    <type id="highway.ford" priority="1" speed="2.78" allow="army" oneway="0"/>
    <type id="highway.living_street" priority="2" speed="2.78" disallow="tram rail_urban rail rail_electric rail_fast ship" oneway="0"/>
    <type id="highway.motorway" priority="14" speed="39.44" allow="private emergency authority army vip passenger hov taxi bus coach delivery truck trailer motorcycle evehicle custom1 custom2" oneway="1"/>
    <type id="highway.motorway_link" priority="9" speed="22.22" allow="private emergency authority army vip passenger hov taxi bus coach delivery truck trailer motorcycle evehicle custom1 custom2" oneway="1"/>
    <type id="highway.path" priority="1" speed="2.78" allow="pedestrian bicycle" oneway="0" width="2.00"/>
    <type id="highway.pedestrian" priority="1" speed="2.78" allow="pedestrian" oneway="1" width="2.00"/>
    <type id="highway.primary" priority="12" speed="27.78" disallow="pedestrian tram rail_urban rail rail_electric rail_fast ship" oneway="0"/>
    <type id="highway.primary_link" priority="7" speed="22.22" disallow="pedestrian tram rail_urban rail rail_electric rail_fast ship" oneway="0"/>
    <type id="highway.raceway" priority="15" speed="83.33" allow="vip" oneway="0"/>
    <type id="highway.residential" priority="3" speed="13.89" disallow="pedestrian tram rail_urban rail rail_electric rail_fast ship" oneway="0"/>
    <type id="highway.secondary" priority="11" speed="27.78" disallow="pedestrian tram rail_urban rail rail_electric rail_fast ship" oneway="0"/>
    <type id="highway.secondary_link" priority="6" speed="22.22" disallow="pedestrian tram rail_urban rail rail_electric rail_fast ship" oneway="0"/>
    <type id="highway.service" priority="1" speed="5.56" allow="pedestrian delivery bicycle" oneway="0"/>
    <type id="highway.stairs" priority="1" speed="1.39" allow="pedestrian" oneway="1" width="2.00"/>
    <type id="highway.step" priority="1" speed="1.39" allow="pedestrian" oneway="1" width="2.00"/>
    <type id="highway.steps" priority="1" speed="1.39" allow="pedestrian" oneway="1" width="2.00"/>
    <type id="highway.tertiary" priority="10" speed="22.22" disallow="pedestrian tram rail_urban rail rail_electric rail_fast ship" oneway="0"/>
    <type id="highway.tertiary_link" priority="5" speed="22.22" disallow="pedestrian tram rail_urban rail rail_electric rail_fast ship" oneway="0"/>
    <type id="highway.track" priority="1" speed="5.56" allow="pedestrian motorcycle moped bicycle" oneway="0"/>
    <type id="highway.trunk" priority="13" speed="27.78" disallow="pedestrian bicycle tram rail_urban rail rail_electric rail_fast ship" oneway="0"/>
    <type id="highway.trunk_link" priority="8" speed="22.22" disallow="pedestrian bicycle tram rail_urban rail rail_electric rail_fast ship" oneway="0"/>
    <type id="highway.unclassified" priority="4" speed="13.89" disallow="pedestrian tram rail_urban rail rail_electric rail_fast ship" oneway="0"/>
    <type id="highway.unsurfaced" priority="1" speed="8.33" disallow="tram rail_urban rail rail_electric rail_fast ship" oneway="0"/>
    <type id="railway.highspeed" priority="21" speed="69.44" allow="rail_fast" oneway="1"/>
    <type id="railway.light_rail" priority="19" speed="27.78" allow="rail_urban" oneway="1"/>
    <type id="railway.preserved" priority="16" speed="27.78" allow="rail" oneway="1"/>
    <type id="railway.rail" priority="20" speed="44.44" allow="rail" oneway="1"/>
    <type id="railway.subway" priority="18" speed="27.78" allow="rail_urban" oneway="1"/>
    <type id="railway.tram" priority="17" speed="13.89" allow="tram" oneway="1"/>

    <edge id=":24_0" function="internal">
        <lane id=":24_0_0" index="0" disallow="pedestrian tram rail_urban rail rail_electric rail_fast ship" speed="36.11" length="3.00" width="3.50" shape="-226.61,720.01 -226.04,717.06"/>
    </edge>
    <edge id=":38_0" function="internal">
        <lane id=":38_0_0" index="0" disallow="pedestrian tram rail_urban rail rail_electric rail_fast ship" speed="36.11" length="3.00" width="3.50" shape="-222.60,717.73 -223.17,720.68"/>
    </edge>
    <edge id=":41_0" function="internal">
        <lane id=":41_0_0" index="0" disallow="pedestrian tram rail_urban rail rail_electric rail_fast ship" speed="36.11" length="20.10" width="3.50" shape="-218.23,748.95 -223.35,748.30 -232.04,747.51 -236.09,746.84 -238.14,746.36"/>
    </edge>
    <edge id=":41_1" function="internal">
        <lane id=":41_1_0" index="0" disallow="pedestrian tram rail_urban rail rail_electric rail_fast ship" speed="9.60" length="21.16" width="3.49" shape="-218.23,748.96 -221.23,748.32 -224.11,747.40 -225.49,746.78 -226.80,746.03 -228.00,745.10 -229.02,743.99 -229.77,742.68 -230.21,741.23 -230.32,739.73 -229.58,735.30"/>
    </edge>
    <edge id=":41_2" function="internal">
        <lane id=":41_2_0" index="0" disallow="pedestrian tram rail_urban rail rail_electric rail_fast ship" speed="8.30" length="15.57" width="3.50" shape="-226.14,735.93 -226.82,739.75 -226.75,740.61 -226.45,741.42 -225.92,742.17 -225.20,742.83 -224.34,743.40 -223.36,743.90 -222.32,744.32 -220.03,745.02 -217.66,745.50"/>
    </edge>
    <edge id=":41_3" function="internal">
        <lane id=":41_3_0" index="0" disallow="pedestrian tram rail_urban rail rail_electric rail_fast ship" speed="36.11" length="18.02" width="3.50" shape="-226.14,735.93 -227.00,741.44 -226.94,744.01 -226.37,748.08 -225.56,753.16 -225.52,753.78"/>
    </edge>
    <edge id=":41_4" function="internal">
        <lane id=":41_4_0" index="0" disallow="pedestrian tram rail_urban rail rail_electric rail_fast ship" speed="8.98" length="18.92" width="3.50" shape="-226.14,735.93 -227.34,741.25 -228.06,742.93 -229.08,744.45 -229.94,745.31 -230.94,746.00 -232.06,746.49 -233.86,746.84 -235.69,746.82 -238.14,746.36"/>
    </edge>
    <edge id=":41_5" function="internal">
        <lane id=":41_5_0" index="0" disallow="pedestrian tram rail_urban rail rail_electric rail_fast ship" speed="6.72" length="10.13" width="3.49" shape="-236.37,739.59 -233.98,740.06 -232.80,740.10 -231.64,739.90 -231.10,739.66 -230.65,739.28 -230.33,738.78 -229.58,735.30"/>
    </edge>
    <edge id=":41_6" function="internal">
        <lane id=":41_6_0" index="0" disallow="pedestrian tram rail_urban rail rail_electric rail_fast ship" speed="36.11" length="19.65" width="3.50" shape="-236.37,739.58 -231.88,740.99 -223.16,744.13 -219.19,745.21 -217.66,745.50"/>
    </edge>
    <edge id=":41_7" function="internal">
        <lane id=":41_7_0" index="0" disallow="pedestrian tram rail_urban rail rail_electric rail_fast ship" speed="9.52" length="16.93" width="3.50" shape="-237.25,742.97 -234.49,743.85 -231.92,745.04 -230.02,746.29 -228.74,747.41 -227.64,748.71 -226.74,750.15 -226.07,751.72 -225.64,753.36 -225.60,753.78"/>
    </edge>
    <edge id=":41_8" function="internal">
        <lane id=":41_8_0" index="0" disallow="pedestrian tram rail_urban rail rail_electric rail_fast ship" speed="6.00" length="9.52" width="3.50" shape="-234.60,751.88 -232.80,748.98 -233.09,748.46 -234.08,747.77 -236.34,746.88 -238.14,746.36"/>
    </edge>
    <edge id=":41_9" function="internal">
        <lane id=":41_9_0" index="0" disallow="pedestrian tram rail_urban rail rail_electric rail_fast ship" speed="24.15" length="17.49" width="3.49" shape="-234.60,751.88 -232.35,748.07 -231.10,742.91 -229.58,735.30"/>
    </edge>
    <edge id=":41_10" function="internal">
        <lane id=":41_10_0" index="0" disallow="pedestrian tram rail_urban rail rail_electric rail_fast ship" speed="11.44" length="19.55" width="3.50" shape="-234.60,751.88 -231.90,748.32 -230.68,747.27 -229.29,746.43 -227.29,745.65 -225.18,745.21 -222.50,745.05 -219.27,745.26 -217.66,745.50"/>
    </edge>
    <edge id=":41_11" function="internal">
        <lane id=":41_11_0" index="0" disallow="pedestrian tram rail_urban rail rail_electric rail_fast ship" speed="7.12" length="19.16" width="3.50" shape="-234.60,751.88 -231.14,747.28 -229.74,745.96 -228.92,745.45 -227.99,745.22 -227.10,745.53 -226.50,746.27 -226.11,747.16 -225.68,749.04 -225.41,751.92 -225.40,753.79"/>
    </edge>
    <edge id=":42_0" function="internal">
        <lane id=":42_0_0" index="0" disallow="pedestrian tram rail_urban rail rail_electric rail_fast ship" speed="8.52" length="10.90" width="3.48" shape="-220.25,766.87 -221.03,768.00 -222.30,770.41 -223.25,772.96 -223.84,775.61 -223.96,776.97"/>
    </edge>
    <edge id=":42_1" function="internal">
        <lane id=":42_1_0" index="0" disallow="pedestrian tram rail_urban rail rail_electric rail_fast ship" speed="36.11" length="13.45" width="3.48" shape="-225.48,763.77 -225.50,765.15 -225.24,771.77 -224.74,777.19"/>
    </edge>
    <edge id=":43_0" function="internal">
        <lane id=":43_0_0" index="0" disallow="pedestrian tram rail_urban rail rail_electric rail_fast ship" speed="20.81" length="38.86" width="3.50" shape="-167.43,754.12 -176.65,753.67 -184.33,753.63 -190.99,753.92 -196.59,754.49 -201.64,755.37 -205.61,756.39 -206.01,756.53"/>
    </edge>
    <edge id=":43_1" function="internal">
        <lane id=":43_1_0" index="0" disallow="pedestrian tram rail_urban rail rail_electric rail_fast ship" speed="36.11" length="50.87" width="3.50" shape="-167.43,754.12 -188.13,752.52 -202.59,751.09 -213.91,749.64 -218.02,748.99"/>
    </edge>
    <edge id=":43_2" function="internal">
        <lane id=":43_2_0" index="0" disallow="pedestrian tram rail_urban rail rail_electric rail_fast ship" speed="36.11" length="50.52" width="3.50" shape="-217.44,745.54 -213.39,746.18 -202.15,747.62 -187.78,749.04 -167.19,750.63"/>
    </edge>
    <edge id=":43_3" function="internal">
        <lane id=":43_3_0" index="0" disallow="pedestrian tram rail_urban rail rail_electric rail_fast ship" speed="6.63" length="14.38" width="3.50" shape="-217.44,745.54 -214.28,746.22 -211.99,746.98 -210.55,747.68 -209.24,748.62 -208.70,749.21 -208.26,749.88 -207.98,750.63 -207.87,751.43 -207.92,752.23 -208.11,753.01 -208.39,753.66"/>
    </edge>
    <edge id=":44_0" function="internal">
        <lane id=":44_0_0" index="0" disallow="pedestrian tram rail_urban rail rail_electric rail_fast ship" speed="36.11" length="25.67" width="3.50" shape="-213.91,802.90 -217.59,798.60 -221.92,792.87 -227.13,785.24 -229.08,782.23"/>
    </edge>
    <edge id=":44_1" function="internal">
        <lane id=":44_1_0" index="0" disallow="pedestrian tram rail_urban rail rail_electric rail_fast ship" speed="25.32" length="25.24" width="3.50" shape="-224.78,779.68 -222.34,787.47 -220.22,790.40 -215.53,795.92 -211.35,800.52"/>
    </edge>
    <edge id=":45_0" function="internal">
        <lane id=":45_0_0" index="0" disallow="pedestrian tram rail_urban rail rail_electric rail_fast ship" speed="17.07" length="21.38" width="3.50" shape="-239.87,747.95 -240.20,747.88 -241.97,746.84 -246.20,744.97 -253.91,742.14 -259.74,740.18"/>
    </edge>
    <edge id=":45_1" function="internal">
        <lane id=":45_1_0" index="0" disallow="pedestrian tram rail_urban rail rail_electric rail_fast ship" speed="36.11" length="23.67" width="3.50" shape="-236.98,746.66 -251.21,742.78 -259.74,740.18"/>
    </edge>
    <edge id=":45_2" function="internal">
        <lane id=":45_2_0" index="0" disallow="pedestrian tram rail_urban rail rail_electric rail_fast ship" speed="36.11" length="23.13" width="3.50" shape="-257.47,733.56 -249.21,736.07 -235.23,739.89"/>
        <lane id=":45_2_1" index="1" disallow="pedestrian tram rail_urban rail rail_electric rail_fast ship" speed="36.11" length="23.42" width="3.50" shape="-258.64,736.86 -250.17,739.43 -236.12,743.27"/>
    </edge>
    <edge id=":46_0" function="internal">
        <lane id=":46_0_0" index="0" disallow="pedestrian tram rail_urban rail rail_electric rail_fast ship" speed="36.11" length="20.69" width="3.47" shape="-235.15,768.08 -236.05,762.63 -236.70,756.51 -237.31,753.49 -238.13,751.07 -239.06,749.24 -239.77,748.12"/>
    </edge>
    <edge id=":46_1" function="internal">
        <lane id=":46_1_0" index="0" disallow="pedestrian tram rail_urban rail rail_electric rail_fast ship" speed="12.80" length="17.96" width="3.44" shape="-235.15,768.08 -236.02,763.00 -236.15,759.80 -235.94,757.15 -235.39,754.54 -234.66,752.54 -233.67,750.63"/>
    </edge>
    <edge id=":6_0" function="internal">
        <lane id=":6_0_0" index="0" disallow="pedestrian tram rail_urban rail rail_electric rail_fast ship" speed="36.11" length="3.01" width="3.50" shape="-111.51,757.95 -114.51,757.74"/>
    </edge>
    <edge id=":8_0" function="internal">
        <lane id=":8_0_0" index="0" disallow="pedestrian tram rail_urban rail rail_electric rail_fast ship" speed="36.11" length="3.01" width="3.50" shape="-114.27,754.25 -111.27,754.46"/>
    </edge>

    <edge id="53153" from="38" to="41" priority="3" type="highway.residential" spreadType="center" length="15.54" shape="-222.89,719.20 -226.47,745.82">
        <lane id="53153_0" index="0" disallow="pedestrian tram rail_urban rail rail_electric rail_fast ship" speed="36.11" length="15.54" width="3.50" customShape="1" shape="-223.17,720.68 -224.78,728.92 -226.14,735.93"/>
    </edge>
    <edge id="53167" from="43" to="42" priority="3" type="highway.residential" spreadType="center" length="17.56">
        <lane id="53167_0" index="0" disallow="pedestrian tram rail_urban rail rail_electric rail_fast ship" speed="36.11" length="17.56" width="3.50" customShape="1" shape="-207.39,754.87 -214.82,761.04 -220.90,766.08"/>
    </edge>
    <edge id="53178" from="45" to="36" priority="3" type="highway.residential" spreadType="center" length="27.99" shape="-247.05,743.97 -285.77,729.93">
        <lane id="53178_0" index="0" disallow="pedestrian tram rail_urban rail rail_electric rail_fast ship" speed="36.11" length="27.99" width="3.50" customShape="1" shape="-259.74,740.18 -265.15,738.33 -274.35,734.83 -285.77,729.93"/>
    </edge>
    <edge id="53180" from="37" to="45" priority="3" type="highway.residential" spreadType="center" length="27.39" shape="-283.64,725.13 -245.06,739.13">
        <lane id="53180_0" index="0" disallow="pedestrian tram rail_urban rail rail_electric rail_fast ship" speed="36.11" length="27.39" width="3.50" customShape="1" shape="-282.95,723.53 -271.81,728.30 -262.85,731.72 -257.47,733.56"/>
        <lane id="53180_1" index="1" disallow="pedestrian tram rail_urban rail rail_electric rail_fast ship" speed="36.11" length="27.66" width="3.50" customShape="1" shape="-284.34,726.74 -273.05,731.58 -263.97,735.04 -258.61,736.87"/>
    </edge>
    <edge id="53185" from="46" to="45" priority="3" type="highway.residential" spreadType="center" length="0.20">
        <lane id="53185_0" index="0" disallow="pedestrian tram rail_urban rail rail_electric rail_fast ship" speed="36.11" length="0.20" width="3.47" customShape="1" shape="-239.77,748.12 -239.87,747.95"/>
    </edge>
    <edge id="53199" from="41" to="45" priority="3" type="highway.residential" spreadType="center" length="0.20" shape="-228.48,747.20 -246.99,743.99">
        <lane id="53199_0" index="0" disallow="pedestrian tram rail_urban rail rail_electric rail_fast ship" speed="36.11" length="0.20" width="3.50" customShape="1" shape="-236.79,746.71 -236.98,746.66"/>
    </edge>
    <edge id="53201" from="45" to="41" priority="3" type="highway.residential" spreadType="center" length="0.20" shape="-246.58,738.80 -227.59,742.03">
        <lane id="53201_0" index="0" disallow="pedestrian tram rail_urban rail rail_electric rail_fast ship" speed="36.11" length="0.20" width="3.50" customShape="1" shape="-235.23,739.89 -235.04,739.94"/>
        <lane id="53201_1" index="1" disallow="pedestrian tram rail_urban rail rail_electric rail_fast ship" speed="36.11" length="0.20" width="3.50" customShape="1" shape="-236.12,743.27 -235.93,743.32"/>
    </edge>
    <edge id="53273" from="46" to="41" priority="3" type="highway.residential" spreadType="center" length="0.20">
        <lane id="53273_0" index="0" disallow="pedestrian tram rail_urban rail rail_electric rail_fast ship" speed="36.11" length="0.20" width="3.44" customShape="1" shape="-234.72,752.04 -234.60,751.88"/>
    </edge>
    <edge id="53278" from="24" to="25" priority="3" type="highway.residential" spreadType="center" length="68.50">
        <lane id="53278_0" index="0" disallow="pedestrian tram rail_urban rail rail_electric rail_fast ship" speed="36.11" length="68.50" width="3.50" customShape="1" shape="-226.04,717.06 -215.59,663.28 -212.76,649.86"/>
    </edge>
    <edge id="53279" from="39" to="38" priority="3" type="highway.residential" spreadType="center" length="68.50">
        <lane id="53279_0" index="0" disallow="pedestrian tram rail_urban rail rail_electric rail_fast ship" speed="36.11" length="68.50" width="3.50" customShape="1" shape="-209.32,650.53 -212.14,663.86 -222.60,717.73"/>
    </edge>
    <edge id="53281" from="44" to="46" priority="3" type="highway.residential" spreadType="center" length="15.47" shape="-220.94,793.63 -235.96,755.08">
        <lane id="53281_0" index="0" disallow="pedestrian tram rail_urban rail rail_electric rail_fast ship" speed="36.11" length="15.47" width="3.50" customShape="1" shape="-229.08,782.23 -231.16,778.70 -232.93,775.00 -234.19,771.65 -235.15,768.08"/>
    </edge>
    <edge id="53283" from="6" to="43" priority="3" type="highway.residential" spreadType="center" length="53.04" shape="-113.01,757.85 -197.08,753.79">
        <lane id="53283_0" index="0" disallow="pedestrian tram rail_urban rail rail_electric rail_fast ship" speed="36.11" length="53.04" width="3.50" customShape="1" shape="-114.51,757.74 -140.22,755.98 -167.43,754.12"/>
    </edge>
    <edge id="53284" from="43" to="8" priority="3" type="highway.residential" spreadType="center" length="53.04" shape="-196.91,750.30 -112.77,754.36">
        <lane id="53284_0" index="0" disallow="pedestrian tram rail_urban rail rail_electric rail_fast ship" speed="36.11" length="53.04" width="3.50" customShape="1" shape="-167.19,750.63 -139.98,752.49 -114.27,754.25"/>
    </edge>
    <edge id="53289" from="44" to="23" priority="3" type="highway.residential" spreadType="center" length="5.25" shape="-218.11,791.68 -207.78,804.37">
        <lane id="53289_0" index="0" disallow="pedestrian tram rail_urban rail rail_electric rail_fast ship" speed="36.11" length="5.25" width="3.50" customShape="1" shape="-211.35,800.52 -211.27,800.60 -211.18,800.70 -207.78,804.37"/>
    </edge>
    <edge id="53290" from="26" to="44" priority="3" type="highway.residential" spreadType="center" length="5.27" shape="-210.35,806.74 -220.81,793.88">
        <lane id="53290_0" index="0" disallow="pedestrian tram rail_urban rail rail_electric rail_fast ship" speed="36.11" length="5.27" width="3.50" customShape="1" shape="-210.35,806.74 -213.75,803.08 -213.83,802.98 -213.93,802.88"/>
    </edge>
    <edge id="53304" from="41" to="42" priority="3" type="highway.residential" spreadType="center" length="9.98">
        <lane id="53304_0" index="0" disallow="pedestrian tram rail_urban rail rail_electric rail_fast ship" speed="36.11" length="9.98" width="3.50" customShape="1" shape="-225.30,753.79 -225.40,756.88 -225.63,763.76"/>
    </edge>
    <edge id="53306" from="42" to="44" priority="3" type="highway.residential" spreadType="center" length="2.40" shape="-221.14,767.99 -217.61,792.80">
        <lane id="53306_0" index="0" disallow="pedestrian tram rail_urban rail rail_electric rail_fast ship" speed="36.11" length="2.40" width="3.48" customShape="1" shape="-225.42,777.37 -224.78,779.68"/>
    </edge>
    <edge id="53313" from="43" to="41" priority="3" type="highway.residential" spreadType="center" length="0.23" shape="-197.22,753.77 -228.55,747.19">
        <lane id="53313_0" index="0" disallow="pedestrian tram rail_urban rail rail_electric rail_fast ship" speed="36.11" length="0.23" width="3.50" customShape="1" shape="-218.02,748.99 -218.14,748.97 -218.25,748.95"/>
    </edge>
    <edge id="53314" from="41" to="43" priority="3" type="highway.residential" spreadType="center" length="0.23" shape="-227.83,743.76 -196.50,750.36">
        <lane id="53314_0" index="0" disallow="pedestrian tram rail_urban rail rail_electric rail_fast ship" speed="36.11" length="0.23" width="3.50" customShape="1" shape="-217.66,745.50 -217.55,745.52 -217.43,745.54"/>
    </edge>
    <edge id="53414" from="41" to="24" priority="3" type="highway.residential" spreadType="center" length="15.58" shape="-229.93,745.35 -226.32,718.54">
        <lane id="53414_0" index="0" disallow="pedestrian tram rail_urban rail rail_electric rail_fast ship" speed="36.11" length="15.58" width="3.49" customShape="1" shape="-229.58,735.30 -228.21,728.26 -226.61,720.01"/>
    </edge>
    <edge id="53418" from="19" to="6" priority="3" type="highway.residential" spreadType="center" length="25.27">
        <lane id="53418_0" index="0" disallow="pedestrian tram rail_urban rail rail_electric rail_fast ship" speed="36.11" length="25.27" width="3.50" customShape="1" shape="-86.30,759.70 -99.65,758.78 -111.51,757.95"/>
    </edge>
    <edge id="53462" from="8" to="9" priority="3" type="highway.residential" spreadType="center" length="25.28">
        <lane id="53462_0" index="0" disallow="pedestrian tram rail_urban rail rail_electric rail_fast ship" speed="36.11" length="25.28" width="3.50" customShape="1" shape="-111.27,754.46 -99.41,755.28 -86.05,756.21"/>
    </edge>

    <junction id="19" type="dead_end" x="-86.30" y="759.70" incLanes="" intLanes="" shape="-86.18,757.96 -86.42,761.45" rightOfWay="edgePriority"/>
    <junction id="23" type="dead_end" x="-207.78" y="804.37" incLanes="53289_0" intLanes="" shape="-206.50,803.18 -209.07,805.55" rightOfWay="edgePriority"/>
    <junction id="24" type="priority" x="-226.32" y="718.54" incLanes="53414_0" intLanes=":24_0_0" shape="-224.32,717.40 -227.76,716.73 -228.32,719.68 -224.90,720.34" rightOfWay="edgePriority">
        <request index="0" response="0" foes="0" cont="0"/>
    </junction>
    <junction id="25" type="dead_end" x="-212.76" y="649.86" incLanes="53278_0" intLanes="" shape="-214.47,649.50 -211.04,650.23" rightOfWay="edgePriority"/>
    <junction id="26" type="dead_end" x="-210.35" y="806.74" incLanes="" intLanes="" shape="-209.07,805.55 -211.63,807.93" rightOfWay="edgePriority"/>
    <junction id="36" type="dead_end" x="-285.77" y="729.93" incLanes="53178_0" intLanes="" shape="-286.46,731.54 -285.09,728.32" rightOfWay="edgePriority"/>
    <junction id="37" type="dead_end" x="-283.64" y="725.13" incLanes="" intLanes="" shape="-285.02,728.35 -282.26,721.92" rightOfWay="edgePriority"/>
    <junction id="38" type="priority" x="-222.89" y="719.20" incLanes="53279_0" intLanes=":38_0_0" shape="-220.88,718.06 -224.32,717.40 -224.89,720.34 -221.46,721.01" rightOfWay="edgePriority">
        <request index="0" response="0" foes="0" cont="0"/>
    </junction>
    <junction id="39" type="dead_end" x="-209.32" y="650.53" incLanes="" intLanes="" shape="-211.03,650.17 -207.61,650.89" rightOfWay="edgePriority"/>
    <junction id="41" type="priority" x="-228.19" y="745.47" incLanes="53313_0 53153_0 53201_0 53201_1 53273_0" intLanes=":41_0_0 :41_1_0 :41_2_0 :41_3_0 :41_4_0 :41_5_0 :41_6_0 :41_7_0 :41_8_0 :41_9_0 :41_10_0 :41_11_0" shape="-227.05,753.73 -223.55,753.85 -222.93,751.72 -222.22,751.06 -221.25,750.66 -220.02,750.54 -218.52,750.68 -217.37,743.78 -219.86,743.19 -221.82,742.33 -223.26,741.21 -224.17,739.82 -224.55,738.17 -224.42,736.25 -231.30,734.99 -232.15,737.06 -232.84,737.68 -233.70,738.03 -234.73,738.10 -235.93,737.89 -238.58,748.05 -237.03,752.32 -234.23,754.32">
        <request index="0" response="000000000000" foes="011110011000" cont="0"/>
        <request index="1" response="000001100000" foes="111001111000" cont="0"/>
        <request index="2" response="000001000000" foes="010001000000" cont="0"/>
        <request index="3" response="000011000011" foes="110011000011" cont="0"/>
        <request index="4" response="111111000011" foes="111111000011" cont="0"/>
        <request index="5" response="000000000000" foes="001000000010" cont="0"/>
        <request index="6" response="000000000000" foes="011000011110" cont="0"/>
        <request index="7" response="000000000001" foes="111000011001" cont="0"/>
        <request index="8" response="000000000001" foes="000000010001" cont="0"/>
        <request index="9" response="000011100011" foes="000011110011" cont="0"/>
        <request index="10" response="000011001111" foes="000011011111" cont="0"/>
        <request index="11" response="000010001010" foes="000010011010" cont="0"/>
    </junction>
    <junction id="42" type="priority" x="-221.14" y="767.99" incLanes="53167_0 53304_0" intLanes=":42_0_0 :42_1_0" shape="-227.10,777.84 -223.74,776.91 -223.92,773.61 -223.45,772.02 -222.60,770.45 -221.38,768.92 -219.78,767.43 -222.02,764.73 -223.09,765.35 -223.46,765.31 -223.71,765.05 -223.86,764.55 -223.88,763.82 -227.38,763.70 -227.57,766.73 -227.83,768.99 -228.03,770.86 -228.06,772.71 -227.79,774.91">
        <request index="0" response="00" foes="10" cont="0"/>
        <request index="1" response="01" foes="01" cont="0"/>
    </junction>
    <junction id="43" type="priority" x="-196.96" y="752.05" incLanes="53283_0 53314_0" intLanes=":43_0_0 :43_1_0 :43_2_0 :43_3_0" shape="-167.55,755.86 -167.07,748.88 -177.73,748.21 -185.66,747.75 -192.22,747.29 -198.75,746.63 -206.61,745.54 -217.14,743.81 -218.31,750.72 -214.99,751.31 -212.35,751.85 -210.38,752.35 -209.08,752.79 -208.46,753.18 -208.50,753.53 -206.27,756.22 -199.57,751.81 -193.90,750.34 -188.56,750.91 -182.86,752.62 -176.09,754.57">
        <request index="0" response="0000" foes="1000" cont="0"/>
        <request index="1" response="0000" foes="1000" cont="0"/>
        <request index="2" response="0000" foes="0000" cont="0"/>
        <request index="3" response="0011" foes="0011" cont="0"/>
    </junction>
    <junction id="44" type="priority" x="-219.34" y="792.93" incLanes="53290_0 53306_0" intLanes=":44_0_0 :44_1_0" shape="-215.19,804.09 -210.06,799.33 -223.23,778.76 -230.58,783.12 -227.75,787.89 -225.61,791.41 -223.71,794.22 -221.63,796.90 -218.94,800.00">
        <request index="0" response="00" foes="00" cont="0"/>
        <request index="1" response="00" foes="00" cont="0"/>
    </junction>
    <junction id="45" type="priority" x="-246.53" y="742.30" incLanes="53185_0 53199_0 53180_0 53180_1" intLanes=":45_0_0 :45_1_0 :45_2_0 :45_2_1" shape="-239.70,751.45 -236.77,749.58 -236.13,748.69 -233.45,738.56 -256.91,731.91 -260.31,741.84">
        <request index="0" response="0010" foes="0010" cont="0"/>
        <request index="1" response="0000" foes="0001" cont="0"/>
        <request index="2" response="0000" foes="0000" cont="0"/>
        <request index="3" response="0000" foes="0000" cont="0"/>
    </junction>
    <junction id="46" type="priority" x="-235.96" y="755.08" incLanes="53281_0" intLanes=":46_0_0 :46_1_0" shape="-236.86,768.44 -233.43,767.72 -234.19,764.34 -234.57,761.24 -234.57,758.42 -234.19,755.87 -233.43,753.60 -232.30,751.61 -235.10,749.61 -238.71,746.54 -241.64,748.41">
        <request index="0" response="00" foes="00" cont="0"/>
        <request index="1" response="00" foes="00" cont="0"/>
    </junction>
    <junction id="6" type="priority" x="-113.01" y="757.85" incLanes="53418_0" intLanes=":6_0_0" shape="-111.63,759.70 -111.39,756.21 -114.39,756.00 -114.63,759.49" rightOfWay="edgePriority">
        <request index="0" response="0" foes="0" cont="0"/>
    </junction>
    <junction id="8" type="priority" x="-112.77" y="754.36" incLanes="53284_0" intLanes=":8_0_0" shape="-111.39,756.21 -111.15,752.71 -114.15,752.51 -114.39,756.00" rightOfWay="edgePriority">
        <request index="0" response="0" foes="0" cont="0"/>