<routes>
	<vehicle depart="0.1" departLane="0" departPos="33.14747165530249" departSpeed="0.0" id="315" type="bicycle">
		<route edges="262 103"/>
	</vehicle>
	<vehicle depart="0.1" departLane="0" departPos="92.05508962255779" departSpeed="6.8796719" id="317" type="bicycle">
		<route edges="107 110"/>
	</vehicle>
	<vehicle depart="0.1" departLane="0" departPos="21.01736187062686" departSpeed="12.916039" id="32" type="passenger">
		<route edges="106 103"/>
	</vehicle>
	<vehicle depart="0.1" departLane="0" departPos="56.110423210482075" departSpeed="0.0" id="35" type="passenger">
		<route edges="180 89"/>
	</vehicle>
	<vehicle depart="0.1" departLane="0" departPos="62.87086828063811" departSpeed="0.0" id="37" type="passenger">
		<route edges="180 89"/>
	</vehicle>
	<vehicle depart="0.1" departLane="0" departPos="33.403042117635906" departSpeed="0.0" id="38" type="passenger">
		<route edges="262 103"/>
	</vehicle>
	<vehicle depart="0.1" departLane="0" departPos="8.751876617690286" departSpeed="4.9417247" id="310" type="passenger">
		<route edges=":31_2 261"/>
	</vehicle>
	<vehicle depart="0.1" departLane="0" departPos="26.535304871404954" departSpeed="0.0" id="311" type="passenger">
		<route edges="262 103"/>
	</vehicle>
	<vehicle depart="0.1" departLane="0" departPos="22.620592017481073" departSpeed="12.947239" id="314" type="passenger">
		<route edges="110"/>
	</vehicle>
	<vehicle depart="0.1" departLane="0" departPos="24.17703506840626" departSpeed="0.0" id="316" type="passenger">
		<route edges="104 261"/>
	</vehicle>
	<vehicle depart="0.1" departLane="0" departPos="123.77619961334605" departSpeed="8.2760731" id="318" type="passenger">
		<route edges="106 103"/>
	</vehicle>
	<vehicle depart="0.1" departLane="0" departPos="48.94738832704988" departSpeed="0.0" id="319" type="passenger">
		<route edges="180 89"/>
	</vehicle>
	<vehicle depart="0.1" departLane="0" departPos="69.93062924135286" departSpeed="0.0" id="320" type="passenger">
		<route edges="109 106"/>
	</vehicle>
	<vehicle depart="0.1" departLane="0" departPos="103.59308748826527" departSpeed="9.9545721" id="321" type="passenger">
		<route edges="106 103"/>
	</vehicle>
	<vehicle depart="0.1" departLane="0" departPos="19.612193722726147" departSpeed="0.0" id="322" type="passenger">
		<route edges="262 103"/>
	</vehicle>
	<vehicle depart="0.1" departLane="0" departPos="41.44254529179095" departSpeed="2.5203188e-05" id="324" type="passenger">
		<route edges="180 89"/>
	</vehicle>
	<vehicle depart="0.1" departLane="0" departPos="16.922747913397615" departSpeed="0.0" id="325" type="passenger">
		<route edges="104 261"/>
	</vehicle>
	<vehicle depart="0.1" departLane="0" departPos="62.66306094467685" departSpeed="0.14118401" id="328" type="passenger">
		<route edges="109 106"/>
	</vehicle>
	<vehicle depart="0.1" departLane="0" departPos="10.064873525661888" departSpeed="0.0" id="329" type="passenger">
		<route edges="104 261"/>
	</vehicle>
	<vehicle depart="0.1" departLane="0" departPos="34.347573345410325" departSpeed="0.00023612533" id="330" type="passenger">
		<route edges="180 89"/>
	</vehicle>
	<vehicle depart="0.1" departLane="0" departPos="27.250570983870787" departSpeed="0.0015000831" id="333" type="passenger">
		<route edges="180 89"/>
	</vehicle>
	<vehicle depart="0.1" departLane="0" departPos="42.38586216515323" departSpeed="18.75068" id="338" type="passenger">
		<route edges="85 106 103"/>
	</vehicle>
	<vehicle depart="0.1" departLane="0" departPos="49.899526446106876" departSpeed="0.99026647" id="339" type="passenger">
		<route edges="109 106"/>
	</vehicle>
	<vehicle depart="0.1" departLane="0" departPos="41.25062042873665" departSpeed="1.3256809" id="341" type="passenger">
		<route edges="109 106"/>
	</vehicle>
	<vehicle depart="0.1" departLane="0" departPos="15.705115664253805" departSpeed="8.7030216" id="342" type="passenger">
		<route edges=":30_1 181"/>
	</vehicle>
	<vehicle depart="0.1" departLane="0" departPos="2.5" departSpeed="11.341128" id="343" type="passenger">
		<route edges=":30_0 85 106 103"/>
	</vehicle>
	<vehicle depart="0.1" departLane="0" departPos="32.174297812641285" departSpeed="1.51587" id="344" type="passenger">
		<route edges="109 106"/>
	</vehicle>
	<vehicle depart="0.1" departLane="0" departPos="53.63793521354602" departSpeed="10.306211" id="345" type="passenger">
		<route edges="88 85 106 103"/>
	</vehicle>
	<vehicle depart="0.1" departLane="0" departPos="22.78488303338917" departSpeed="1.9447736" id="346" type="passenger">
		<route edges="109 106"/>
	</vehicle>
	<vehicle depart="0.1" departLane="0" departPos="13.217282404796435" departSpeed="2.0159498" id="349" type="passenger">
		<route edges="109 106"/>
	</vehicle>
	<vehicle depart="0.1" departLane="0" departPos="5.6441746782445765" departSpeed="0.61918497" id="352" type="passenger">
		<route edges="109 106"/>
	</vehicle>
	<vehicle depart="0.1" departLane="0" departPos="61.630720910993816" departSpeed="17.827475" id="332" type="motorcycle">
		<route edges="106 103"/>
	</vehicle>
	<vehicle depart="0.1" departLane="0" departPos="55.40751960404024" departSpeed="0.53179572" id="334" type="motorcycle">
		<route edges="109 106"/>
	</vehicle>
	<vehicle depart="0.1" departLane="0" departPos="24.488159426404295" departSpeed="0.0" id="337" type="motorcycle">
		<route edges="104 261"/>
	</vehicle>
	<vehicle depart="0.1" departLane="0" departPos="12.78674469410521" departSpeed="0.0" id="327" type="truck">
		<route edges="262 103"/>
	</vehicle>
</routes>
