<!-- generated on 2020-12-18 16:18:34.819854 by ipykernel_launcher.py v1_2_0+5214-53edc58fcd
-->
<connections>
	<connection contPos="-4.0" from="34" fromLane="1" keepClear="true" to="39" toLane="1"/>
	<connection contPos="-4.0" from="34" fromLane="0" keepClear="true" to="39" toLane="0"/>
	<connection contPos="-4.0" from="35" fromLane="0" keepClear="true" to="40" toLane="0"/>
	<connection contPos="-4.0" from="35" fromLane="1" keepClear="true" to="42" toLane="0"/>
	<connection contPos="-4.0" from="39" fromLane="0" keepClear="true" to="38" toLane="0"/>
	<connection contPos="-4.0" from="40" fromLane="0" keepClear="true" to="32" toLane="0"/>
	<connection contPos="-4.0" from="39" fromLane="1" keepClear="true" to="38" toLane="1"/>
	<connection contPos="-4.0" from="42" fromLane="0" keepClear="true" to="32" toLane="0"/>
</connections>
