<!-- generated on 2020-12-18 16:18:34.664509 by ipykernel_launcher.py v1_2_0+5214-53edc58fcd
-->
<edges>
	<edge from="1" function="normal" id="32" length="41.89658809494854" numLanes="1" priority="1" speed="36.11111111111111" spreadType="center" to="2">
		<lane allow="moped bicycle pedestrian custom1 trailer evehicle rail_urban ship private truck vip custom2 authority delivery rail_electric taxi tram army hov coach motorcycle passenger bus rail emergency" index="0" length="41.89658809494854" shape="51.360600000000005,-33.23325 69.6041,-43.5471 87.83250000000001,-53.8518" speed="36.11111111111111" width="3.4996726204032287"/>
	</edge>
	<edge from="3" function="normal" id="34" length="41.881917172970034" numLanes="2" priority="1" speed="36.11111111111111" spreadType="center" to="4">
		<lane allow="moped bicycle pedestrian custom1 trailer evehicle rail_urban ship private truck vip custom2 authority delivery rail_electric taxi tram army hov coach motorcycle passenger bus rail emergency" index="0" length="41.881917172970034" shape="91.27735,-47.7581 73.0489,-37.4534 54.817949999999996,-27.14725" speed="36.11111111111111" width="3.499540006915198"/>
		<lane allow="moped bicycle pedestrian custom1 trailer evehicle rail_urban ship private truck vip custom2 authority delivery rail_electric taxi tram army hov coach motorcycle passenger bus rail emergency" index="1" length="41.881917172970034" shape="89.5549,-50.804950000000005 71.32650000000001,-40.500249999999994 53.0655,-30.1767" speed="36.11111111111111" width="3.500037338372261"/>
	</edge>
	<edge from="5" function="normal" id="35" length="166.2716846174614" numLanes="2" priority="1" speed="36.11111111111111" spreadType="center" to="6">
		<lane allow="moped bicycle pedestrian custom1 trailer evehicle rail_urban ship private truck vip custom2 authority delivery rail_electric taxi tram army hov coach motorcycle passenger bus rail emergency" index="0" length="166.2716846174614" shape="-109.83385000000001,55.69785 -37.4088,14.847150000000001 35.019549999999995,-26.005" speed="36.11111111111111" width="3.4996171633480166"/>
		<lane allow="moped bicycle pedestrian custom1 trailer evehicle rail_urban ship private truck vip custom2 authority delivery rail_electric taxi tram army hov coach motorcycle passenger bus rail emergency" index="1" length="166.2716846174614" shape="-108.11485,58.7466 -35.6887,17.8953 36.7081,-22.9393" speed="36.11111111111111" width="3.499949035343232"/>
	</edge>
	<edge from="7" function="normal" id="38" length="166.2775972419114" numLanes="2" priority="1" speed="36.11111111111111" spreadType="center" to="8">
		<lane allow="moped bicycle pedestrian custom1 trailer evehicle rail_urban ship private truck vip custom2 authority delivery rail_electric taxi tram army hov coach motorcycle passenger bus rail emergency" index="0" length="166.2775972419114" shape="40.181799999999996,-16.86205 -32.24725,23.9909 -104.67785,64.84475" speed="36.11111111111111" width="3.499520002800384"/>
		<lane allow="moped bicycle pedestrian custom1 trailer evehicle rail_urban ship private truck vip custom2 authority delivery rail_electric taxi tram army hov coach motorcycle passenger bus rail emergency" index="1" length="166.2775972419114" shape="38.43195,-19.8928 -33.96795,20.9431 -106.39635,61.795649999999995" speed="36.11111111111111" width="3.4999847613953974"/>
	</edge>
	<edge from="4" function="normal" id="39" length="17.90132416033395" numLanes="2" priority="1" speed="36.11111111111111" spreadType="center" to="7">
		<lane allow="moped bicycle pedestrian custom1 trailer evehicle rail_urban ship private truck vip custom2 authority delivery rail_electric taxi tram army hov coach motorcycle passenger rail emergency" index="0" length="17.90132416033395" shape="54.817949999999996,-27.14725 52.9092,-25.98445 49.269549999999995,-23.3804 43.941100000000006,-19.295099999999998 42.0961,-18.028399999999998 40.181799999999996,-16.86205" speed="36.11111111111111" width="3.499520002800384"/>
		<lane allow="moped bicycle pedestrian custom1 trailer evehicle rail_urban ship private truck vip custom2 authority delivery rail_electric taxi tram army hov coach motorcycle passenger rail emergency" index="1" length="17.90132416033395" shape="53.0655,-30.1767 51.029700000000005,-28.9311 47.3435,-26.29255 42.089200000000005,-22.26115 40.3241,-21.046100000000003 38.43195,-19.8928" speed="36.11111111111111" width="3.499950285361209"/>
	</edge>
	<edge from="6" function="normal" id="40" length="17.882857724953343" numLanes="1" priority="1" speed="36.11111111111111" spreadType="center" to="1">
		<lane allow="moped bicycle pedestrian custom1 trailer evehicle rail_urban ship private truck vip custom2 authority delivery rail_electric taxi tram army hov coach motorcycle passenger bus rail emergency" index="0" length="17.882857724953343" shape="35.019549999999995,-26.005 38.2151,-27.6116 44.390550000000005,-30.0802 48.64205,-31.847 51.360600000000005,-33.23325" speed="36.11111111111111" width="3.4996171633480166"/>
	</edge>
	<edge from="6" function="normal" id="42" length="17.922727011629675" numLanes="1" priority="1" speed="36.11111111111111" spreadType="center" to="1">
		<lane allow="moped bicycle pedestrian custom1 trailer evehicle rail_urban ship private truck vip custom2 authority delivery rail_electric taxi tram army hov coach motorcycle passenger rail emergency" index="0" length="17.922727011629675" shape="36.7081,-22.9393 38.5613,-24.066850000000002 40.32925,-25.28085 45.644099999999995,-29.356499999999997 49.3612,-32.0136 51.360600000000005,-33.23325" speed="36.11111111111111" width="3.490819631547869"/>
	</edge>
</edges>
