<routes>
	<vehicle depart="0.1" departLane="0" departPos="166.31391813183586" departSpeed="25.957" id="43" type="passenger">
		<route edges="38"/>
	</vehicle>
	<vehicle depart="0.1" departLane="1" departPos="0" departSpeed="14.9999" id="44" type="passenger">
		<route edges="38"/>
	</vehicle>
	<vehicle depart="0.1" departLane="0" departPos="0" departSpeed="15.7681" id="45" type="passenger">
		<route edges="38"/>
	</vehicle>
	<vehicle depart="0.1" departLane="1" departPos="0" departSpeed="15.3396" id="312" type="passenger">
		<route edges="38"/>
	</vehicle>
	<vehicle depart="0.1" departLane="0" departPos="0" departSpeed="15.4323" id="313" type="passenger">
		<route edges="38"/>
	</vehicle>
	<vehicle depart="0.1" departLane="1" departPos="0" departSpeed="15.1434" id="314" type="passenger">
		<route edges="38"/>
	</vehicle>
	<vehicle depart="0.1" departLane="0" departPos="0" departSpeed="15.6508" id="315" type="passenger">
		<route edges="35 40 32"/>
	</vehicle>
	<vehicle depart="0.1" departLane="1" departPos="0" departSpeed="22.1578" id="316" type="passenger">
		<route edges="35 42 32"/>
	</vehicle>
	<vehicle depart="0.1" departLane="1" departPos="8.791185315617" departSpeed="14.4524" id="318" type="passenger">
		<route edges="39 38"/>
	</vehicle>
	<vehicle depart="0.1" departLane="0" departPos="26.155525193313867" departSpeed="9.4978" id="319" type="passenger">
		<route edges="34 39 38"/>
	</vehicle>
	<vehicle depart="0.1" departLane="1" departPos="34.908371986546534" departSpeed="12.6669" id="320" type="passenger">
		<route edges="34 39 38"/>
	</vehicle>
</routes>
