<?xml version="1.0" encoding="UTF-8"?>

<!-- generated on Fri Dec 18 16:18:34 2020 by Eclipse SUMO netconvert Version 1.8.0
<configuration xmlns:xsi="http://www.w3.org/2001/XMLSchema-instance" xsi:noNamespaceSchemaLocation="http://sumo.dlr.de/xsd/netconvertConfiguration.xsd">

    <input>
        <node-files value="./converted_scenarios/SUMO/ESP_Mad-2_1_I-1-1/nodes.net.xml"/>
        <edge-files value="./converted_scenarios/SUMO/ESP_Mad-2_1_I-1-1/edges.net.xml"/>
        <connection-files value="./converted_scenarios/SUMO/ESP_Mad-2_1_I-1-1/_connections.net.xml"/>
        <tllogic-files value="./converted_scenarios/SUMO/ESP_Mad-2_1_I-1-1/_tll.net.xml"/>
    </input>

    <output>
        <output-file value="./converted_scenarios/SUMO/ESP_Mad-2_1_I-1-1/ESP_Mad-2_1_I-1-1.net.xml"/>
    </output>

    <processing>
        <plain.extend-edge-shape value="true"/>
        <geometry.remove.keep-edges.explicit value="true"/>
        <geometry.avoid-overlap value="true"/>
        <offset.disable-normalization value="true"/>
    </processing>

    <junctions>
        <no-turnarounds value="true"/>
        <junctions.internal-link-detail value="20"/>
    </junctions>

    <report>
        <aggregate-warnings value="5"/>
    </report>

    <random_number>
        <seed value="1234"/>
    </random_number>

</configuration>
-->

<net version="1.6" junctionCornerDetail="5" junctionLinkDetail="20" limitTurnSpeed="5.50" xmlns:xsi="http://www.w3.org/2001/XMLSchema-instance" xsi:noNamespaceSchemaLocation="http://sumo.dlr.de/xsd/net_file.xsd">

    <location netOffset="0.00,0.00" convBoundary="-108.97,-53.85,90.42,63.32" origBoundary="-109.83,-53.85,91.28,64.84" projParameter="!"/>

    <edge id=":1_0" function="internal">
        <lane id=":1_0_0" index="0" disallow="rail_fast" speed="36.11" length="3.01" width="3.50" shape="49.98,-32.53 52.63,-33.95"/>
    </edge>
    <edge id=":1_1" function="internal">
        <lane id=":1_1_0" index="0" disallow="bus rail_fast" speed="36.11" length="3.01" width="3.50" shape="50.04,-32.43 52.63,-33.95"/>
    </edge>
    <edge id=":4_0" function="internal">
        <lane id=":4_0_0" index="0" disallow="bus rail_fast" speed="36.11" length="3.00" width="3.50" shape="56.11,-27.88 53.54,-26.37"/>
        <lane id=":4_0_1" index="1" disallow="bus rail_fast" speed="36.11" length="3.00" width="3.50" shape="54.37,-30.91 51.75,-29.37"/>
    </edge>
    <edge id=":6_0" function="internal">
        <lane id=":6_0_0" index="0" disallow="rail_fast" speed="36.11" length="6.04" width="3.50" shape="31.38,-23.95 36.69,-26.84"/>
    </edge>
    <edge id=":6_1" function="internal">
        <lane id=":6_1_0" index="0" disallow="bus rail_fast" speed="36.11" length="5.89" width="3.49" shape="33.09,-20.90 38.19,-23.84"/>
    </edge>
    <edge id=":7_0" function="internal">
        <lane id=":7_0_0" index="0" disallow="bus rail_fast" speed="36.11" length="3.00" width="3.50" shape="41.49,-17.66 38.88,-16.13"/>
        <lane id=":7_0_1" index="1" disallow="bus rail_fast" speed="36.11" length="3.00" width="3.50" shape="39.71,-20.67 37.14,-19.17"/>
    </edge>

    <edge id="32" from="1" to="2" priority="1" spreadType="center" length="41.90">
        <lane id="32_0" index="0" disallow="rail_fast" speed="36.11" length="41.90" width="3.50" customShape="1" shape="52.63,-33.95 69.60,-43.55 87.83,-53.85"/>
    </edge>
    <edge id="34" from="3" to="4" priority="1" spreadType="center" length="41.88">
        <lane id="34_0" index="0" disallow="rail_fast" speed="36.11" length="41.88" width="3.50" customShape="1" shape="91.28,-47.76 73.05,-37.45 56.11,-27.88"/>
        <lane id="34_1" index="1" disallow="rail_fast" speed="36.11" length="41.88" width="3.50" customShape="1" shape="89.55,-50.80 71.33,-40.50 54.37,-30.91"/>
    </edge>
    <edge id="35" from="5" to="6" priority="1" spreadType="center" length="166.27">
        <lane id="35_0" index="0" disallow="rail_fast" speed="36.11" length="166.27" width="3.50" customShape="1" shape="-109.83,55.70 -37.41,14.85 31.38,-23.95"/>
        <lane id="35_1" index="1" disallow="rail_fast" speed="36.11" length="166.27" width="3.50" customShape="1" shape="-108.11,58.75 -35.69,17.90 33.09,-20.90"/>
    </edge>
    <edge id="38" from="7" to="8" priority="1" spreadType="center" length="166.28">
        <lane id="38_0" index="0" disallow="rail_fast" speed="36.11" length="166.28" width="3.50" customShape="1" shape="38.88,-16.13 -32.25,23.99 -104.68,64.84"/>
        <lane id="38_1" index="1" disallow="rail_fast" speed="36.11" length="166.28" width="3.50" customShape="1" shape="37.14,-19.17 -33.97,20.94 -106.40,61.80"/>
    </edge>
    <edge id="39" from="4" to="7" priority="1" spreadType="center" length="17.90">
        <lane id="39_0" index="0" disallow="bus rail_fast" speed="36.11" length="17.90" width="3.50" customShape="1" shape="53.54,-26.37 52.91,-25.98 49.27,-23.38 43.94,-19.30 42.10,-18.03 41.49,-17.66"/>
        <lane id="39_1" index="1" disallow="bus rail_fast" speed="36.11" length="17.90" width="3.50" customShape="1" shape="51.75,-29.37 51.03,-28.93 47.34,-26.29 42.09,-22.26 40.32,-21.05 39.71,-20.67"/>
    </edge>
    <edge id="40" from="6" to="1" priority="1" spreadType="center" length="17.88">
        <lane id="40_0" index="0" disallow="rail_fast" speed="36.11" length="17.88" width="3.50" customShape="1" shape="36.69,-26.84 38.22,-27.61 44.39,-30.08 48.64,-31.85 49.98,-32.53"/>
    </edge>
    <edge id="42" from="6" to="1" priority="1" spreadType="center" length="17.92">
        <lane id="42_0" index="0" disallow="bus rail_fast" speed="36.11" length="17.92" width="3.49" customShape="1" shape="38.19,-23.84 38.56,-24.07 40.33,-25.28 45.64,-29.36 49.36,-32.01 50.04,-32.43"/>
    </edge>

    <junction id="1" type="priority" x="51.36" y="-33.23" incLanes="40_0 42_0" intLanes=":1_0_0 :1_1_0" shape="53.50,-32.43 51.77,-35.48 49.07,-34.03 50.95,-30.94">
        <request index="0" response="00" foes="10" cont="0"/>
        <request index="1" response="01" foes="01" cont="0"/>
    </junction>
    <junction id="2" type="dead_end" x="87.83" y="-53.85" incLanes="32_0" intLanes="" shape="86.97,-55.38 88.69,-52.33"/>
    <junction id="3" type="dead_end" x="90.42" y="-49.28" incLanes="" intLanes="" shape="88.69,-52.33 92.14,-46.23"/>
    <junction id="4" type="priority" x="53.94" y="-28.66" incLanes="34_0 34_1" intLanes=":4_0_0 :4_0_1" shape="56.97,-26.36 53.50,-32.43 50.86,-30.88 54.44,-24.87">
        <request index="0" response="00" foes="00" cont="0"/>
        <request index="1" response="00" foes="00" cont="0"/>
    </junction>
    <junction id="5" type="dead_end" x="-108.97" y="57.22" incLanes="" intLanes="" shape="-107.25,60.27 -110.69,54.17"/>
    <junction id="6" type="priority" x="35.86" y="-24.47" incLanes="35_0 35_1" intLanes=":6_0_0 :6_1_0" shape="38.98,-22.28 35.90,-28.41 30.53,-25.48 33.95,-19.37">
        <request index="0" response="00" foes="00" cont="0"/>
        <request index="1" response="00" foes="00" cont="0"/>
    </junction>
    <junction id="7" type="priority" x="39.31" y="-18.38" incLanes="39_0 39_1" intLanes=":7_0_0 :7_0_1" shape="42.38,-16.15 38.81,-22.17 36.28,-20.69 39.74,-14.61">
        <request index="0" response="00" foes="00" cont="0"/>
        <request index="1" response="00" foes="00" cont="0"/>
    </junction>
    <junction id="8" type="dead_end" x="-105.54" y="63.32" incLanes="38_0 38_1" intLanes="" shape="-103.82,66.37 -107.26,60.27"/>

    <connection from="34" to="39" fromLane="0" toLane="0" contPos="-4.00" via=":4_0_0" dir="s" state="M"/>
    <connection from="34" to="39" fromLane="1" toLane="1" contPos="-4.00" via=":4_0_1" dir="s" state="M"/>
    <connection from="35" to="40" fromLane="0" toLane="0" contPos="-4.00" via=":6_0_0" dir="s" state="M"/>
    <connection from="35" to="42" fromLane="1" toLane="0" contPos="-4.00" via=":6_1_0" dir="s" state="M"/>
    <connection from="39" to="38" fromLane="0" toLane="0" contPos="-4.00" via=":7_0_0" dir="s" state="M"/>
    <connection from="39" to="38" fromLane="1" toLane="1" contPos="-4.00" via=":7_0_1" dir="s" state="M"/>
    <connection from="40" to="32" fromLane="0" toLane="0" contPos="-4.00" via=":1_0_0" dir="s" state="M"/>
    <connection from="42" to="32" fromLane="0" toLane="0" contPos="-4.00" via=":1_1_0" dir="s" state="m"/>

    <connection from=":1_0" to="32" fromLane="0" toLane="0" dir="s" state="M"/>
    <connection from=":1_1" to="32" fromLane="0" toLane="0" dir="s" state="M"/>
    <connection from=":4_0" to="39" fromLane="0" toLane="0" dir="s" state="M"/>
    <connection from=":4_0" to="39" fromLane="1" toLane="1" dir="s" state="M"/>
    <connection from=":6_0" to="40" fromLane="0" toLane="0" dir="s" state="M"/>
    <connection from=":6_1" to="42" fromLane="0" toLane="0" dir="s" state="M"/>
    <connection from=":7_0" to="38" fromLane="0" toLane="0" dir="s" state="M"/>
    <connection from=":7_0" to="38" fromLane="1" toLane="1" dir="s" state="M"/>

</net>
