<!-- generated on 2020-12-18 16:18:34.747142 by ipykernel_launcher.py v1_2_0+5214-53edc58fcd
-->
<nodes>
	<node id="1" type="from" x="51.360600000000005" y="-33.23325"/>
	<node id="2" type="to" x="87.83250000000001" y="-53.8518"/>
	<node id="3" type="from" x="90.416125" y="-49.281525"/>
	<node id="4" type="to" x="53.941725" y="-28.661974999999998"/>
	<node id="5" type="from" x="-108.97435000000002" y="57.222225"/>
	<node id="6" type="to" x="35.863825" y="-24.47215"/>
	<node id="7" type="from" x="39.306875" y="-18.377425000000002"/>
	<node id="8" type="to" x="-105.53710000000001" y="63.3202"/>
</nodes>
