<routes>
	<vehicle depart="0.1" departLane="0" departPos="2.5" departSpeed="7.6231764" id="35" type="passenger">
		<route edges=":150_1 47761"/>
	</vehicle>
	<vehicle depart="0.1" departLane="0" departPos="6.730718110234161" departSpeed="0.67565276" id="322" type="passenger">
		<route edges=":149_2 47990"/>
	</vehicle>
	<vehicle depart="0.1" departLane="0" departPos="63.363788098295544" departSpeed="1.8077877" id="332" type="passenger">
		<route edges="47762 47924"/>
	</vehicle>
	<vehicle depart="0.1" departLane="0" departPos="2.5" departSpeed="7.2599461" id="335" type="passenger">
		<route edges=":144_0 47925 47761"/>
	</vehicle>
	<vehicle depart="0.1" departLane="0" departPos="50.703085806586394" departSpeed="1.6783226" id="338" type="passenger">
		<route edges="47762 47928"/>
	</vehicle>
	<vehicle depart="0.1" departLane="0" departPos="33.77736404389009" departSpeed="0.58140308" id="341" type="passenger">
		<route edges="47762 47928"/>
	</vehicle>
	<vehicle depart="0.1" departLane="0" departPos="26.09559705668086" departSpeed="1.9398748" id="353" type="passenger">
		<route edges="47762 47928"/>
	</vehicle>
	<vehicle depart="0.1" departLane="0" departPos="10.543836614186691" departSpeed="1.1418522" id="361" type="passenger">
		<route edges="47762 47928"/>
	</vehicle>
	<vehicle depart="0.1" departLane="0" departPos="67.91695420776172" departSpeed="13.610671" id="36" type="motorcycle">
		<route edges="48128 47921"/>
	</vehicle>
</routes>
