<routes>
	<vehicle depart="0.1" departLane="0" departPos="28.411130176543416" departSpeed="0.0" id="31" type="passenger">
		<route edges="21062 21221"/>
	</vehicle>
	<vehicle depart="0.1" departLane="0" departPos="69.90191160107891" departSpeed="0.0" id="35" type="passenger">
		<route edges="21342 21433"/>
	</vehicle>
	<vehicle depart="0.1" departLane="0" departPos="62.662893510153836" departSpeed="0.00040229551" id="38" type="passenger">
		<route edges="21342 21433"/>
	</vehicle>
	<vehicle depart="0.1" departLane="0" departPos="55.41993587636366" departSpeed="0.0047651698" id="318" type="passenger">
		<route edges="21342 21433"/>
	</vehicle>
	<vehicle depart="0.1" departLane="0" departPos="47.89316034851722" departSpeed="0.025660759" id="324" type="passenger">
		<route edges="21342 21433"/>
	</vehicle>
	<vehicle depart="0.1" departLane="0" departPos="11.804740602256029" departSpeed="13.984133" id="332" type="passenger">
		<route edges=":25_7 21341"/>
	</vehicle>
	<vehicle depart="0.1" departLane="0" departPos="27.476487139478852" departSpeed="12.855583" id="335" type="passenger">
		<route edges=":25_9 21433"/>
	</vehicle>
	<vehicle depart="0.1" departLane="0" departPos="42.8691174002658" departSpeed="12.264792" id="341" type="passenger">
		<route edges=":26_4 21063 21433"/>
	</vehicle>
	<vehicle depart="0.1" departLane="0" departPos="21.835633363929063" departSpeed="8.9031051" id="343" type="passenger">
		<route edges=":26_4 21063 21066"/>
	</vehicle>
	<vehicle depart="0.1" departLane="0" departPos="9.558758825011806" departSpeed="1.1397787" id="32" type="truck">
		<route edges=":25_5 21433"/>
	</vehicle>
</routes>
