<routes>
	<vehicle depart="0.1" departLane="0" departPos="55.356139346114745" departSpeed="1.0756489" id="311" type="passenger">
		<route edges="58516 58478"/>
	</vehicle>
	<vehicle depart="0.1" departLane="0" departPos="47.48393887325524" departSpeed="1.7085727" id="314" type="passenger">
		<route edges="58516 58478"/>
	</vehicle>
	<vehicle depart="0.1" departLane="0" departPos="38.68397010241243" departSpeed="1.3244509" id="315" type="passenger">
		<route edges="58516 58478"/>
	</vehicle>
	<vehicle depart="0.1" departLane="0" departPos="25.138275049395556" departSpeed="0.30238564" id="328" type="passenger">
		<route edges="58516 58478"/>
	</vehicle>
	<vehicle depart="0.1" departLane="0" departPos="13.472937485201365" departSpeed="1.2422779" id="334" type="passenger">
		<route edges="58516 58478"/>
	</vehicle>
	<vehicle depart="0.1" departLane="0" departPos="32.80627189816737" departSpeed="8.9232006" id="344" type="passenger">
		<route edges=":74_1 58478 58475"/>
	</vehicle>
	<vehicle depart="0.1" departLane="0" departPos="16.640750896681574" departSpeed="1.5799529" id="347" type="passenger">
		<route edges=":74_2 58515"/>
	</vehicle>
	<vehicle depart="0.1" departLane="0" departPos="59.71617797922721" departSpeed="1.530535" id="351" type="passenger">
		<route edges="58481 58519 59660 58987"/>
	</vehicle>
	<vehicle depart="0.1" departLane="0" departPos="30.356397854368023" departSpeed="0.48659793" id="319" type="motorcycle">
		<route edges="58516 58478"/>
	</vehicle>
</routes>
