<!-- generated on 2020-12-18 15:54:52.132798 by ipykernel_launcher.py v1_2_0+5214-53edc58fcd
-->
<connections>
	<connection contPos="-4.0" from="91" fromLane="4" keepClear="true" to="92" toLane="5"/>
	<connection contPos="-4.0" from="92" fromLane="5" keepClear="true" to="29" toLane="5"/>
	<connection contPos="-4.0" from="91" fromLane="3" keepClear="true" to="92" toLane="4"/>
	<connection contPos="-4.0" from="92" fromLane="4" keepClear="true" to="29" toLane="4"/>
	<connection contPos="-4.0" from="91" fromLane="2" keepClear="true" to="92" toLane="3"/>
	<connection contPos="-4.0" from="92" fromLane="3" keepClear="true" to="29" toLane="3"/>
	<connection contPos="-4.0" from="91" fromLane="1" keepClear="true" to="92" toLane="2"/>
	<connection contPos="-4.0" from="92" fromLane="2" keepClear="true" to="29" toLane="2"/>
	<connection contPos="-4.0" from="91" fromLane="0" keepClear="true" to="92" toLane="1"/>
	<connection contPos="-4.0" from="92" fromLane="1" keepClear="true" to="29" toLane="1"/>
	<connection contPos="-4.0" from="16" fromLane="0" keepClear="true" to="92" toLane="0"/>
	<connection contPos="-4.0" from="92" fromLane="0" keepClear="true" to="29" toLane="0"/>
</connections>
