<routes>
	<vehicle depart="0.1" departLane="1" departPos="210.8720734548096" departSpeed="13.2923" id="4" type="passenger">
		<route edges="92 29"/>
	</vehicle>
	<vehicle depart="0.1" departLane="2" departPos="207.36234964665866" departSpeed="15.2156" id="5" type="passenger">
		<route edges="92 29"/>
	</vehicle>
	<vehicle depart="0.1" departLane="1" departPos="191.88096620760618" departSpeed="13.9111" id="6" type="passenger">
		<route edges="92 29"/>
	</vehicle>
	<vehicle depart="0.1" departLane="2" departPos="183.69326980275795" departSpeed="13.9019" id="8" type="passenger">
		<route edges="92 29"/>
	</vehicle>
	<vehicle depart="0.1" departLane="3" departPos="0" departSpeed="16.7061" id="9" type="passenger">
		<route edges="29"/>
	</vehicle>
	<vehicle depart="0.1" departLane="5" departPos="200.06483939697938" departSpeed="14.9474" id="10" type="passenger">
		<route edges="92 29"/>
	</vehicle>
	<vehicle depart="0.1" departLane="5" departPos="182.03096348475606" departSpeed="13.6002" id="12" type="passenger">
		<route edges="92 29"/>
	</vehicle>
	<vehicle depart="0.1" departLane="4" departPos="212.50867102479938" departSpeed="17.2517" id="13" type="passenger">
		<route edges="92 29"/>
	</vehicle>
	<vehicle depart="0.1" departLane="1" departPos="150.46683988212394" departSpeed="10.3144" id="14" type="passenger">
		<route edges="92 29"/>
	</vehicle>
	<vehicle depart="0.1" departLane="0" departPos="205.678805734942" departSpeed="19.5773" id="18" type="passenger">
		<route edges="92 29"/>
	</vehicle>
	<vehicle depart="0.1" departLane="3" departPos="175.15360275220243" departSpeed="15.24" id="20" type="passenger">
		<route edges="92 29"/>
	</vehicle>
	<vehicle depart="0.1" departLane="2" departPos="163.72650945696725" departSpeed="13.7343" id="21" type="passenger">
		<route edges="92 29"/>
	</vehicle>
	<vehicle depart="0.1" departLane="4" departPos="177.60175694975675" departSpeed="16.764" id="22" type="passenger">
		<route edges="92 29"/>
	</vehicle>
	<vehicle depart="0.1" departLane="5" departPos="159.93789786086015" departSpeed="13.8288" id="23" type="passenger">
		<route edges="92 29"/>
	</vehicle>
	<vehicle depart="0.1" departLane="2" departPos="130.49076980453745" departSpeed="14.0025" id="25" type="passenger">
		<route edges="92 29"/>
	</vehicle>
	<vehicle depart="0.1" departLane="4" departPos="152.68525537632013" departSpeed="16.3891" id="26" type="passenger">
		<route edges="92 29"/>
	</vehicle>
	<vehicle depart="0.1" departLane="5" departPos="132.98585037176997" departSpeed="14.7706" id="27" type="passenger">
		<route edges="92 29"/>
	</vehicle>
	<vehicle depart="0.1" departLane="1" departPos="125.16143413437692" departSpeed="12.192" id="31" type="passenger">
		<route edges="92 92 29"/>
	</vehicle>
	<vehicle depart="0.1" departLane="4" departPos="129.90064271550773" departSpeed="15.24" id="32" type="passenger">
		<route edges="92 29"/>
	</vehicle>
	<vehicle depart="0.1" departLane="1" departPos="109.5851781108499" departSpeed="11.3142" id="33" type="passenger">
		<route edges="92 29"/>
	</vehicle>
	<vehicle depart="0.1" departLane="2" departPos="107.70950777349496" departSpeed="13.0851" id="34" type="passenger">
		<route edges="92 29"/>
	</vehicle>
	<vehicle depart="0.1" departLane="0" departPos="138.18154587199774" departSpeed="25.9903" id="35" type="passenger">
		<route edges="92 29"/>
	</vehicle>
	<vehicle depart="0.1" departLane="4" departPos="110.62198406044689" departSpeed="14.5329" id="37" type="passenger">
		<route edges="92 29"/>
	</vehicle>
	<vehicle depart="0.1" departLane="5" departPos="117.11857400048525" departSpeed="14.9687" id="39" type="passenger">
		<route edges="92 29"/>
	</vehicle>
	<vehicle depart="0.1" departLane="3" departPos="120.89324317836358" departSpeed="19.7236" id="40" type="passenger">
		<route edges="92 29"/>
	</vehicle>
	<vehicle depart="0.1" departLane="1" departPos="94.18281899955373" departSpeed="10.6589" id="42" type="passenger">
		<route edges="92 29"/>
	</vehicle>
	<vehicle depart="0.1" departLane="5" departPos="95.05464674762109" departSpeed="16.4622" id="43" type="passenger">
		<route edges="92 29"/>
	</vehicle>
	<vehicle depart="0.1" departLane="4" departPos="93.00678417374847" departSpeed="16.5324" id="44" type="passenger">
		<route edges="92 92 29"/>
	</vehicle>
	<vehicle depart="0.1" departLane="3" departPos="84.7782761500937" departSpeed="13.9964" id="47" type="passenger">
		<route edges="92 29"/>
	</vehicle>
	<vehicle depart="0.1" departLane="1" departPos="79.31976231414554" departSpeed="11.1953" id="48" type="passenger">
		<route edges="92 29"/>
	</vehicle>
	<vehicle depart="0.1" departLane="4" departPos="68.1449672743653" departSpeed="17.4528" id="49" type="passenger">
		<route edges="92 29"/>
	</vehicle>
	<vehicle depart="0.1" departLane="2" departPos="74.76505617481347" departSpeed="13.7069" id="51" type="passenger">
		<route edges="92 92 29"/>
	</vehicle>
	<vehicle depart="0.1" departLane="1" departPos="58.77103818313045" departSpeed="17.8765" id="53" type="passenger">
		<route edges="92 92 29"/>
	</vehicle>
	<vehicle depart="0.1" departLane="5" departPos="53.17877518809163" departSpeed="18.3307" id="54" type="passenger">
		<route edges="92 29"/>
	</vehicle>
	<vehicle depart="0.1" departLane="2" departPos="57.00818069386734" departSpeed="14.4231" id="55" type="passenger">
		<route edges="92 29"/>
	</vehicle>
	<vehicle depart="0.1" departLane="4" departPos="41.621986227395496" departSpeed="13.335" id="56" type="passenger">
		<route edges="92 92 92 92 29"/>
	</vehicle>
	<vehicle depart="0.1" departLane="3" departPos="35.496528836450935" departSpeed="15.4991" id="57" type="passenger">
		<route edges="92 29"/>
	</vehicle>
	<vehicle depart="0.1" departLane="5" departPos="20.074705797966022" departSpeed="15.2309" id="59" type="passenger">
		<route edges="92 29"/>
	</vehicle>
	<vehicle depart="0.1" departLane="1" departPos="35.058118095093626" departSpeed="13.7556" id="60" type="passenger">
		<route edges="92 29"/>
	</vehicle>
	<vehicle depart="0.1" departLane="2" departPos="33.827089897985154" departSpeed="13.6855" id="62" type="passenger">
		<route edges="92 29"/>
	</vehicle>
	<vehicle depart="0.1" departLane="3" departPos="13.048048071426354" departSpeed="12.6736" id="64" type="passenger">
		<route edges="92 92 29"/>
	</vehicle>
	<vehicle depart="0.1" departLane="2" departPos="29.056084976336336" departSpeed="14.1214" id="67" type="passenger">
		<route edges="91 92 29"/>
	</vehicle>
	<vehicle depart="0.1" departLane="3" departPos="26.614514668542785" departSpeed="13.271" id="69" type="passenger">
		<route edges="91 92 92 92 92 29"/>
	</vehicle>
	<vehicle depart="0.1" departLane="4" departPos="13.83192492732044" departSpeed="12.192" id="71" type="passenger">
		<route edges="92 29"/>
	</vehicle>
	<vehicle depart="0.1" departLane="4" departPos="28.68747465601447" departSpeed="15.3589" id="72" type="passenger">
		<route edges="91 92 29"/>
	</vehicle>
	<vehicle depart="0.1" departLane="1" departPos="25.990412623492826" departSpeed="12.6309" id="73" type="passenger">
		<route edges="91 92 29"/>
	</vehicle>
	<vehicle depart="0.1" departLane="1" departPos="9.774545752659204" departSpeed="12.1981" id="74" type="passenger">
		<route edges="92 92 29"/>
	</vehicle>
	<vehicle depart="0.1" departLane="0" departPos="22.987428023016463" departSpeed="10.3754" id="75" type="passenger">
		<route edges="91 92 29"/>
	</vehicle>
	<vehicle depart="0.1" departLane="2" departPos="8.430000832494404" departSpeed="15.2278" id="76" type="passenger">
		<route edges="91 92 29"/>
	</vehicle>
	<vehicle depart="0.1" departLane="3" departPos="9.487223150900753" departSpeed="12.1829" id="78" type="passenger">
		<route edges="91 92 29"/>
	</vehicle>
	<vehicle depart="0.1" departLane="1" departPos="0" departSpeed="11.8476" id="79" type="passenger">
		<route edges="91 92 29"/>
	</vehicle>
	<vehicle depart="0.1" departLane="0" departPos="0" departSpeed="9.4366" id="82" type="passenger">
		<route edges="91 92 29"/>
	</vehicle>
</routes>
