<?xml version="1.0" encoding="UTF-8"?>

<!-- generated on Fri Dec 18 15:54:52 2020 by Eclipse SUMO netconvert Version 1.8.0
<configuration xmlns:xsi="http://www.w3.org/2001/XMLSchema-instance" xsi:noNamespaceSchemaLocation="http://sumo.dlr.de/xsd/netconvertConfiguration.xsd">

    <input>
        <node-files value="./converted_scenarios/NGSIM/US101/USA_US101-24_1_I-1-1/nodes.net.xml"/>
        <edge-files value="./converted_scenarios/NGSIM/US101/USA_US101-24_1_I-1-1/edges.net.xml"/>
        <connection-files value="./converted_scenarios/NGSIM/US101/USA_US101-24_1_I-1-1/_connections.net.xml"/>
        <tllogic-files value="./converted_scenarios/NGSIM/US101/USA_US101-24_1_I-1-1/_tll.net.xml"/>
    </input>

    <output>
        <output-file value="./converted_scenarios/NGSIM/US101/USA_US101-24_1_I-1-1/USA_US101-24_1_I-1-1.net.xml"/>
    </output>

    <processing>
        <plain.extend-edge-shape value="true"/>
        <geometry.remove.keep-edges.explicit value="true"/>
        <geometry.avoid-overlap value="true"/>
        <offset.disable-normalization value="true"/>
    </processing>

    <junctions>
        <no-turnarounds value="true"/>
        <junctions.internal-link-detail value="20"/>
    </junctions>

    <report>
        <aggregate-warnings value="5"/>
    </report>

    <random_number>
        <seed value="1234"/>
    </random_number>

</configuration>
-->

<net version="1.6" junctionCornerDetail="5" junctionLinkDetail="20" limitTurnSpeed="5.50" xmlns:xsi="http://www.w3.org/2001/XMLSchema-instance" xsi:noNamespaceSchemaLocation="http://sumo.dlr.de/xsd/net_file.xsd">

    <location netOffset="0.00,0.00" convBoundary="-43.44,-126.14,157.52,45.90" origBoundary="-43.44,-132.78,163.21,50.94" projParameter="!"/>

    <edge id=":2_0" function="internal">
        <lane id=":2_0_0" index="0" disallow="bus truck rail_fast" speed="36.11" length="5.69" width="3.68" shape="-18.71,16.48 -14.41,12.75"/>
    </edge>
    <edge id=":2_1" function="internal">
        <lane id=":2_1_0" index="0" disallow="bus truck rail_fast" speed="36.11" length="3.00" width="3.45" shape="-14.23,17.54 -11.96,15.57"/>
        <lane id=":2_1_1" index="1" disallow="bus truck rail_fast" speed="36.11" length="3.00" width="3.22" shape="-11.94,20.17 -9.72,18.15"/>
        <lane id=":2_1_2" index="2" disallow="bus rail_fast" speed="36.11" length="3.00" width="3.05" shape="-9.75,22.69 -7.52,20.68"/>
        <lane id=":2_1_3" index="3" disallow="bus truck rail_fast" speed="36.11" length="3.00" width="3.27" shape="-7.56,25.21 -5.29,23.25"/>
        <lane id=":2_1_4" index="4" disallow="bus truck rail_fast" speed="36.11" length="3.00" width="3.48" shape="-5.34,27.76 -3.05,25.83"/>
    </edge>
    <edge id=":3_0" function="internal">
        <lane id=":3_0_0" index="0" disallow="bus truck rail_fast" speed="36.11" length="3.06" width="3.96" shape="143.00,-125.04 145.28,-127.08"/>
        <lane id=":3_0_1" index="1" disallow="bus truck rail_fast" speed="36.11" length="3.06" width="3.51" shape="145.50,-122.23 147.80,-124.24"/>
        <lane id=":3_0_2" index="2" disallow="bus truck rail_fast" speed="36.11" length="3.06" width="3.29" shape="147.75,-119.70 150.07,-121.70"/>
        <lane id=":3_0_3" index="3" disallow="bus rail_fast" speed="36.11" length="3.06" width="3.19" shape="149.98,-117.20 152.30,-119.21"/>
        <lane id=":3_0_4" index="4" disallow="bus truck rail_fast" speed="36.11" length="3.06" width="3.36" shape="152.23,-114.68 154.54,-116.69"/>
        <lane id=":3_0_5" index="5" disallow="bus truck rail_fast" speed="36.11" length="3.06" width="3.49" shape="154.50,-112.12 156.82,-114.13"/>
    </edge>

    <edge id="16" from="5" to="2" priority="1" spreadType="center" length="36.52">
        <lane id="16_0" index="0" disallow="bus rail_fast" speed="36.11" length="36.52" width="3.73" customShape="1" shape="-43.44,37.33 -42.98,36.95 -31.13,27.16 -30.81,26.90 -24.96,21.92 -21.50,18.91 -18.71,16.48"/>
    </edge>
    <edge id="29" from="3" to="4" priority="1" spreadType="center" length="9.92">
        <lane id="29_0" index="0" disallow="rail_fast" speed="36.11" length="9.92" width="3.96" customShape="1" shape="145.28,-127.08 149.62,-130.99 151.57,-132.78"/>
        <lane id="29_1" index="1" disallow="rail_fast" speed="36.11" length="9.92" width="3.51" customShape="1" shape="147.80,-124.24 151.44,-127.42 154.21,-129.83"/>
        <lane id="29_2" index="2" disallow="bus truck rail_fast" speed="36.11" length="9.92" width="3.29" customShape="1" shape="150.07,-121.70 153.68,-124.79 153.79,-124.89 156.51,-127.26"/>
        <lane id="29_3" index="3" disallow="bus rail_fast" speed="36.11" length="9.92" width="3.19" customShape="1" shape="152.30,-119.21 154.53,-121.12 156.02,-122.44 158.72,-124.83"/>
        <lane id="29_4" index="4" disallow="bus truck rail_fast" speed="36.11" length="9.92" width="3.36" customShape="1" shape="154.54,-116.69 156.71,-118.58 160.94,-122.40"/>
        <lane id="29_5" index="5" disallow="bus truck rail_fast" speed="36.11" length="9.92" width="3.49" customShape="1" shape="156.82,-114.13 159.06,-116.08 159.39,-116.37 163.27,-119.85"/>
    </edge>
    <edge id="91" from="1" to="2" priority="1" spreadType="center" length="36.32">
        <lane id="91_0" index="0" disallow="bus truck rail_fast" speed="36.11" length="36.32" width="3.64" customShape="1" shape="-40.45,40.90 -35.13,36.08 -34.33,35.35 -31.41,32.63 -28.35,29.88 -23.54,25.71 -20.59,23.07 -19.04,21.73 -14.23,17.54"/>
        <lane id="91_1" index="1" disallow="bus rail_fast" speed="36.11" length="36.32" width="3.25" customShape="1" shape="-38.04,43.48 -33.97,39.82 -31.90,37.92 -31.08,37.16 -29.04,35.30 -23.22,30.18 -21.18,28.35 -20.33,27.55 -18.33,25.75 -12.22,20.42 -11.94,20.17"/>
        <lane id="91_2" index="2" disallow="rail_fast" speed="36.11" length="36.32" width="3.19" customShape="1" shape="-35.76,45.93 -34.39,44.67 -31.74,42.30 -28.84,39.65 -26.28,37.36 -23.35,34.69 -21.09,32.72 -18.16,30.12 -15.40,27.74 -12.46,25.08 -10.02,22.94 -9.75,22.69"/>
        <lane id="91_3" index="3" disallow="bus truck rail_fast" speed="36.11" length="36.32" width="3.21" customShape="1" shape="-33.57,48.39 -32.36,47.26 -32.23,47.14 -24.22,39.97 -24.04,39.81 -21.34,37.30 -21.22,37.19 -13.18,30.26 -13.10,30.19 -10.25,27.53 -10.13,27.42 -7.56,25.21"/>
        <lane id="91_4" index="4" disallow="bus rail_fast" speed="36.11" length="36.32" width="3.48" customShape="1" shape="-31.18,50.84 -30.03,49.76 -29.71,49.47 -21.93,42.53 -21.64,42.26 -19.00,39.81 -18.67,39.50 -10.82,32.64 -10.52,32.38 -7.87,29.91 -7.51,29.59 -5.34,27.76"/>
    </edge>
    <edge id="92" from="2" to="3" priority="1" spreadType="center" length="212.34">
        <lane id="92_0" index="0" disallow="bus truck rail_fast" speed="36.11" length="212.34" width="3.68" acceleration="1" customShape="1" shape="-14.41,12.75 -13.40,11.87 -12.67,11.23 -10.00,8.91 -9.28,8.27 -6.58,5.89 -5.86,5.24 -3.14,2.86 -2.41,2.21 0.25,-0.10 0.98,-0.75 1.71,-1.38 3.71,-3.12 4.43,-3.77 7.12,-6.13 7.84,-6.78 10.59,-9.18 11.31,-9.82 13.88,-12.05 14.61,-12.69 17.32,-15.03 18.05,-15.67 20.89,-18.18 21.61,-18.83 24.27,-21.18 25.00,-21.83 27.81,-24.25 28.53,-24.90 31.16,-27.20 31.89,-27.85 34.59,-30.21 35.24,-30.79 35.32,-30.86 38.14,-33.24 38.87,-33.89 41.49,-36.25 42.21,-36.89 44.88,-39.21 45.61,-39.85 48.40,-42.30 49.12,-42.94 51.63,-45.11 52.36,-45.75 55.13,-48.18 55.86,-48.82 58.55,-51.09 59.28,-51.73 62.02,-54.19 62.74,-54.83 63.40,-55.40 65.48,-57.20 66.20,-57.85 68.85,-60.14 69.57,-60.78 72.27,-63.10 72.99,-63.75 77.50,-67.65 78.22,-68.30 81.09,-70.76 81.82,-71.40 84.70,-73.88 85.42,-74.53 88.24,-77.00 88.97,-77.65 91.64,-79.96 92.36,-80.61 94.94,-82.83 95.17,-83.03 95.87,-83.69 96.37,-84.15 98.68,-86.19 99.40,-86.84 102.26,-89.40 102.98,-90.05 105.83,-92.58 106.55,-93.23 109.30,-95.65 110.02,-96.30 111.91,-97.93 112.75,-98.66 114.46,-100.20 120.70,-105.49 123.28,-107.70 124.01,-108.34 126.83,-110.78 127.56,-111.42 128.21,-111.97 130.25,-113.77 130.97,-114.42 133.64,-116.77 134.36,-117.42 137.14,-119.87 137.86,-120.52 140.67,-122.95 141.39,-123.60 143.00,-125.04"/>
        <lane id="92_1" index="1" disallow="bus truck rail_fast" speed="36.11" length="212.34" width="3.45" customShape="1" shape="-11.96,15.57 -10.91,14.64 -10.20,13.98 -9.56,13.41 -7.71,11.88 -7.06,11.33 -6.95,11.24 -6.35,10.74 -6.17,10.57 -4.08,8.68 -3.36,8.01 -3.27,7.93 -0.70,5.68 -0.02,5.07 2.71,2.70 3.37,2.11 3.91,1.64 6.17,-0.39 6.81,-0.98 12.97,-6.28 13.65,-6.87 13.75,-6.96 14.65,-7.73 16.39,-9.28 17.10,-9.94 17.62,-10.39 19.77,-12.22 20.42,-12.81 23.30,-15.34 23.99,-15.95 25.66,-17.41 26.76,-18.43 27.48,-19.08 28.63,-20.10 30.23,-21.46 30.87,-22.03 33.57,-24.37 34.24,-24.96 36.63,-27.04 37.04,-27.40 37.77,-28.05 39.71,-29.68 40.60,-30.43 41.27,-31.03 43.87,-33.36 44.61,-34.03 47.34,-36.40 47.48,-36.53 47.99,-36.98 50.54,-39.21 50.87,-39.50 51.59,-40.15 54.09,-42.33 54.78,-42.96 57.57,-45.42 58.28,-46.07 59.24,-46.88 60.96,-48.32 61.62,-48.91 62.08,-49.32 64.32,-51.31 65.06,-51.96 65.14,-52.03 67.88,-54.39 68.53,-54.96 68.63,-55.04 70.05,-56.26 71.30,-57.33 71.95,-57.91 72.03,-57.98 73.05,-58.85 74.73,-60.32 75.45,-60.97 79.93,-64.89 80.65,-65.54 80.73,-65.61 83.51,-67.98 83.62,-68.08 84.07,-68.48 84.18,-68.57 87.07,-70.99 87.40,-71.27 87.49,-71.35 87.81,-71.63 90.54,-74.02 90.73,-74.19 91.45,-74.84 94.11,-77.17 94.83,-77.82 95.96,-78.80 97.68,-80.29 98.34,-80.87 98.92,-81.38 101.19,-83.38 101.88,-84.00 104.77,-86.59 105.46,-87.21 107.98,-89.44 108.31,-89.72 108.99,-90.33 110.97,-92.06 111.82,-92.78 112.47,-93.36 112.57,-93.45 115.36,-95.82 116.01,-96.40 118.64,-98.71 118.77,-98.83 119.47,-99.46 119.57,-99.54 121.74,-101.38 122.45,-101.99 123.12,-102.59 125.74,-104.86 126.41,-105.47 129.26,-107.97 129.41,-108.11 129.91,-108.56 132.48,-110.79 132.73,-111.00 133.41,-111.62 136.11,-114.00 136.83,-114.65 139.62,-117.09 140.34,-117.74 140.62,-117.99 143.14,-120.15 143.51,-120.48 143.80,-120.74 145.50,-122.23"/>
        <lane id="92_2" index="2" disallow="bus truck rail_fast" speed="36.11" length="212.34" width="3.22" customShape="1" shape="-9.72,18.15 -9.33,17.79 -7.46,16.13 -7.29,15.99 -3.92,13.22 -1.40,10.98 -1.29,10.89 -0.92,10.55 1.70,8.18 6.16,4.33 9.03,1.77 9.15,1.67 9.79,1.13 9.86,1.06 12.76,-1.51 16.95,-5.06 19.79,-7.61 19.89,-7.69 20.89,-8.56 23.84,-11.21 27.95,-14.73 30.81,-17.28 30.92,-17.37 32.04,-18.33 34.99,-20.97 38.96,-24.44 41.93,-27.06 43.06,-28.05 46.03,-30.65 49.85,-33.98 52.84,-36.59 53.95,-37.56 56.92,-40.18 61.45,-44.19 64.46,-46.81 65.05,-47.33 68.05,-49.91 72.34,-53.60 75.33,-56.19 82.97,-62.91 86.00,-65.54 87.54,-66.84 89.85,-68.79 90.52,-69.38 92.85,-71.43 98.20,-76.22 101.17,-78.81 109.04,-85.82 110.20,-86.84 112.04,-88.44 113.15,-89.38 120.71,-95.79 121.04,-96.08 123.74,-98.43 124.07,-98.72 131.37,-105.30 131.71,-105.60 134.37,-107.91 134.73,-108.23 142.53,-115.19 142.78,-115.41 145.54,-117.80 145.76,-117.99 147.75,-119.70"/>
        <lane id="92_3" index="3" disallow="bus rail_fast" speed="36.11" length="212.34" width="3.05" customShape="1" shape="-7.52,20.68 -7.16,20.34 -7.06,20.26 -4.18,17.77 -1.22,15.14 0.92,13.34 3.76,10.82 3.87,10.72 6.89,8.16 9.84,5.52 11.99,3.67 14.85,1.09 14.94,1.01 18.00,-1.65 20.96,-4.29 23.00,-6.01 25.86,-8.53 25.99,-8.64 29.13,-11.28 32.09,-13.91 34.25,-15.77 37.11,-18.35 40.36,-21.21 43.29,-23.88 45.17,-25.53 48.20,-28.15 51.42,-30.95 54.42,-33.56 56.19,-35.12 59.17,-37.74 62.36,-40.56 65.35,-43.17 67.23,-44.83 70.20,-47.45 73.60,-50.44 76.59,-53.04 84.66,-60.00 87.67,-62.61 89.64,-64.30 92.63,-66.89 95.93,-69.77 98.92,-72.41 100.44,-73.76 103.41,-76.37 106.93,-79.50 109.88,-82.10 111.26,-83.33 114.23,-85.96 117.72,-88.98 120.74,-91.54 122.89,-93.37 125.88,-95.96 129.42,-99.12 132.38,-101.77 133.47,-102.75 136.54,-105.41 140.27,-108.69 143.25,-111.31 144.77,-112.66 147.75,-115.27 149.98,-117.20"/>
        <lane id="92_4" index="4" disallow="bus truck rail_fast" speed="36.11" length="212.34" width="3.27" customShape="1" shape="-5.29,23.25 -2.10,20.50 -1.91,20.33 0.76,17.84 0.95,17.67 9.09,10.73 9.26,10.58 12.04,7.99 12.20,7.84 20.21,0.97 23.07,-1.70 31.32,-8.75 31.44,-8.86 34.25,-11.48 34.38,-11.59 42.54,-18.59 42.65,-18.70 45.39,-21.25 53.36,-28.17 53.64,-28.41 56.35,-30.77 56.64,-31.02 64.42,-37.89 64.54,-38.00 67.45,-40.53 67.58,-40.64 75.69,-47.88 75.77,-47.95 78.70,-50.50 86.83,-57.53 86.97,-57.65 89.82,-60.13 89.97,-60.26 98.09,-67.25 98.19,-67.34 101.07,-69.84 101.19,-69.95 109.16,-77.02 112.14,-79.60 119.84,-86.44 120.08,-86.65 122.86,-89.06 123.08,-89.25 131.46,-96.45 131.73,-96.68 134.47,-99.06 134.75,-99.31 142.39,-106.07 142.53,-106.20 145.37,-108.67 145.52,-108.80 152.23,-114.68"/>
        <lane id="92_5" index="5" disallow="bus truck rail_fast" speed="36.11" length="212.34" width="3.48" customShape="1" shape="-3.05,25.83 0.16,23.12 0.39,22.92 0.52,22.81 3.13,20.38 3.48,20.06 11.55,13.13 11.79,12.92 11.90,12.82 14.51,10.39 14.87,10.07 22.51,3.64 22.74,3.44 22.87,3.32 25.48,0.89 25.81,0.59 33.71,-6.35 33.97,-6.58 34.04,-6.65 36.65,-9.08 37.01,-9.40 44.78,-15.98 45.01,-16.19 45.13,-16.30 47.74,-18.73 48.08,-19.03 55.60,-25.59 55.99,-25.93 58.59,-28.19 58.97,-28.52 66.74,-35.31 67.13,-35.65 69.73,-37.91 70.07,-38.21 78.01,-45.28 78.38,-45.61 80.98,-47.87 81.37,-48.21 89.23,-55.05 89.62,-55.39 92.22,-57.65 92.61,-57.99 100.31,-64.67 100.70,-65.01 103.30,-67.27 103.65,-67.58 111.42,-74.48 111.79,-74.81 114.39,-77.07 114.77,-77.40 122.36,-84.05 122.74,-84.38 125.34,-86.64 125.75,-86.99 133.76,-93.81 134.14,-94.14 136.77,-96.42 137.08,-96.70 144.63,-103.53 144.99,-103.85 147.59,-106.11 147.98,-106.45 154.50,-112.12"/>
    </edge>

    <junction id="1" type="dead_end" x="-35.79" y="45.90" incLanes="" intLanes="" shape="-30.00,52.11 -41.70,39.56"/>
    <junction id="2" type="priority" x="-8.62" y="21.68" incLanes="16_0 91_0 91_1 91_2 91_3 91_4" intLanes=":2_0_0 :2_1_0 :2_1_1 :2_1_2 :2_1_3 :2_1_4" shape="-1.91,27.14 -15.62,11.36 -19.93,15.07 -17.48,17.88 -15.42,16.17 -4.20,29.08">
        <request index="0" response="000000" foes="000000" cont="0"/>
        <request index="1" response="000000" foes="000000" cont="0"/>
        <request index="2" response="000000" foes="000000" cont="0"/>
        <request index="3" response="000000" foes="000000" cont="0"/>
        <request index="4" response="000000" foes="000000" cont="0"/>
        <request index="5" response="000000" foes="000000" cont="0"/>
    </junction>
    <junction id="3" type="priority" x="150.06" y="-119.57" incLanes="92_0 92_1 92_2 92_3 92_4 92_5" intLanes=":3_0_0 :3_0_1 :3_0_2 :3_0_3 :3_0_4 :3_0_5" shape="157.98,-112.83 143.96,-128.56 141.78,-126.41 155.66,-110.82">
        <request index="0" response="000000" foes="000000" cont="0"/>
        <request index="1" response="000000" foes="000000" cont="0"/>
        <request index="2" response="000000" foes="000000" cont="0"/>
        <request index="3" response="000000" foes="000000" cont="0"/>
        <request index="4" response="000000" foes="000000" cont="0"/>
        <request index="5" response="000000" foes="000000" cont="0"/>
    </junction>
    <junction id="4" type="dead_end" x="157.52" y="-126.14" incLanes="29_0 29_1 29_2 29_3 29_4 29_5" intLanes="" shape="150.16,-134.18 164.45,-118.57"/>
    <junction id="5" type="dead_end" x="-43.44" y="37.33" incLanes="" intLanes="" shape="-42.24,38.76 -44.63,35.89"/>

    <connection from="16" to="92" fromLane="0" toLane="0" contPos="-4.00" via=":2_0_0" dir="s" state="M"/>
    <connection from="91" to="92" fromLane="0" toLane="1" contPos="-4.00" via=":2_1_0" dir="s" state="M"/>
    <connection from="91" to="92" fromLane="1" toLane="2" contPos="-4.00" via=":2_1_1" dir="s" state="M"/>
    <connection from="91" to="92" fromLane="2" toLane="3" contPos="-4.00" via=":2_1_2" dir="s" state="M"/>
    <connection from="91" to="92" fromLane="3" toLane="4" contPos="-4.00" via=":2_1_3" dir="s" state="M"/>
    <connection from="91" to="92" fromLane="4" toLane="5" contPos="-4.00" via=":2_1_4" dir="s" state="M"/>
    <connection from="92" to="29" fromLane="0" toLane="0" contPos="-4.00" via=":3_0_0" dir="s" state="M"/>
    <connection from="92" to="29" fromLane="1" toLane="1" contPos="-4.00" via=":3_0_1" dir="s" state="M"/>
    <connection from="92" to="29" fromLane="2" toLane="2" contPos="-4.00" via=":3_0_2" dir="s" state="M"/>
    <connection from="92" to="29" fromLane="3" toLane="3" contPos="-4.00" via=":3_0_3" dir="s" state="M"/>
    <connection from="92" to="29" fromLane="4" toLane="4" contPos="-4.00" via=":3_0_4" dir="s" state="M"/>
    <connection from="92" to="29" fromLane="5" toLane="5" contPos="-4.00" via=":3_0_5" dir="s" state="M"/>

    <connection from=":2_0" to="92" fromLane="0" toLane="0" dir="s" state="M"/>
    <connection from=":2_1" to="92" fromLane="0" toLane="1" dir="s" state="M"/>
    <connection from=":2_1" to="92" fromLane="1" toLane="2" dir="s" state="M"/>
    <connection from=":2_1" to="92" fromLane="2" toLane="3" dir="s" state="M"/>
    <connection from=":2_1" to="92" fromLane="3" toLane="4" dir="s" state="M"/>
    <connection from=":2_1" to="92" fromLane="4" toLane="5" dir="s" state="M"/>
    <connection from=":3_0" to="29" fromLane="0" toLane="0" dir="s" state="M"/>
    <connection from=":3_0" to="29" fromLane="1" toLane="1" dir="s" state="M"/>
    <connection from=":3_0" to="29" fromLane="2" toLane="2" dir="s" state="M"/>
    <connection from=":3_0" to="29" fromLane="3" toLane="3" dir="s" state="M"/>
    <connection from=":3_0" to="29" fromLane="4" toLane="4" dir="s" state="M"/>
    <connection from=":3_0" to="29" fromLane="5" toLane="5" dir="s" state="M"/>

</net>
