<routes>
	<vehicle depart="0.1" departLane="0" departPos="18.59" departSpeed="6.0" id="1" type="bicycle">
		<route edges="11 10 9 8 7"/>
	</vehicle>
	<vehicle depart="0.1" departLane="0" departPos="15.0" departSpeed="0.0" id="2" type="passenger">
		<route edges="11"/>
	</vehicle>
	<vehicle depart="0.1" departLane="0" departPos="22.0" departSpeed="5.0" id="3" type="passenger">
		<route edges="9"/>
	</vehicle>
	<vehicle depart="0.1" departLane="0" departPos="15.0" departSpeed="0.0" id="4" type="passenger">
		<route edges="9"/>
	</vehicle>
	<vehicle depart="0.1" departLane="0" departPos="15.0" departSpeed="0.0" id="5" type="passenger">
		<route edges="10"/>
	</vehicle>
</routes>
