<!-- generated on Tue Feb  9 22:16:03 2021 by Eclipse SUMO netconvert Version 1.8.0
<configuration xmlns:xsi="http://www.w3.org/2001/XMLSchema-instance" xsi:noNamespaceSchemaLocation="http://sumo.dlr.de/xsd/netconvertConfiguration.xsd">

    <input>
        <node-files value="./converted_scenarios/scenario-factory/FRA_Miramas-3_1_I-1-1/FRA_Miramas-3_1_I-1-1.nod.xml"/>
        <edge-files value="./converted_scenarios/scenario-factory/FRA_Miramas-3_1_I-1-1/FRA_Miramas-3_1_I-1-1.edg.xml"/>
        <connection-files value="./converted_scenarios/scenario-factory/FRA_Miramas-3_1_I-1-1/FRA_Miramas-3_1_I-1-1.con.xml"/>
        <tllogic-files value="./converted_scenarios/scenario-factory/FRA_Miramas-3_1_I-1-1/FRA_Miramas-3_1_I-1-1.tll.xml"/>
        <type-files value="/home/zen/commonroad-interactive-benchmarks/install/commonroad-map-tool/crmapconverter/sumo_map/templates/DEU.typ.xml"/>
    </input>

    <output>
        <output-file value="./converted_scenarios/scenario-factory/FRA_Miramas-3_1_I-1-1/FRA_Miramas-3_1_I-1-1.net.xml"/>
    </output>

    <processing>
        <geometry.remove.keep-edges.explicit value="true"/>
        <geometry.avoid-overlap value="true"/>
        <offset.disable-normalization value="true"/>
    </processing>

    <junctions>
        <no-turnarounds value="true"/>
        <junctions.internal-link-detail value="20"/>
    </junctions>

    <report>
        <aggregate-warnings value="5"/>
    </report>

    <random_number>
        <seed value="1234"/>
    </random_number>

</configuration>
--><net xmlns:xsi="http://www.w3.org/2001/XMLSchema-instance" version="1.6" junctionCornerDetail="5" junctionLinkDetail="20" limitTurnSpeed="5.50" xsi:noNamespaceSchemaLocation="http://sumo.dlr.de/xsd/net_file.xsd">

    <location netOffset="0.00,0.00" convBoundary="-274.55,112.18,-103.69,337.25" origBoundary="-275.56,112.18,-103.69,337.25" projParameter="!"/>

    <type id="highway.bridleway" priority="1" speed="2.78" allow="pedestrian" oneway="1" width="2.00"/>
    <type id="highway.bus_guideway" priority="1" speed="27.78" allow="bus" oneway="1"/>
    <type id="highway.cycleway" priority="1" speed="8.33" allow="bicycle" oneway="0" width="1.00"/>
    <type id="highway.footway" priority="1" speed="2.78" allow="pedestrian" oneway="1" width="2.00"/>
    <type id="highway.ford" priority="1" speed="2.78" allow="army" oneway="0"/>
    <type id="highway.living_street" priority="2" speed="2.78" disallow="tram rail_urban rail rail_electric rail_fast ship" oneway="0"/>
    <type id="highway.motorway" priority="14" speed="39.44" allow="private emergency authority army vip passenger hov taxi bus coach delivery truck trailer motorcycle evehicle custom1 custom2" oneway="1"/>
    <type id="highway.motorway_link" priority="9" speed="22.22" allow="private emergency authority army vip passenger hov taxi bus coach delivery truck trailer motorcycle evehicle custom1 custom2" oneway="1"/>
    <type id="highway.path" priority="1" speed="2.78" allow="pedestrian bicycle" oneway="0" width="2.00"/>
    <type id="highway.pedestrian" priority="1" speed="2.78" allow="pedestrian" oneway="1" width="2.00"/>
    <type id="highway.primary" priority="12" speed="27.78" disallow="pedestrian tram rail_urban rail rail_electric rail_fast ship" oneway="0"/>
    <type id="highway.primary_link" priority="7" speed="22.22" disallow="pedestrian tram rail_urban rail rail_electric rail_fast ship" oneway="0"/>
    <type id="highway.raceway" priority="15" speed="83.33" allow="vip" oneway="0"/>
    <type id="highway.residential" priority="3" speed="13.89" disallow="pedestrian tram rail_urban rail rail_electric rail_fast ship" oneway="0"/>
    <type id="highway.secondary" priority="11" speed="27.78" disallow="pedestrian tram rail_urban rail rail_electric rail_fast ship" oneway="0"/>
    <type id="highway.secondary_link" priority="6" speed="22.22" disallow="pedestrian tram rail_urban rail rail_electric rail_fast ship" oneway="0"/>
    <type id="highway.service" priority="1" speed="5.56" allow="pedestrian delivery bicycle" oneway="0"/>
    <type id="highway.stairs" priority="1" speed="1.39" allow="pedestrian" oneway="1" width="2.00"/>
    <type id="highway.step" priority="1" speed="1.39" allow="pedestrian" oneway="1" width="2.00"/>
    <type id="highway.steps" priority="1" speed="1.39" allow="pedestrian" oneway="1" width="2.00"/>
    <type id="highway.tertiary" priority="10" speed="22.22" disallow="pedestrian tram rail_urban rail rail_electric rail_fast ship" oneway="0"/>
    <type id="highway.tertiary_link" priority="5" speed="22.22" disallow="pedestrian tram rail_urban rail rail_electric rail_fast ship" oneway="0"/>
    <type id="highway.track" priority="1" speed="5.56" allow="pedestrian motorcycle moped bicycle" oneway="0"/>
    <type id="highway.trunk" priority="13" speed="27.78" disallow="pedestrian bicycle tram rail_urban rail rail_electric rail_fast ship" oneway="0"/>
    <type id="highway.trunk_link" priority="8" speed="22.22" disallow="pedestrian bicycle tram rail_urban rail rail_electric rail_fast ship" oneway="0"/>
    <type id="highway.unclassified" priority="4" speed="13.89" disallow="pedestrian tram rail_urban rail rail_electric rail_fast ship" oneway="0"/>
    <type id="highway.unsurfaced" priority="1" speed="8.33" disallow="tram rail_urban rail rail_electric rail_fast ship" oneway="0"/>
    <type id="railway.highspeed" priority="21" speed="69.44" allow="rail_fast" oneway="1"/>
    <type id="railway.light_rail" priority="19" speed="27.78" allow="rail_urban" oneway="1"/>
    <type id="railway.preserved" priority="16" speed="27.78" allow="rail" oneway="1"/>
    <type id="railway.rail" priority="20" speed="44.44" allow="rail" oneway="1"/>
    <type id="railway.subway" priority="18" speed="27.78" allow="rail_urban" oneway="1"/>
    <type id="railway.tram" priority="17" speed="13.89" allow="tram" oneway="1"/>

    <edge id=":45_0" function="internal">
        <lane id=":45_0_0" index="0" disallow="pedestrian tram rail_urban rail rail_electric rail_fast ship" speed="8.14" length="15.04" width="3.50" shape="-178.01,319.73 -178.32,319.34 -179.09,318.54 -179.94,317.81 -180.86,317.16 -181.82,316.60 -182.83,316.11 -184.95,315.37 -187.13,314.89 -189.36,314.63 -191.59,314.54"/>
    </edge>
    <edge id=":45_1" function="internal">
        <lane id=":45_1_0" index="0" disallow="pedestrian tram rail_urban rail rail_electric rail_fast ship" speed="36.11" length="25.86" width="3.50" shape="-174.36,319.89 -174.06,313.04 -173.24,294.05"/>
    </edge>
    <edge id=":45_2" function="internal">
        <lane id=":45_2_0" index="0" disallow="pedestrian tram rail_urban rail rail_electric rail_fast ship" speed="36.11" length="25.84" width="3.50" shape="-169.74,294.22 -170.87,320.04"/>
    </edge>
    <edge id=":45_3" function="internal">
        <lane id=":45_3_0" index="0" disallow="pedestrian tram rail_urban rail rail_electric rail_fast ship" speed="12.32" length="33.96" width="3.50" shape="-169.74,294.20 -169.95,296.82 -170.35,299.40 -171.01,301.93 -171.95,304.36 -173.22,306.64 -173.98,307.71 -174.83,308.70 -175.75,309.62 -176.76,310.46 -177.82,311.21 -180.12,312.45 -182.56,313.37 -185.10,313.99 -187.68,314.36 -191.59,314.54"/>
    </edge>
    <edge id=":45_4" function="internal">
        <lane id=":45_4_0" index="0" disallow="pedestrian tram rail_urban rail rail_electric rail_fast ship" speed="11.32" length="28.53" width="3.50" shape="-191.59,311.04 -188.15,310.89 -185.95,310.57 -183.80,310.05 -181.76,309.29 -179.85,308.25 -179.01,307.66 -178.20,306.99 -177.46,306.25 -176.77,305.45 -176.17,304.62 -175.11,302.72 -174.32,300.69 -173.77,298.55 -173.42,296.33 -173.24,294.05"/>
    </edge>
    <edge id=":45_5" function="internal">
        <lane id=":45_5_0" index="0" disallow="pedestrian tram rail_urban rail rail_electric rail_fast ship" speed="10.36" length="24.44" width="3.50" shape="-191.58,311.04 -189.49,311.08 -187.52,311.16 -185.66,311.29 -183.91,311.47 -182.27,311.70 -180.75,311.98 -179.34,312.31 -178.05,312.68 -176.87,313.11 -175.80,313.58 -174.85,314.10 -174.00,314.67 -173.28,315.29 -172.66,315.96 -172.16,316.67 -171.77,317.44 -171.50,318.25 -171.33,319.11 -171.29,320.02"/>
    </edge>
    <edge id=":47_0" function="internal">
        <lane id=":47_0_0" index="0" disallow="pedestrian tram rail_urban rail rail_electric rail_fast ship" speed="21.49" length="24.35" width="3.42" shape="-142.53,231.93 -147.96,235.42 -153.52,238.72 -157.40,240.75 -160.49,242.08 -162.77,242.74 -164.07,242.90"/>
    </edge>
    <edge id=":47_1" function="internal">
        <lane id=":47_1_0" index="0" disallow="pedestrian tram rail_urban rail rail_electric rail_fast ship" speed="10.52" length="23.10" width="3.50" shape="-142.53,231.94 -145.76,233.84 -148.08,234.92 -150.50,235.79 -153.03,236.38 -155.64,236.64 -158.25,236.54 -159.63,236.31 -162.14,235.60 -164.32,234.63"/>
    </edge>
    <edge id=":47_2" function="internal">
        <lane id=":47_2_0" index="0" disallow="pedestrian tram rail_urban rail rail_electric rail_fast ship" speed="10.13" length="21.38" width="3.50" shape="-164.44,230.45 -162.99,231.35 -160.99,232.23 -158.88,232.82 -157.80,232.99 -155.62,233.08 -153.45,232.85 -151.32,232.35 -149.26,231.61 -147.28,230.68 -144.46,229.02"/>
    </edge>
    <edge id=":47_3" function="internal">
        <lane id=":47_3_0" index="0" disallow="pedestrian tram rail_urban rail rail_electric rail_fast ship" speed="19.93" length="22.42" width="3.50" shape="-164.18,239.40 -163.18,239.28 -161.24,238.66 -158.45,237.41 -154.85,235.48 -149.60,232.33 -144.46,229.02"/>
    </edge>
    <edge id=":48_0" function="internal">
        <lane id=":48_0_0" index="0" disallow="pedestrian tram rail_urban rail rail_electric rail_fast ship" speed="10.04" length="21.60" width="3.50" shape="-162.08,242.84 -165.33,243.34 -165.91,244.17 -166.32,245.10 -166.64,246.07 -166.89,247.06 -167.28,249.06 -167.70,252.09 -168.07,256.15 -168.36,261.21"/>
    </edge>
    <edge id=":48_1" function="internal">
        <lane id=":48_1_0" index="0" disallow="pedestrian tram rail_urban rail rail_electric rail_fast ship" speed="36.11" length="27.01" width="3.50" shape="-162.08,242.84 -176.76,242.97 -189.09,243.03"/>
    </edge>
    <edge id=":48_2" function="internal">
        <lane id=":48_2_0" index="0" disallow="pedestrian tram rail_urban rail rail_electric rail_fast ship" speed="36.11" length="26.78" width="3.49" shape="-189.11,239.53 -176.78,239.47 -162.33,239.39"/>
    </edge>
    <edge id=":48_3" function="internal">
        <lane id=":48_3_0" index="0" disallow="pedestrian tram rail_urban rail rail_electric rail_fast ship" speed="12.06" length="34.70" width="3.50" shape="-189.11,239.53 -185.25,239.71 -182.64,240.11 -180.07,240.78 -177.60,241.78 -176.37,242.45 -175.22,243.21 -174.13,244.07 -173.13,245.03 -172.22,246.09 -171.42,247.21 -170.72,248.40 -170.12,249.66 -169.24,252.17 -168.68,254.77 -168.39,257.38 -168.36,261.21"/>
    </edge>
    <edge id=":48_4" function="internal">
        <lane id=":48_4_0" index="0" disallow="pedestrian tram rail_urban rail rail_electric rail_fast ship" speed="11.05" length="28.95" width="3.50" shape="-171.85,261.08 -171.88,257.75 -172.12,255.53 -172.59,253.36 -173.33,251.25 -173.81,250.25 -174.37,249.29 -175.02,248.38 -175.75,247.54 -176.55,246.76 -177.42,246.07 -178.35,245.46 -179.33,244.92 -181.39,244.08 -183.55,243.52 -185.75,243.19 -189.09,243.03"/>
    </edge>
    <edge id=":48_5" function="internal">
        <lane id=":48_5_0" index="0" disallow="pedestrian tram rail_urban rail rail_electric rail_fast ship" speed="10.97" length="26.40" width="3.49" shape="-171.85,261.08 -171.48,255.25 -170.94,250.56 -170.26,247.03 -169.58,244.68 -169.10,243.47 -168.47,242.27 -167.60,241.12 -166.39,240.12 -162.33,239.39"/>
    </edge>
    <edge id=":49_0" function="internal">
        <lane id=":49_0_0" index="0" disallow="pedestrian tram rail_urban rail rail_electric rail_fast ship" speed="15.64" length="28.16" width="3.50" shape="-185.28,212.29 -185.89,211.60 -187.30,210.26 -188.86,209.11 -190.53,208.13 -193.26,206.92 -196.14,206.03 -199.12,205.41 -202.16,205.00 -206.29,204.73 -211.46,204.76"/>
    </edge>
    <edge id=":49_1" function="internal">
        <lane id=":49_1_0" index="0" disallow="pedestrian tram rail_urban rail rail_electric rail_fast ship" speed="12.52" length="33.24" width="3.50" shape="-185.28,212.29 -187.50,209.30 -188.79,207.11 -189.87,204.79 -190.67,202.33 -191.13,199.76 -191.20,197.13 -190.87,194.53 -190.16,192.02 -189.14,189.65 -187.86,187.44 -186.39,185.38 -183.95,182.61"/>
    </edge>
    <edge id=":49_2" function="internal">
        <lane id=":49_2_0" index="0" disallow="pedestrian tram rail_urban rail rail_electric rail_fast ship" speed="11.54" length="28.08" width="3.50" shape="-181.43,185.04 -183.57,187.47 -184.83,189.22 -185.91,191.09 -186.77,193.07 -187.36,195.15 -187.63,197.30 -187.57,199.45 -187.19,201.58 -186.52,203.63 -185.62,205.60 -184.51,207.45 -182.58,210.06"/>
    </edge>
    <edge id=":49_3" function="internal">
        <lane id=":49_3_0" index="0" disallow="pedestrian tram rail_urban rail rail_electric rail_fast ship" speed="20.05" length="36.61" width="3.50" shape="-181.43,185.04 -184.49,188.10 -189.25,192.53 -193.42,196.04 -196.94,198.67 -200.66,201.05 -203.65,202.62 -206.82,203.88 -209.10,204.47 -211.46,204.76"/>
    </edge>
    <edge id=":49_4" function="internal">
        <lane id=":49_4_0" index="0" disallow="pedestrian tram rail_urban rail rail_electric rail_fast ship" speed="19.30" length="33.97" width="3.50" shape="-211.62,201.27 -209.58,201.01 -207.59,200.47 -204.74,199.30 -202.02,197.82 -198.57,195.56 -195.29,193.07 -191.36,189.73 -186.84,185.51 -183.95,182.61"/>
    </edge>
    <edge id=":49_5" function="internal">
        <lane id=":49_5_0" index="0" disallow="pedestrian tram rail_urban rail rail_electric rail_fast ship" speed="16.52" length="31.40" width="3.50" shape="-211.62,201.27 -206.02,201.24 -201.54,201.55 -198.21,202.02 -194.93,202.74 -191.72,203.77 -188.66,205.16 -186.74,206.32 -184.95,207.67 -183.32,209.22 -182.58,210.06"/>
    </edge>
    <edge id=":50_0" function="internal">
        <lane id=":50_0_0" index="0" disallow="pedestrian tram rail_urban rail rail_electric rail_fast ship" speed="11.72" length="29.52" width="3.50" shape="-250.73,203.60 -253.97,203.78 -256.14,204.09 -258.28,204.58 -260.35,205.29 -262.32,206.23 -264.15,207.44 -265.78,208.90 -267.16,210.59 -268.29,212.47 -269.15,214.48 -269.78,216.58 -270.21,218.73 -270.45,220.90"/>
    </edge>
    <edge id=":50_1" function="internal">
        <lane id=":50_1_0" index="0" disallow="pedestrian tram rail_urban rail rail_electric rail_fast ship" speed="11.86" length="34.53" width="3.50" shape="-250.73,203.60 -254.53,203.44 -257.12,203.07 -259.68,202.42 -262.15,201.44 -263.38,200.77 -264.53,200.02 -265.61,199.15 -266.60,198.18 -267.50,197.11 -268.28,195.97 -268.95,194.77 -269.52,193.49 -270.32,190.96 -270.78,188.36 -270.96,185.75 -270.85,181.95"/>
    </edge>
    <edge id=":50_2" function="internal">
        <lane id=":50_2_0" index="0" disallow="pedestrian tram rail_urban rail rail_electric rail_fast ship" speed="10.84" length="28.63" width="3.50" shape="-267.36,182.20 -267.46,185.50 -267.31,187.70 -266.92,189.88 -266.26,191.98 -265.81,192.98 -265.27,193.95 -264.65,194.86 -263.94,195.70 -263.15,196.47 -262.29,197.16 -261.37,197.77 -260.40,198.30 -258.35,199.11 -256.22,199.65 -254.03,199.97 -250.76,200.10"/>
    </edge>
    <edge id=":50_3" function="internal">
        <lane id=":50_3_0" index="0" disallow="pedestrian tram rail_urban rail rail_electric rail_fast ship" speed="36.11" length="38.82" width="3.50" shape="-267.36,182.20 -268.91,201.55 -270.45,220.90"/>
    </edge>
    <edge id=":50_4" function="internal">
        <lane id=":50_4_0" index="0" disallow="pedestrian tram rail_urban rail rail_electric rail_fast ship" speed="36.11" length="38.81" width="3.50" shape="-273.94,220.64 -272.40,201.27 -270.85,181.95"/>
    </edge>
    <edge id=":50_5" function="internal">
        <lane id=":50_5_0" index="0" disallow="pedestrian tram rail_urban rail rail_electric rail_fast ship" speed="12.68" length="34.78" width="3.50" shape="-273.94,220.64 -273.66,218.13 -273.17,215.64 -272.43,213.17 -271.41,210.78 -270.07,208.52 -268.40,206.47 -266.44,204.69 -264.24,203.23 -261.90,202.09 -259.46,201.25 -256.97,200.67 -254.46,200.31 -250.76,200.10"/>
    </edge>

    <edge id="20707" from="36" to="45" priority="3" type="highway.residential" spreadType="center" length="17.38" shape="-175.12,337.25 -181.93,309.48">
        <lane id="20707_0" index="0" disallow="pedestrian tram rail_urban rail rail_electric rail_fast ship" speed="36.11" length="17.38" width="3.50" customShape="1" shape="-175.12,337.25 -174.90,332.26 -174.89,332.13 -174.35,319.89"/>
    </edge>
    <edge id="20709" from="48" to="45" priority="3" type="highway.residential" spreadType="center" length="33.04" shape="-172.83,247.98 -178.47,309.33">
        <lane id="20709_0" index="0" disallow="pedestrian tram rail_urban rail rail_electric rail_fast ship" speed="36.11" length="33.04" width="3.50" customShape="1" shape="-168.36,261.21 -169.05,277.73 -169.74,294.22"/>
    </edge>
    <edge id="20710" from="45" to="48" priority="3" type="highway.residential" spreadType="center" length="33.02" shape="-181.95,309.01 -176.31,247.66">
        <lane id="20710_0" index="0" disallow="pedestrian tram rail_urban rail rail_electric rail_fast ship" speed="36.11" length="33.02" width="3.50" customShape="1" shape="-173.24,294.05 -172.55,277.58 -171.85,261.06"/>
    </edge>
    <edge id="20712" from="47" to="48" priority="3" type="highway.residential" spreadType="center" length="0.20" shape="-158.32,234.04 -173.47,249.17">
        <lane id="20712_0" index="0" disallow="pedestrian tram rail_urban rail rail_electric rail_fast ship" speed="36.11" length="0.20" width="3.42" customShape="1" shape="-161.88,242.83 -162.08,242.84"/>
    </edge>
    <edge id="20713" from="48" to="47" priority="3" type="highway.residential" spreadType="center" length="0.20" shape="-175.91,246.74 -160.76,231.59">
        <lane id="20713_0" index="0" disallow="pedestrian tram rail_urban rail rail_electric rail_fast ship" speed="36.11" length="0.20" width="3.49" customShape="1" shape="-162.33,239.39 -162.13,239.38"/>
    </edge>
    <edge id="20816" from="34" to="45" priority="3" type="highway.residential" spreadType="center" length="25.82" shape="-217.40,310.91 -180.29,307.42">
        <lane id="20816_0" index="0" disallow="pedestrian tram rail_urban rail rail_electric rail_fast ship" speed="36.11" length="25.82" width="3.50" customShape="1" shape="-217.40,310.91 -204.49,310.98 -191.58,311.04"/>
    </edge>
    <edge id="20817" from="45" to="30" priority="3" type="highway.residential" spreadType="center" length="25.83" shape="-179.97,310.90 -217.42,314.41">
        <lane id="20817_0" index="0" disallow="pedestrian tram rail_urban rail rail_electric rail_fast ship" speed="36.11" length="25.83" width="3.50" customShape="1" shape="-191.59,314.54 -204.51,314.48 -217.42,314.41"/>
    </edge>
    <edge id="20947" from="47" to="16" priority="3" type="highway.residential" spreadType="center" length="70.01" shape="-160.84,231.67 -106.22,172.43">
        <lane id="20947_0" index="0" disallow="pedestrian tram rail_urban rail rail_electric rail_fast ship" speed="36.11" length="70.01" width="3.50" customShape="1" shape="-144.46,229.02 -143.21,228.19 -137.49,224.18 -133.20,220.75 -129.91,217.69 -126.87,214.39 -123.81,210.45 -120.73,205.90 -117.95,201.17 -115.24,195.83 -112.62,189.90 -109.73,182.45 -106.22,172.43"/>
    </edge>
    <edge id="20948" from="23" to="47" priority="3" type="highway.residential" spreadType="center" length="70.00" shape="-103.69,175.77 -158.28,234.05">
        <lane id="20948_0" index="0" disallow="pedestrian tram rail_urban rail rail_electric rail_fast ship" speed="36.11" length="70.00" width="3.50" customShape="1" shape="-103.69,175.77 -106.59,184.05 -109.55,191.64 -112.26,197.72 -115.08,203.20 -117.96,208.07 -121.16,212.75 -124.35,216.82 -127.53,220.26 -130.96,223.44 -135.39,226.98 -141.25,231.09 -142.56,231.96"/>
    </edge>
    <edge id="21001" from="12" to="48" priority="3" type="highway.residential" spreadType="center" length="15.60" shape="-204.68,239.61 -174.11,246.18">
        <lane id="21001_0" index="0" disallow="pedestrian tram rail_urban rail rail_electric rail_fast ship" speed="36.11" length="15.60" width="3.50" customShape="1" shape="-204.68,239.61 -196.89,239.57 -189.08,239.53"/>
    </edge>
    <edge id="21002" from="48" to="3" priority="3" type="highway.residential" spreadType="center" length="15.57" shape="-174.85,249.59 -204.66,243.11">
        <lane id="21002_0" index="0" disallow="pedestrian tram rail_urban rail rail_electric rail_fast ship" speed="36.11" length="15.57" width="3.50" customShape="1" shape="-189.09,243.03 -196.87,243.07 -204.66,243.11"/>
    </edge>
    <edge id="21104" from="49" to="24" priority="3" type="highway.residential" spreadType="center" length="32.83" shape="-194.10,198.25 -161.01,159.13">
        <lane id="21104_0" index="0" disallow="pedestrian tram rail_urban rail rail_electric rail_fast ship" speed="36.11" length="32.83" width="3.50" customShape="1" shape="-183.95,182.61 -172.47,170.86 -161.01,159.13"/>
    </edge>
    <edge id="21105" from="35" to="49" priority="3" type="highway.residential" spreadType="center" length="32.83" shape="-158.51,161.57 -191.42,200.51">
        <lane id="21105_0" index="0" disallow="pedestrian tram rail_urban rail rail_electric rail_fast ship" speed="36.11" length="32.83" width="3.50" customShape="1" shape="-158.51,161.57 -169.97,173.30 -181.45,185.06"/>
    </edge>
    <edge id="21161" from="50" to="37" priority="3" type="highway.residential" spreadType="center" length="70.01" shape="-262.27,201.70 -271.04,290.84">
        <lane id="21161_0" index="0" disallow="pedestrian tram rail_urban rail rail_electric rail_fast ship" speed="36.11" length="70.01" width="3.50" customShape="1" shape="-270.45,220.90 -270.76,224.91 -271.71,239.46 -272.06,250.01 -272.01,260.56 -271.08,287.18 -271.04,290.84"/>
    </edge>
    <edge id="21162" from="41" to="50" priority="3" type="highway.residential" spreadType="center" length="70.01" shape="-274.55,290.55 -265.75,201.36">
        <lane id="21162_0" index="0" disallow="pedestrian tram rail_urban rail rail_electric rail_fast ship" speed="36.11" length="70.01" width="3.50" customShape="1" shape="-274.55,290.55 -274.59,287.09 -275.51,260.46 -275.56,249.85 -275.21,239.24 -274.25,224.66 -273.94,220.61"/>
    </edge>
    <edge id="21164" from="42" to="50" priority="3" type="highway.residential" spreadType="center" length="70.03" shape="-261.69,112.43 -262.27,201.61">
        <lane id="21164_0" index="0" disallow="pedestrian tram rail_urban rail rail_electric rail_fast ship" speed="36.11" length="70.03" width="3.50" customShape="1" shape="-261.69,112.43 -267.36,182.23"/>
    </edge>
    <edge id="21165" from="50" to="39" priority="3" type="highway.residential" spreadType="center" length="70.00" shape="-265.77,201.58 -265.18,112.18">
        <lane id="21165_0" index="0" disallow="pedestrian tram rail_urban rail rail_electric rail_fast ship" speed="36.11" length="70.00" width="3.50" customShape="1" shape="-270.85,181.95 -265.18,112.18"/>
    </edge>
    <edge id="21775" from="49" to="50" priority="3" type="highway.residential" spreadType="center" length="39.32" shape="-192.67,201.09 -264.00,203.31">
        <lane id="21775_0" index="0" disallow="pedestrian tram rail_urban rail rail_electric rail_fast ship" speed="36.11" length="39.32" width="3.50" customShape="1" shape="-211.46,204.76 -213.02,204.81 -217.60,204.70 -227.76,203.85 -233.87,203.48 -250.73,203.60"/>
    </edge>
    <edge id="21776" from="50" to="49" priority="3" type="highway.residential" spreadType="center" length="39.25" shape="-264.11,199.82 -192.78,197.59">
        <lane id="21776_0" index="0" disallow="pedestrian tram rail_urban rail rail_electric rail_fast ship" speed="36.11" length="39.25" width="3.50" customShape="1" shape="-250.76,200.10 -233.87,199.98 -227.69,200.34 -217.57,201.19 -213.09,201.31 -211.56,201.27"/>
    </edge>
    <edge id="21778" from="47" to="49" priority="3" type="highway.residential" spreadType="center" length="33.00" shape="-160.77,234.06 -194.01,200.52">
        <lane id="21778_0" index="0" disallow="pedestrian tram rail_urban rail rail_electric rail_fast ship" speed="36.11" length="33.00" width="3.50" customShape="1" shape="-164.23,237.69 -178.79,220.12 -185.28,212.28"/>
    </edge>
    <edge id="21779" from="49" to="47" priority="3" type="highway.residential" spreadType="center" length="28.49" shape="-191.53,198.06 -158.28,231.60">
        <lane id="21779_0" index="0" disallow="pedestrian tram rail_urban rail rail_electric rail_fast ship" speed="36.11" length="28.49" width="3.50" customShape="1" shape="-182.58,210.06 -176.10,217.88 -164.40,232.00"/>
    </edge>
    <edge id="22211" from="45" to="46" priority="3" type="highway.residential" spreadType="center" length="12.11" shape="-178.58,308.54 -171.39,332.14">
        <lane id="22211_0" index="0" disallow="pedestrian tram rail_urban rail rail_electric rail_fast ship" speed="36.11" length="12.11" width="3.50" customShape="1" shape="-170.87,320.04 -171.39,332.14"/>
    </edge>
    <edge id="22488" from="45" to="46" priority="3" type="highway.residential" spreadType="center" length="12.09">
        <lane id="22488_0" index="0" disallow="pedestrian tram rail_urban rail rail_electric rail_fast ship" speed="36.11" length="12.09" width="3.50" customShape="1" shape="-171.29,320.02 -171.39,332.11"/>
    </edge>

    <junction id="12" type="dead_end" x="-204.68" y="239.61" incLanes="" intLanes="" shape="-204.67,241.36 -204.68,237.86" rightOfWay="edgePriority"/>
    <junction id="16" type="dead_end" x="-106.22" y="172.43" incLanes="20947_0" intLanes="" shape="-107.87,171.86 -104.57,173.01" rightOfWay="edgePriority"/>
    <junction id="23" type="dead_end" x="-103.69" y="175.77" incLanes="" intLanes="" shape="-105.34,175.19 -102.03,176.35" rightOfWay="edgePriority"/>
    <junction id="24" type="dead_end" x="-161.01" y="159.13" incLanes="21104_0" intLanes="" shape="-162.26,157.90 -159.76,160.35" rightOfWay="edgePriority"/>
    <junction id="3" type="dead_end" x="-204.66" y="243.11" incLanes="21002_0" intLanes="" shape="-204.65,244.86 -204.67,241.36" rightOfWay="edgePriority"/>
    <junction id="30" type="dead_end" x="-217.42" y="314.41" incLanes="20817_0" intLanes="" shape="-217.42,316.16 -217.41,312.67" rightOfWay="edgePriority"/>
    <junction id="34" type="dead_end" x="-217.40" y="310.91" incLanes="" intLanes="" shape="-217.41,312.66 -217.39,309.16" rightOfWay="edgePriority"/>
    <junction id="35" type="dead_end" x="-158.51" y="161.57" incLanes="" intLanes="" shape="-159.76,160.35 -157.26,162.79" rightOfWay="edgePriority"/>
    <junction id="36" type="dead_end" x="-175.12" y="337.25" incLanes="" intLanes="" shape="-173.37,337.33 -176.87,337.17" rightOfWay="edgePriority"/>
    <junction id="37" type="dead_end" x="-271.04" y="290.84" incLanes="21161_0" intLanes="" shape="-269.29,290.82 -272.79,290.86" rightOfWay="edgePriority"/>
    <junction id="39" type="dead_end" x="-265.18" y="112.18" incLanes="21165_0" intLanes="" shape="-266.92,112.03 -263.44,112.32" rightOfWay="edgePriority"/>
    <junction id="41" type="dead_end" x="-274.55" y="290.55" incLanes="" intLanes="" shape="-272.80,290.53 -276.30,290.57" rightOfWay="edgePriority"/>
    <junction id="42" type="dead_end" x="-261.69" y="112.43" incLanes="" intLanes="" shape="-263.43,112.29 -259.95,112.57" rightOfWay="edgePriority"/>
    <junction id="45" type="priority" x="-180.21" y="309.17" incLanes="20707_0 20709_0 20816_0" intLanes=":45_0_0 :45_1_0 :45_2_0 :45_3_0 :45_4_0 :45_5_0" shape="-176.10,319.81 -169.12,320.12 -168.00,294.27 -174.99,293.98 -175.63,298.68 -177.12,302.52 -179.46,305.50 -182.65,307.63 -186.68,308.89 -191.57,309.29 -191.60,316.29 -186.82,316.41 -182.92,316.72 -179.90,317.21 -177.75,317.89 -176.48,318.76">
        <request index="0" response="000000" foes="001000" cont="0"/>
        <request index="1" response="000000" foes="111000" cont="0"/>
        <request index="2" response="000000" foes="000000" cont="0"/>
        <request index="3" response="000011" foes="100011" cont="0"/>
        <request index="4" response="000010" foes="000010" cont="0"/>
        <request index="5" response="001010" foes="001010" cont="0"/>
    </junction>
    <junction id="46" type="dead_end" x="-171.39" y="332.14" incLanes="22211_0 22488_0" intLanes="" shape="-169.64,332.21 -173.14,332.06 -169.64,332.15 -173.14,332.12"/>
    <junction id="47" type="priority" x="-159.53" y="232.83" incLanes="20948_0 21779_0 20713_0" intLanes=":47_0_0 :47_1_0 :47_2_0 :47_3_0" shape="-141.56,233.39 -145.43,227.56 -149.61,230.02 -153.39,231.61 -156.77,232.32 -159.74,232.14 -162.31,231.09 -164.48,229.16 -164.02,244.61 -158.73,244.13 -154.95,243.07 -152.01,241.46 -149.25,239.30 -145.99,236.60">
        <request index="0" response="0000" foes="0000" cont="0"/>
        <request index="1" response="1000" foes="1000" cont="0"/>
        <request index="2" response="1000" foes="1000" cont="0"/>
        <request index="3" response="0000" foes="0110" cont="0"/>
    </junction>
    <junction id="48" type="priority" x="-174.58" y="247.87" incLanes="20712_0 21001_0 20710_0" intLanes=":48_0_0 :48_1_0 :48_2_0 :48_3_0 :48_4_0 :48_5_0" shape="-159.69,244.48 -160.50,237.55 -189.12,237.78 -189.08,244.78 -184.16,245.21 -180.17,246.54 -177.13,248.79 -175.01,251.94 -173.84,256.01 -173.60,260.99 -166.61,261.28">
        <request index="0" response="000000" foes="001000" cont="0"/>
        <request index="1" response="110000" foes="111000" cont="0"/>
        <request index="2" response="100000" foes="100000" cont="0"/>
        <request index="3" response="100011" foes="100011" cont="0"/>