<routes>
	<vehicle depart="0.1" departLane="0" departPos="32.83349408893498" departSpeed="0.0" id="336" type="bus">
		<route edges="21105 21779"/>
	</vehicle>
	<vehicle depart="0.1" departLane="0" departPos="7.744547555110593" departSpeed="1.7335843" id="32" type="passenger">
		<route edges=":47_1 21778"/>
	</vehicle>
	<vehicle depart="0.1" departLane="0" departPos="9.852424308009844" departSpeed="2.4715444" id="35" type="passenger">
		<route edges="21779 20947"/>
	</vehicle>
	<vehicle depart="0.1" departLane="0" departPos="20.26535960222804" departSpeed="0.0" id="312" type="passenger">
		<route edges="21779 20947"/>
	</vehicle>
	<vehicle depart="0.1" departLane="0" departPos="11.129587372396998" departSpeed="9.2085559" id="323" type="passenger">
		<route edges="20710 21002"/>
	</vehicle>
	<vehicle depart="0.1" departLane="0" departPos="11.255538299214205" departSpeed="0.080430102" id="325" type="passenger">
		<route edges="21001 20713"/>
	</vehicle>
	<vehicle depart="0.1" departLane="0" departPos="18.00334309491721" departSpeed="3.1911668e-05" id="337" type="passenger">
		<route edges="21105 21779"/>
	</vehicle>
	<vehicle depart="0.1" departLane="0" departPos="10.830760221558014" departSpeed="10.052512" id="347" type="passenger">
		<route edges=":45_4 20710 20713"/>
	</vehicle>
	<vehicle depart="0.1" departLane="0" departPos="10.268767380267459" departSpeed="12.940392" id="33" type="truck">
		<route edges=":47_3 20947"/>
	</vehicle>
</routes>
