<routes>
	<vehicle depart="0.1" departLane="0" departPos="4.2691906082132025" departSpeed="3.1945054" id="313" type="bicycle">
		<route edges="130957 126236"/>
	</vehicle>
	<vehicle depart="0.1" departLane="0" departPos="18.870051856624443" departSpeed="2.4493585" id="31" type="passenger">
		<route edges=":20_1 125164"/>
	</vehicle>
	<vehicle depart="0.1" departLane="0" departPos="4.869661170961946" departSpeed="4.4292458" id="35" type="passenger">
		<route edges="125164 125427"/>
	</vehicle>
	<vehicle depart="0.1" departLane="0" departPos="58.483019605141465" departSpeed="0.035729391" id="315" type="passenger">
		<route edges="126235 125282"/>
	</vehicle>
	<vehicle depart="0.1" departLane="0" departPos="50.89510012899731" departSpeed="0.27256727" id="316" type="passenger">
		<route edges="126235 125282"/>
	</vehicle>
	<vehicle depart="0.1" departLane="0" departPos="30.580075109743312" departSpeed="10.864659" id="322" type="passenger">
		<route edges="130462 125425 130957"/>
	</vehicle>
	<vehicle depart="0.1" departLane="0" departPos="10.161212735364302" departSpeed="11.191666" id="323" type="passenger">
		<route edges="130462 125425 130957"/>
	</vehicle>
	<vehicle depart="0.1" departLane="0" departPos="68.51641145674544" departSpeed="0.0" id="36" type="truck">
		<route edges="126235 125282"/>
	</vehicle>
	<vehicle depart="0.1" departLane="0" departPos="42.28034245607274" departSpeed="1.2253605" id="318" type="truck">
		<route edges="126235 125282"/>
	</vehicle>
</routes>
