<!-- generated on Tue Feb  9 22:01:13 2021 by Eclipse SUMO netconvert Version 1.8.0
<configuration xmlns:xsi="http://www.w3.org/2001/XMLSchema-instance" xsi:noNamespaceSchemaLocation="http://sumo.dlr.de/xsd/netconvertConfiguration.xsd">

    <input>
        <node-files value="./converted_scenarios/scenario-factory/ESP_SantBoideLlobregat-19_1_I-1-1/ESP_SantBoideLlobregat-19_1_I-1-1.nod.xml"/>
        <edge-files value="./converted_scenarios/scenario-factory/ESP_SantBoideLlobregat-19_1_I-1-1/ESP_SantBoideLlobregat-19_1_I-1-1.edg.xml"/>
        <connection-files value="./converted_scenarios/scenario-factory/ESP_SantBoideLlobregat-19_1_I-1-1/ESP_SantBoideLlobregat-19_1_I-1-1.con.xml"/>
        <tllogic-files value="./converted_scenarios/scenario-factory/ESP_SantBoideLlobregat-19_1_I-1-1/ESP_SantBoideLlobregat-19_1_I-1-1.tll.xml"/>
        <type-files value="/home/zen/commonroad-interactive-benchmarks/install/commonroad-map-tool/crmapconverter/sumo_map/templates/DEU.typ.xml"/>
    </input>

    <output>
        <output-file value="./converted_scenarios/scenario-factory/ESP_SantBoideLlobregat-19_1_I-1-1/ESP_SantBoideLlobregat-19_1_I-1-1.net.xml"/>
    </output>

    <processing>
        <geometry.remove.keep-edges.explicit value="true"/>
        <geometry.avoid-overlap value="true"/>
        <offset.disable-normalization value="true"/>
    </processing>

    <junctions>
        <no-turnarounds value="true"/>
        <junctions.internal-link-detail value="20"/>
    </junctions>

    <report>
        <aggregate-warnings value="5"/>
    </report>

    <random_number>
        <seed value="1234"/>
    </random_number>

</configuration>
--><net xmlns:xsi="http://www.w3.org/2001/XMLSchema-instance" version="1.6" junctionCornerDetail="5" junctionLinkDetail="20" limitTurnSpeed="5.50" xsi:noNamespaceSchemaLocation="http://sumo.dlr.de/xsd/net_file.xsd">

    <location netOffset="0.00,0.00" convBoundary="-335.65,-459.56,-192.00,-370.83" origBoundary="-335.65,-459.56,-192.00,-368.42" projParameter="!"/>

    <type id="highway.bridleway" priority="1" speed="2.78" allow="pedestrian" oneway="1" width="2.00"/>
    <type id="highway.bus_guideway" priority="1" speed="27.78" allow="bus" oneway="1"/>
    <type id="highway.cycleway" priority="1" speed="8.33" allow="bicycle" oneway="0" width="1.00"/>
    <type id="highway.footway" priority="1" speed="2.78" allow="pedestrian" oneway="1" width="2.00"/>
    <type id="highway.ford" priority="1" speed="2.78" allow="army" oneway="0"/>
    <type id="highway.living_street" priority="2" speed="2.78" disallow="tram rail_urban rail rail_electric rail_fast ship" oneway="0"/>
    <type id="highway.motorway" priority="14" speed="39.44" allow="private emergency authority army vip passenger hov taxi bus coach delivery truck trailer motorcycle evehicle custom1 custom2" oneway="1"/>
    <type id="highway.motorway_link" priority="9" speed="22.22" allow="private emergency authority army vip passenger hov taxi bus coach delivery truck trailer motorcycle evehicle custom1 custom2" oneway="1"/>
    <type id="highway.path" priority="1" speed="2.78" allow="pedestrian bicycle" oneway="0" width="2.00"/>
    <type id="highway.pedestrian" priority="1" speed="2.78" allow="pedestrian" oneway="1" width="2.00"/>
    <type id="highway.primary" priority="12" speed="27.78" disallow="pedestrian tram rail_urban rail rail_electric rail_fast ship" oneway="0"/>
    <type id="highway.primary_link" priority="7" speed="22.22" disallow="pedestrian tram rail_urban rail rail_electric rail_fast ship" oneway="0"/>
    <type id="highway.raceway" priority="15" speed="83.33" allow="vip" oneway="0"/>
    <type id="highway.residential" priority="3" speed="13.89" disallow="pedestrian tram rail_urban rail rail_electric rail_fast ship" oneway="0"/>
    <type id="highway.secondary" priority="11" speed="27.78" disallow="pedestrian tram rail_urban rail rail_electric rail_fast ship" oneway="0"/>
    <type id="highway.secondary_link" priority="6" speed="22.22" disallow="pedestrian tram rail_urban rail rail_electric rail_fast ship" oneway="0"/>
    <type id="highway.service" priority="1" speed="5.56" allow="pedestrian delivery bicycle" oneway="0"/>
    <type id="highway.stairs" priority="1" speed="1.39" allow="pedestrian" oneway="1" width="2.00"/>
    <type id="highway.step" priority="1" speed="1.39" allow="pedestrian" oneway="1" width="2.00"/>
    <type id="highway.steps" priority="1" speed="1.39" allow="pedestrian" oneway="1" width="2.00"/>
    <type id="highway.tertiary" priority="10" speed="22.22" disallow="pedestrian tram rail_urban rail rail_electric rail_fast ship" oneway="0"/>
    <type id="highway.tertiary_link" priority="5" speed="22.22" disallow="pedestrian tram rail_urban rail rail_electric rail_fast ship" oneway="0"/>
    <type id="highway.track" priority="1" speed="5.56" allow="pedestrian motorcycle moped bicycle" oneway="0"/>
    <type id="highway.trunk" priority="13" speed="27.78" disallow="pedestrian bicycle tram rail_urban rail rail_electric rail_fast ship" oneway="0"/>
    <type id="highway.trunk_link" priority="8" speed="22.22" disallow="pedestrian bicycle tram rail_urban rail rail_electric rail_fast ship" oneway="0"/>
    <type id="highway.unclassified" priority="4" speed="13.89" disallow="pedestrian tram rail_urban rail rail_electric rail_fast ship" oneway="0"/>
    <type id="highway.unsurfaced" priority="1" speed="8.33" disallow="tram rail_urban rail rail_electric rail_fast ship" oneway="0"/>
    <type id="railway.highspeed" priority="21" speed="69.44" allow="rail_fast" oneway="1"/>
    <type id="railway.light_rail" priority="19" speed="27.78" allow="rail_urban" oneway="1"/>
    <type id="railway.preserved" priority="16" speed="27.78" allow="rail" oneway="1"/>
    <type id="railway.rail" priority="20" speed="44.44" allow="rail" oneway="1"/>
    <type id="railway.subway" priority="18" speed="27.78" allow="rail_urban" oneway="1"/>
    <type id="railway.tram" priority="17" speed="13.89" allow="tram" oneway="1"/>

    <edge id=":15_0" function="internal">
        <lane id=":15_0_0" index="0" disallow="pedestrian tram rail_urban rail rail_electric rail_fast ship" speed="36.11" length="2.97" width="3.50" shape="-258.78,-383.24 -261.23,-384.91"/>
    </edge>
    <edge id=":19_0" function="internal">
        <lane id=":19_0_0" index="0" disallow="pedestrian tram rail_urban rail rail_electric rail_fast ship" speed="12.34" length="22.65" width="3.50" shape="-277.63,-396.13 -279.07,-396.90 -280.59,-397.45 -282.70,-397.85 -284.86,-397.89 -287.52,-397.54 -290.12,-396.83 -293.12,-395.64 -296.47,-393.91 -298.80,-392.51"/>
    </edge>
    <edge id=":19_1" function="internal">
        <lane id=":19_1_0" index="0" disallow="pedestrian tram rail_urban rail rail_electric rail_fast ship" speed="19.21" length="17.54" width="3.50" shape="-288.01,-410.91 -286.30,-406.63 -285.20,-405.54 -281.87,-403.07 -275.81,-399.12"/>
    </edge>
    <edge id=":19_2" function="internal">
        <lane id=":19_2_0" index="0" disallow="pedestrian tram rail_urban rail rail_electric rail_fast ship" speed="10.18" length="22.66" width="3.50" shape="-288.01,-410.91 -286.58,-406.57 -287.09,-405.67 -288.50,-404.17 -291.28,-401.87 -296.34,-398.29 -300.69,-395.46"/>
    </edge>
    <edge id=":19_3" function="internal">
        <lane id=":19_3_0" index="0" disallow="pedestrian tram rail_urban rail rail_electric rail_fast ship" speed="13.83" length="28.24" width="3.50" shape="-302.40,-398.50 -299.28,-400.28 -296.32,-401.55 -293.76,-402.33 -291.12,-402.82 -288.45,-403.00 -285.77,-402.83 -283.14,-402.33 -280.58,-401.52 -277.65,-400.19 -275.81,-399.12"/>
    </edge>
    <edge id=":20_0" function="internal">
        <lane id=":20_0_0" index="0" disallow="pedestrian tram rail_urban rail rail_electric rail_fast ship" speed="3.81" length="2.22" width="3.40" shape="-295.85,-433.55 -296.31,-432.25 -296.47,-431.42"/>
    </edge>
    <edge id=":20_1" function="internal">
        <lane id=":20_1_0" index="0" disallow="pedestrian tram rail_urban rail rail_electric rail_fast ship" speed="36.11" length="13.08" width="3.40" shape="-305.71,-441.22 -302.23,-435.04 -299.30,-429.82"/>
    </edge>
    <edge id=":3_0" function="internal">
        <lane id=":3_0_0" index="0" disallow="pedestrian tram rail_urban rail rail_electric rail_fast ship" speed="36.11" length="3.01" width="3.50" shape="-304.25,-389.23 -306.82,-387.67"/>
        <lane id=":3_0_1" index="1" disallow="pedestrian tram rail_urban rail rail_electric rail_fast ship" speed="36.11" length="3.02" width="3.50" shape="-306.05,-392.23 -308.64,-390.67"/>
    </edge>
    <edge id=":5_0" function="internal">
        <lane id=":5_0_0" index="0" disallow="pedestrian tram rail_urban rail rail_electric rail_fast ship" speed="36.11" length="2.97" width="3.50" shape="-259.26,-387.80 -256.81,-386.13"/>
    </edge>
    <edge id=":7_0" function="internal">
        <lane id=":7_0_0" index="0" disallow="pedestrian tram rail_urban rail rail_electric rail_fast ship" speed="36.11" length="2.99" width="3.50" shape="-310.42,-393.68 -307.86,-395.23"/>
    </edge>

    <edge id="125164" from="20" to="19" priority="3" type="highway.residential" spreadType="center" length="22.04">
        <lane id="125164_0" index="0" disallow="pedestrian tram rail_urban rail rail_electric rail_fast ship" speed="36.11" length="22.04" width="3.40" customShape="1" shape="-299.34,-429.80 -294.28,-420.92 -294.22,-420.81 -292.00,-417.31 -289.13,-412.99 -288.01,-410.91"/>
    </edge>
    <edge id="125282" from="15" to="19" priority="3" type="highway.residential" spreadType="center" length="19.90" shape="-260.01,-384.06 -289.46,-397.70">
        <lane id="125282_0" index="0" disallow="pedestrian tram rail_urban rail rail_electric rail_fast ship" speed="36.11" length="19.90" width="3.50" customShape="1" shape="-261.23,-384.91 -271.29,-391.96 -277.45,-396.02 -277.54,-396.08 -277.65,-396.15"/>
    </edge>
    <edge id="125425" from="7" to="19" priority="3" type="highway.residential" spreadType="center" length="6.36" shape="-309.14,-394.46 -289.04,-400.95">
        <lane id="125425_0" index="0" disallow="pedestrian tram rail_urban rail rail_electric rail_fast ship" speed="36.11" length="6.36" width="3.50" customShape="1" shape="-307.86,-395.23 -305.83,-396.45 -302.41,-398.51"/>
    </edge>
    <edge id="125427" from="19" to="3" priority="3" type="highway.residential" spreadType="center" length="6.36" shape="-287.02,-396.14 -306.44,-389.96">
        <lane id="125427_0" index="0" disallow="pedestrian tram rail_urban rail rail_electric rail_fast ship" speed="36.11" length="6.36" width="3.50" customShape="1" shape="-298.80,-392.51 -302.18,-390.48 -304.25,-389.23"/>
        <lane id="125427_1" index="1" disallow="pedestrian tram rail_urban rail rail_electric rail_fast ship" speed="36.11" length="6.36" width="3.50" customShape="1" shape="-300.60,-395.51 -304.02,-393.46 -306.05,-392.23"/>
    </edge>
    <edge id="125504" from="13" to="20" priority="3" type="highway.residential" spreadType="center" length="21.03">
        <lane id="125504_0" index="0" disallow="pedestrian tram rail_urban rail rail_electric rail_fast ship" speed="36.11" length="21.03" width="3.50" customShape="1" shape="-315.99,-459.56 -313.05,-454.30 -305.74,-441.20"/>
    </edge>
    <edge id="125928" from="11" to="20" priority="3" type="highway.residential" spreadType="center" length="36.16">
        <lane id="125928_0" index="0" disallow="pedestrian tram rail_urban rail rail_electric rail_fast ship" speed="36.11" length="36.16" width="3.50" customShape="1" shape="-267.05,-455.66 -276.99,-449.36 -297.59,-436.29"/>
    </edge>
    <edge id="126235" from="16" to="15" priority="3" type="highway.residential" spreadType="center" length="68.52">
        <lane id="126235_0" index="0" disallow="pedestrian tram rail_urban rail rail_electric rail_fast ship" speed="36.11" length="68.52" width="3.50" customShape="1" shape="-194.08,-370.83 -207.58,-369.30 -215.68,-368.61 -221.78,-368.42 -227.36,-368.59 -230.90,-368.94 -233.88,-369.58 -236.78,-370.52 -240.06,-371.89 -243.66,-373.77 -251.52,-378.45 -258.78,-383.24"/>
    </edge>
    <edge id="126236" from="5" to="6" priority="3" type="highway.residential" spreadType="center" length="68.52">
        <lane id="126236_0" index="0" disallow="pedestrian tram rail_urban rail rail_electric rail_fast ship" speed="36.11" length="68.52" width="3.50" customShape="1" shape="-256.81,-386.13 -249.69,-381.43 -241.98,-376.84 -238.53,-375.03 -235.41,-373.74 -232.70,-372.89 -229.92,-372.33 -226.56,-372.05 -221.13,-371.92 -215.19,-372.14 -207.23,-372.86 -192.21,-374.55 -192.00,-374.56"/>
    </edge>
    <edge id="130462" from="10" to="7" priority="3" type="highway.residential" spreadType="center" length="29.70">
        <lane id="130462_0" index="0" disallow="pedestrian tram rail_urban rail rail_electric rail_fast ship" speed="36.11" length="29.70" width="3.50" customShape="1" shape="-335.65,-378.01 -320.55,-387.47 -310.42,-393.68"/>
    </edge>
    <edge id="130957" from="19" to="5" priority="3" type="highway.residential" spreadType="center" length="20.05" shape="-287.99,-400.87 -258.04,-386.95">
        <lane id="130957_0" index="0" disallow="pedestrian tram rail_urban rail rail_electric rail_fast ship" speed="36.11" length="20.05" width="3.50" customShape="1" shape="-275.81,-399.12 -275.69,-399.05 -275.58,-398.98 -269.36,-394.88 -259.26,-387.80"/>
    </edge>
    <edge id="130963" from="3" to="9" priority="3" type="highway.residential" spreadType="center" length="29.60">
        <lane id="130963_0" index="0" disallow="pedestrian tram rail_urban rail rail_electric rail_fast ship" speed="36.11" length="29.60" width="3.50" customShape="1" shape="-306.82,-387.67 -316.89,-381.50 -331.97,-372.06"/>
        <lane id="130963_1" index="1" disallow="pedestrian tram rail_urban rail rail_electric rail_fast ship" speed="36.11" length="29.64" width="3.50" customShape="1" shape="-308.64,-390.67 -318.72,-384.49 -333.82,-375.03"/>
    </edge>

    <junction id="10" type="dead_end" x="-335.65" y="-378.01" incLanes="" intLanes="" shape="-334.72,-376.53 -336.58,-379.50" rightOfWay="edgePriority"/>
    <junction id="11" type="dead_end" x="-267.05" y="-455.66" incLanes="" intLanes="" shape="-267.99,-457.13 -266.11,-454.18" rightOfWay="edgePriority"/>
    <junction id="13" type="dead_end" x="-315.99" y="-459.56" incLanes="" intLanes="" shape="-317.51,-458.70 -314.46,-460.41" rightOfWay="edgePriority"/>
    <junction id="15" type="priority" x="-260.01" y="-384.06" incLanes="126235_0" intLanes=":15_0_0" shape="-259.74,-381.78 -257.82,-384.70 -260.22,-386.34 -262.23,-383.47" rightOfWay="edgePriority">
        <request index="0" response="0" foes="0" cont="0"/>
    </junction>
    <junction id="16" type="dead_end" x="-194.08" y="-370.83" incLanes="" intLanes="" shape="-194.27,-372.57 -193.88,-369.09" rightOfWay="edgePriority"/>
    <junction id="19" type="priority" x="-288.64" y="-399.24" incLanes="125282_0 125164_0 125425_0" intLanes=":19_0_0 :19_1_0 :19_2_0 :19_3_0" shape="-278.57,-394.66 -274.88,-400.61 -277.79,-402.36 -280.00,-403.69 -281.72,-404.94 -283.20,-406.41 -284.66,-408.45 -286.33,-411.36 -289.70,-410.46 -290.80,-408.53 -292.64,-406.98 -295.34,-405.04 -298.89,-402.72 -303.31,-400.01 -297.90,-391.01 -293.79,-393.26 -290.03,-394.85 -286.62,-395.79 -283.58,-396.07 -280.89,-395.69">
        <request index="0" response="0000" foes="0000" cont="0"/>
        <request index="1" response="1000" foes="1000" cont="0"/>
        <request index="2" response="1000" foes="1000" cont="0"/>
        <request index="3" response="0000" foes="0110" cont="0"/>
    </junction>
    <junction id="20" type="priority" x="-297.13" y="-437.71" incLanes="125928_0 125504_0" intLanes=":20_0_0 :20_1_0" shape="-300.82,-428.95 -297.86,-430.64 -298.36,-432.22 -298.27,-432.94 -297.96,-433.61 -297.42,-434.24 -296.65,-434.82 -298.53,-437.77 -300.24,-437.56 -301.17,-438.07 -302.14,-438.99 -303.15,-440.31 -304.21,-442.05 -307.27,-440.35">
        <request index="0" response="00" foes="10" cont="0"/>
        <request index="1" response="01" foes="01" cont="0"/>
    </junction>
    <junction id="3" type="priority" x="-306.44" y="-389.96" incLanes="125427_0 125427_1" intLanes=":3_0_0 :3_0_1" shape="-303.35,-387.73 -306.95,-393.74 -309.55,-392.16 -305.92,-386.18" rightOfWay="edgePriority">
        <request index="0" response="00" foes="00" cont="0"/>
        <request index="1" response="00" foes="00" cont="0"/>
    </junction>
    <junction id="5" type="priority" x="-258.04" y="-386.95" incLanes="130957_0" intLanes=":5_0_0" shape="-257.77,-384.67 -255.84,-387.59 -258.25,-389.23 -260.26,-386.37" rightOfWay="edgePriority">
        <request index="0" response="0" foes="0" cont="0"/>
    </junction>
    <junction id="6" type="dead_end" x="-192.00" y="-374.56" incLanes="126236_0" intLanes="" shape="-192.12,-376.31 -191.87,-372.82" rightOfWay="edgePriority"/>
    <junction id="7" type="priority" x="-309.14" y="-394.46" incLanes="130462_0" intLanes=":7_0_0" shape="-306.96,-393.73 -308.76,-396.73 -311.33,-395.17 -309.50,-392.19" rightOfWay="edgePriority">
        <request index="0" response="0" foes="0" cont="0"/>
    </junction>
    <junction id="9" type="dead_end" x="-332.89" y="-373.55" incLanes="130963_0 130963_1" intLanes="" shape="-331.03,-370.58 -334.74,-376.51" rightOfWay="edgePriority"/>

    <connection from="125164" to="130957" fromLane="0" toLane="0" contPos="-4.00" shape="-286.55,-407.08 -286.30,-406.63 -285.20,-405.54 -281.87,-403.07 -275.81,-399.12" via=":19_1_0" dir="r" state="m"/>
    <connection from="125164" to="125427" fromLane="0" toLane="1" contPos="-4.00" shape="-286.55,-407.08 -286.58,-406.57 -287.09,-405.67 -288.50,-404.17 -291.28,-401.87 -296.34,-398.29 -300.69,-395.46" via=":19_2_0" dir="l" state="m"/>
    <connection from="125282" to="125427" fromLane="0" toLane="0" contPos="-4.00" shape="-277.63,-396.13 -279.07,-396.90 -280.59,-397.45 -282.70,-397.85 -284.86,-397.89 -287.52,-397.54 -290.12,-396.83 -293.12,-395.64 -296.47,-393.91 -298.80,-392.51" via=":19_0_0" dir="s" state="M"/>
    <connection from="125425" to="130957" fromLane="0" toLane="0" contPos="-4.00" shape="-302.53,-398.43 -299.28,-400.28 -296.32,-401.55 -293.76,-402.33 -291.12,-402.82 -288.45,-403.00 -285.77,-402.83 -283.14,-402.33 -280.58,-401.52 -277.65,-400.19 -275.81,-399.12" via=":19_3_0" dir="s" state="M"/>
    <connection from="125427" to="130963" fromLane="0" toLane="0" contPos="-4.00" via=":3_0_0" dir="s" state="M"/>
    <connection from="125427" to="130963" fromLane="1" toLane="1" contPos="-4.00" via=":3_0_1" dir="s" state="M"/>
    <connection from="125504" to="125164" fromLane="0" toLane="0" contPos="-4.00" shape="-310.12,-449.04 -302.23,-435.04 -294.35,-421.03" via=":20_1_0" dir="s" state="m"/>
    <connection from="125928" to="125164" fromLane="0" toLane="0" contPos="-4.00" shape="-286.93,-443.05 -289.80,-441.04 -292.00,-439.11 -293.58,-437.38 -294.92,-435.47 -295.72,-433.91 -296.31,-432.25 -296.65,-430.53 -296.74,-428.78 -296.58,-427.03 -296.02,-424.76 -295.16,-422.58 -294.35,-421.03" via=":20_0_0" dir="r" state="M"/>
    <connection from="126235" to="125282" fromLane="0" toLane="0" contPos="-4.00" via=":15_0_0" dir="s" state="M"/>
    <connection from="130462" to="125425" fromLane="0" toLane="0" contPos="-4.00" via=":7_0_0" dir="s" state="M"/>
    <connection from="130957" to="126236" fromLane="0" toLane="0" contPos="-4.00" via=":5_0_0" dir="s" state="M"/>

    <connection from=":15_0" to="125282" fromLane="0" toLane="0" dir="s" state="M"/>
    <connection from=":19_0" to="125427" fromLane="0" toLane="0" dir="s" state="M"/>
    <connection from=":19_1" to="130957" fromLane="0" toLane="0" dir="r" state="M"/>
    <connection from=":19_2" to="125427" fromLane="0" toLane="1" dir="l" state="M"/>
    <connection from=":19_3" to="130957" fromLane="0" toLane="0" dir="s" state="M"/>
    <connection from=":20_0" to="125164" fromLane="0" toLane="0" dir="r" state="M"/>
    <connection from=":20_1" to="125164" fromLane="0" toLane="0" dir="s" state="M"/>
    <connection from=":3_0" to="130963" fromLane="0" toLane="0" dir="s" state="M"/>
    <connection from=":3_0" to="130963" fromLane="1" toLane="1" dir="s" state="M"/>
    <connection from=":5_0" to="126236" fromLane="0" toLane="0" dir="s" state="M"/>
    <connection from=":7_0" to="125425" fromLane="0" toLane="0" dir="s" state="M"/>

</net>