<routes>
	<vehicle depart="0.1" departLane="0" departPos="27.872842720415154" departSpeed="8.0449519" id="357" type="bus">
		<route edges="66173 66176"/>
	</vehicle>
	<vehicle depart="0.1" departLane="0" departPos="19.86794295287234" departSpeed="0.68497654" id="31" type="passenger">
		<route edges=":55_4 66667"/>
	</vehicle>
	<vehicle depart="0.1" departLane="0" departPos="12.165466829670395" departSpeed="1.1111226" id="38" type="passenger">
		<route edges=":51_8 66176"/>
	</vehicle>
	<vehicle depart="0.1" departLane="0" departPos="15.534531519150606" departSpeed="0.65836755" id="328" type="passenger">
		<route edges=":51_9 66664"/>
	</vehicle>
	<vehicle depart="0.1" departLane="0" departPos="5.049344051999922" departSpeed="5.9268142" id="348" type="passenger">
		<route edges="66668 66510"/>
	</vehicle>
	<vehicle depart="0.1" departLane="0" departPos="60.18921170470541" departSpeed="11.167631" id="352" type="passenger">
		<route edges="66173 66668"/>
	</vehicle>
	<vehicle depart="0.1" departLane="0" departPos="40.22438978093797" departSpeed="7.9608984" id="355" type="passenger">
		<route edges="66173 66176 66179"/>
	</vehicle>
	<vehicle depart="0.1" departLane="0" departPos="25.353206378768782" departSpeed="0.1223014" id="30" type="truck">
		<route edges=":51_2 66172"/>
	</vehicle>
</routes>
