<!-- generated on 2020-12-18 15:54:17.564188 by ipykernel_launcher.py v1_2_0+5214-53edc58fcd
-->
<nodes>
	<node id="1" type="from" x="-35.79018" y="45.89609"/>
	<node id="2" type="to" x="-8.62489" y="21.67792"/>
	<node id="3" type="to" x="150.06182500000003" y="-119.57200833333333"/>
	<node id="4" type="to" x="157.517125" y="-126.14171666666668"/>
	<node id="5" type="from" x="-43.436400000000006" y="37.3283"/>
</nodes>
