<routes>
	<vehicle depart="0.1" departLane="0" departPos="21.30681593493272" departSpeed="0.3096502" id="31" type="passenger">
		<route edges=":17_9 85822"/>
	</vehicle>
	<vehicle depart="0.1" departLane="0" departPos="61.924739213237366" departSpeed="0.19625051" id="39" type="passenger">
		<route edges="85603 85822"/>
	</vehicle>
	<vehicle depart="0.1" departLane="0" departPos="33.41607686845893" departSpeed="0.51649758" id="310" type="passenger">
		<route edges="85821 85818"/>
	</vehicle>
	<vehicle depart="0.1" departLane="0" departPos="25.16551380087614" departSpeed="0.33149922" id="313" type="passenger">
		<route edges="85821 85600"/>
	</vehicle>
	<vehicle depart="0.1" departLane="0" departPos="14.050082127969716" departSpeed="1.3600182" id="316" type="passenger">
		<route edges="85821 85600"/>
	</vehicle>
	<vehicle depart="0.1" departLane="0" departPos="5.230404127484" departSpeed="0.32284005" id="320" type="passenger">
		<route edges="85821 85600"/>
	</vehicle>
	<vehicle depart="0.1" departLane="0" departPos="70.5270504100518" departSpeed="4.854878" id="332" type="passenger">
		<route edges="85819 85600"/>
	</vehicle>
	<vehicle depart="0.1" departLane="0" departPos="42.70275146773379" departSpeed="9.1331457" id="335" type="passenger">
		<route edges="85819 85604"/>
	</vehicle>
	<vehicle depart="0.1" departLane="0" departPos="1.25" departSpeed="7.7586027" id="330" type="motorcycle">
		<route edges="85600"/>
	</vehicle>
	<vehicle depart="0.1" departLane="0" departPos="12.21901166987095" departSpeed="0.76402698" id="30" type="truck">
		<route edges=":17_5 85822"/>
	</vehicle>
</routes>
