<!-- generated on 2020-12-18 15:56:57.562424 by ipykernel_launcher.py v1_2_0+5214-53edc58fcd
-->
<edges>
	<edge from="1" function="normal" id="43343" length="44.97262093823625" numLanes="3" priority="1" speed="36.11111111111111" spreadType="center" to="2">
		<lane allow="moped bicycle pedestrian custom1 trailer evehicle rail_urban ship private truck vip custom2 authority delivery rail_electric taxi tram army hov coach motorcycle passenger bus rail emergency" index="0" length="44.97262093823625" shape="-5.6975999999999996,8.30125 -6.5639,-6.69575 -7.43235,-21.7309 -8.300799999999999,-36.76625" speed="36.11111111111111" width="2.8867804713902294"/>
		<lane allow="moped bicycle pedestrian custom1 trailer evehicle rail_urban ship private truck vip custom2 authority delivery rail_electric taxi tram army hov coach motorcycle passenger bus rail emergency" index="1" length="44.97262093823625" shape="-2.7916000000000003,8.1304 -3.6498999999999997,-6.78735 -4.51485,-21.8203 -5.3797999999999995,-36.853449999999995" speed="36.11111111111111" width="2.863676659471177"/>
		<lane allow="moped bicycle pedestrian custom1 trailer evehicle rail_urban ship private truck vip custom2 authority delivery rail_electric taxi tram army hov coach motorcycle passenger bus rail emergency" index="2" length="44.97262093823625" shape="0.06255,7.9626 -0.7696500000000001,-6.8778500000000005 -1.5213,-21.91205 -2.3951,-36.94255" speed="36.11111111111111" width="2.782901214560086"/>
	</edge>
	<edge from="2" function="normal" id="43594" length="10.990047443254944" numLanes="3" priority="1" speed="36.11111111111111" spreadType="center" to="3">
		<lane allow="moped bicycle pedestrian custom1 trailer evehicle rail_urban ship private truck vip custom2 authority delivery rail_electric taxi tram army hov coach motorcycle passenger bus rail emergency" index="0" length="10.990047443254944" shape="-8.300799999999999,-36.76625 -8.62585,-42.2921 -8.9509,-47.81805" speed="36.11111111111111" width="2.9809259249434557"/>
		<lane allow="moped bicycle pedestrian custom1 trailer evehicle rail_urban ship private truck vip custom2 authority delivery rail_electric taxi tram army hov coach motorcycle passenger bus rail emergency" index="1" length="10.990047443254944" shape="-5.3797999999999995,-36.853449999999995 -5.66385,-42.3612 -5.9479500000000005,-47.869" speed="36.11111111111111" width="2.863676659471177"/>
		<lane allow="moped bicycle pedestrian custom1 trailer evehicle rail_urban ship private truck vip custom2 authority delivery rail_electric taxi tram army hov coach motorcycle passenger bus rail emergency" index="2" length="10.990047443254944" shape="-2.3951,-36.94255 -2.6523000000000003,-42.43155 -2.90955,-47.92055" speed="36.11111111111111" width="3.05954023016531"/>
	</edge>
	<edge from="3" function="normal" id="43652" length="14.599987583409064" numLanes="1" priority="1" speed="36.11111111111111" spreadType="center" to="4">
		<lane allow="moped bicycle pedestrian custom1 trailer evehicle rail_urban ship private vip custom2 authority delivery rail_electric taxi tram army hov coach motorcycle passenger rail emergency" index="0" length="14.599987583409064" shape="-2.90955,-47.92055 -2.99145,-51.290099999999995 -2.64405,-53.2106 -2.1337,-54.81765 -1.48965,-56.18155 -0.6094999999999999,-57.36165 0.7424,-58.4602 2.17825,-58.8838 3.54985,-58.92245" speed="36.11111111111111" width="2.9750851702094185"/>
	</edge>
	<edge from="4" function="normal" id="43602" length="9.339869187790512" numLanes="2" priority="1" speed="36.11111111111111" spreadType="center" to="5">
		<lane allow="moped bicycle pedestrian custom1 trailer evehicle rail_urban ship private truck vip custom2 authority delivery rail_electric taxi tram army hov coach motorcycle passenger bus rail emergency" index="0" length="9.339869187790512" shape="3.3703000000000003,-62.31815 8.240300000000001,-62.28305 13.11025,-62.248" speed="36.11111111111111" width="3.4616311949715266"/>
		<lane allow="moped bicycle pedestrian custom1 trailer evehicle rail_urban ship private truck vip custom2 authority delivery rail_electric taxi tram army hov coach motorcycle passenger bus rail emergency" index="1" length="9.339869187790512" shape="3.54985,-58.92245 8.2198,-58.9045 12.88965,-58.8865" speed="36.11111111111111" width="3.275830229117497"/>
	</edge>
	<edge from="5" function="normal" id="43488" length="37.31782429330328" numLanes="2" priority="1" speed="36.11111111111111" spreadType="center" to="6">
		<lane allow="moped bicycle pedestrian custom1 trailer evehicle rail_urban ship private truck vip custom2 authority delivery rail_electric taxi tram army hov coach motorcycle passenger bus rail emergency" index="0" length="37.31782429330328" shape="13.11025,-62.248 31.65645,-61.038 50.3489,-59.8184" speed="36.11111111111111" width="3.4616246474740735"/>
		<lane allow="moped bicycle pedestrian custom1 trailer evehicle rail_urban ship private truck vip custom2 authority delivery rail_electric taxi tram army hov coach motorcycle passenger bus rail emergency" index="1" length="37.31782429330328" shape="12.88965,-58.8865 31.47455,-57.67400000000001 50.12835,-56.4569" speed="36.11111111111111" width="3.275830229117497"/>
	</edge>
	<edge from="3" function="normal" id="43632" length="16.314607196005692" numLanes="2" priority="1" speed="36.11111111111111" spreadType="center" to="7">
		<lane allow="moped bicycle pedestrian custom1 trailer evehicle rail_urban ship private truck vip custom2 authority delivery rail_electric taxi tram army hov coach motorcycle passenger bus rail emergency" index="0" length="16.314607196005692" shape="-8.9509,-47.81805 -9.13615,-50.96725 -9.331900000000001,-54.2946 -9.50935,-57.311899999999994 -9.704799999999999,-60.633849999999995 -9.914000000000001,-64.19115" speed="36.11111111111111" width="2.988630075803963"/>
		<lane allow="moped bicycle pedestrian custom1 trailer evehicle rail_urban ship private truck vip custom2 authority delivery rail_electric taxi tram army hov coach motorcycle passenger bus rail emergency" index="1" length="16.314607196005692" shape="-5.9479500000000005,-47.869 -6.10935,-50.9991 -6.27895,-54.2846 -6.4346,-57.30365 -6.60555,-60.618449999999996 -6.7883000000000004,-64.16194999999999" speed="36.11111111111111" width="3.018134312783313"/>
	</edge>
	<edge from="7" function="normal" id="43832" length="7.9089355710629805" numLanes="2" priority="1" speed="36.11111111111111" spreadType="center" to="8">
		<lane allow="moped bicycle pedestrian custom1 trailer evehicle rail_urban ship private truck vip custom2 authority delivery rail_electric taxi tram army hov coach motorcycle passenger bus rail emergency" index="0" length="7.9089355710629805" shape="-9.914000000000001,-64.19115 -10.13165,-68.13964999999999 -10.349250000000001,-72.0881" speed="36.11111111111111" width="2.9417814279786314"/>
		<lane allow="moped bicycle pedestrian custom1 trailer evehicle rail_urban ship private truck vip custom2 authority delivery rail_electric taxi tram army hov coach motorcycle passenger bus rail emergency" index="1" length="7.9089355710629805" shape="-6.7883000000000004,-64.16194999999999 -6.99695,-68.2157 -7.20565,-72.26935" speed="36.11111111111111" width="3.2491412850167047"/>
	</edge>
	<edge from="8" function="normal" id="43382" length="24.841923129886915" numLanes="2" priority="1" speed="36.11111111111111" spreadType="center" to="9">
		<lane allow="moped bicycle pedestrian custom1 trailer evehicle rail_urban ship private truck vip custom2 authority delivery rail_electric taxi tram army hov coach motorcycle passenger bus rail emergency" index="0" length="24.841923129886915" shape="-10.349250000000001,-72.0881 -10.91335,-84.5793 -11.18725,-97.0255" speed="36.11111111111111" width="2.523961832120288"/>
		<lane allow="moped bicycle pedestrian custom1 trailer evehicle rail_urban ship private truck vip custom2 authority delivery rail_electric taxi tram army hov coach motorcycle passenger bus rail emergency" index="1" length="24.841923129886915" shape="-7.20565,-72.26935 -7.8919999999999995,-84.58835 -8.50465,-97.07714999999999" speed="36.11111111111111" width="2.842597139940868"/>
	</edge>
	<edge from="9" function="normal" id="43386" length="19.690046078976323" numLanes="2" priority="1" speed="36.11111111111111" spreadType="center" to="10">
		<lane allow="moped bicycle pedestrian custom1 trailer evehicle rail_urban ship private vip custom2 authority delivery rail_electric taxi tram army hov coach motorcycle passenger rail emergency" index="0" length="19.690046078976323" shape="-11.18725,-97.0255 -10.751850000000001,-106.90795 -10.58275,-116.7045" speed="36.11111111111111" width="2.5079225925055995"/>
		<lane allow="moped bicycle pedestrian custom1 trailer evehicle rail_urban ship private truck vip custom2 authority delivery rail_electric taxi tram army hov coach motorcycle passenger bus rail emergency" index="1" length="19.690046078976323" shape="-8.50465,-97.07714999999999 -7.7578499999999995,-106.95660000000001 -7.437949999999999,-116.8271" speed="36.11111111111111" width="2.842597139940868"/>
	</edge>
	<edge from="10" function="normal" id="43390" length="7.330307574653017" numLanes="2" priority="1" speed="36.11111111111111" spreadType="center" to="11">
		<lane allow="moped bicycle pedestrian custom1 trailer evehicle rail_urban ship private truck vip custom2 authority delivery rail_electric taxi tram army hov coach motorcycle passenger bus rail emergency" index="0" length="7.330307574653017" shape="-10.58275,-116.7045 -10.55435,-120.37805 -10.525950000000002,-124.05199999999999" speed="36.11111111111111" width="2.3711741922515945"/>
		<lane allow="moped bicycle pedestrian custom1 trailer evehicle rail_urban ship private truck vip custom2 authority delivery rail_electric taxi tram army hov coach motorcycle passenger bus rail emergency" index="1" length="7.330307574653017" shape="-7.437949999999999,-116.8271 -7.5043500000000005,-120.48925 -7.571000000000001,-124.1562" speed="36.11111111111111" width="3.5423990571362793"/>
	</edge>
	<edge from="2" function="normal" id="43640" length="19.170174691736385" numLanes="1" priority="1" speed="36.11111111111111" spreadType="center" to="12">
		<lane allow="moped bicycle pedestrian custom1 trailer evehicle rail_urban ship private vip custom2 authority delivery rail_electric taxi tram army hov coach motorcycle passenger rail emergency" index="0" length="19.170174691736385" shape="-8.300799999999999,-36.76625 -8.648800000000001,-42.2561 -9.1907,-44.394999999999996 -9.8917,-45.77245 -10.6623,-46.8578 -11.532,-47.713750000000005 -12.810749999999999,-48.67285 -14.7503,-49.30855 -18.476399999999998,-49.26275" speed="36.11111111111111" width="2.6930276270398696"/>
	</edge>
	<edge from="12" function="normal" id="43476" length="12.648755104554652" numLanes="2" priority="1" speed="36.11111111111111" spreadType="center" to="13">
		<lane allow="moped bicycle pedestrian custom1 trailer evehicle rail_urban ship private truck vip custom2 authority delivery rail_electric taxi tram army hov coach motorcycle passenger bus rail emergency" index="0" length="12.648755104554652" shape="-18.476399999999998,-49.26275 -24.887500000000003,-49.5489 -31.298650000000002,-49.83505" speed="36.11111111111111" width="3.0957576940064273"/>
		<lane allow="moped bicycle pedestrian custom1 trailer evehicle rail_urban ship private truck vip custom2 authority delivery rail_electric taxi tram army hov coach motorcycle passenger bus rail emergency" index="1" length="12.648755104554652" shape="-18.38315,-52.59725 -24.7043,-52.7993 -31.02545,-53.0013" speed="36.11111111111111" width="3.2602716650610546"/>
	</edge>
	<edge from="13" function="normal" id="43480" length="28.06679363148998" numLanes="2" priority="1" speed="36.11111111111111" spreadType="center" to="14">
		<lane allow="moped bicycle pedestrian custom1 trailer evehicle rail_urban ship private truck vip custom2 authority delivery rail_electric taxi tram army hov coach motorcycle passenger bus rail emergency" index="0" length="28.06679363148998" shape="-31.298650000000002,-49.83505 -38.392700000000005,-50.254900000000006 -45.5778,-51.42035 -52.72175,-52.986900000000006 -59.65835,-55.22895" speed="36.11111111111111" width="3.0957576940064273"/>
		<lane allow="moped bicycle pedestrian custom1 trailer evehicle rail_urban ship private truck vip custom2 authority delivery rail_electric taxi tram army hov coach motorcycle passenger rail emergency" index="1" length="28.06679363148998" shape="-31.02545,-53.0013 -37.9366,-53.5234 -44.988150000000005,-54.60755 -51.6864,-56.146699999999996 -58.4624,-58.36135" speed="36.11111111111111" width="2.9815458037736122"/>
	</edge>
	<edge from="14" function="normal" id="43484" length="13.765727019304142" numLanes="2" priority="1" speed="36.11111111111111" spreadType="center" to="15">
		<lane allow="moped bicycle pedestrian custom1 trailer evehicle rail_urban ship private truck vip custom2 authority delivery rail_electric taxi tram army hov coach motorcycle passenger bus rail emergency" index="0" length="13.765727019304142" shape="-59.65835,-55.22895 -66.1739,-57.7788 -72.68945,-60.328599999999994" speed="36.11111111111111" width="3.1855224704905196"/>
		<lane allow="moped bicycle pedestrian custom1 trailer evehicle rail_urban ship private truck vip custom2 authority delivery rail_electric taxi tram army hov coach motorcycle passenger bus rail emergency" index="1" length="13.765727019304142" shape="-58.4624,-58.36135 -64.8931,-60.814899999999994 -71.3238,-63.26845" speed="36.11111111111111" width="3.2975996012251136"/>
	</edge>
	<edge from="16" function="normal" id="43394" length="7.3144598106089" numLanes="2" priority="1" speed="36.11111111111111" spreadType="center" to="17">
		<lane allow="moped bicycle pedestrian custom1 trailer evehicle rail_urban ship private truck vip custom2 authority delivery rail_electric taxi tram army hov coach motorcycle passenger bus rail emergency" index="0" length="7.3144598106089" shape="-1.1072,-124.38419999999999 -0.9217,-120.7316 -0.7363,-117.07915" speed="36.11111111111111" width="2.9297530697995695"/>
		<lane allow="moped bicycle pedestrian custom1 trailer evehicle rail_urban ship private truck vip custom2 authority delivery rail_electric taxi tram army hov coach motorcycle passenger bus rail emergency" index="1" length="7.3144598106089" shape="-4.20535,-124.2749 -4.03915,-120.6169 -3.8731999999999998,-116.96379999999999" speed="36.11111111111111" width="3.1930859634529107"/>
	</edge>
	<edge from="17" function="normal" id="43400" length="19.771763646549587" numLanes="3" priority="1" speed="36.11111111111111" spreadType="center" to="18">
		<lane allow="moped bicycle pedestrian custom1 trailer evehicle rail_urban ship private truck vip custom2 authority delivery rail_electric taxi tram army hov coach motorcycle passenger bus rail emergency" index="0" length="19.771763646549587" shape="-0.7363,-117.07915 -0.26875000000000004,-107.1994 0.19884999999999997,-97.31925000000001" speed="36.11111111111111" width="2.914355644048955"/>
		<lane allow="moped bicycle pedestrian custom1 trailer evehicle rail_urban ship private truck vip custom2 authority delivery rail_electric taxi tram army hov coach motorcycle passenger bus rail emergency" index="1" length="19.771763646549587" shape="-3.8731999999999998,-116.96379999999999 -3.1891000000000003,-107.0976 -2.71405,-97.22715" speed="36.11111111111111" width="2.914355644048955"/>
		<lane allow="moped bicycle pedestrian custom1 trailer evehicle rail_urban ship private truck vip custom2 authority delivery rail_electric taxi tram army hov coach motorcycle passenger bus rail emergency" index="2" length="19.771763646549587" shape="-3.8731999999999998,-116.96379999999999 -4.64555,-107.0468 -5.62695,-97.13499999999999" speed="36.11111111111111" width="2.9143588059811725"/>
	</edge>
	<edge from="18" function="normal" id="43406" length="24.582552466773617" numLanes="3" priority="1" speed="36.11111111111111" spreadType="center" to="19">
		<lane allow="moped bicycle pedestrian custom1 trailer evehicle rail_urban ship private truck vip custom2 authority delivery rail_electric taxi tram army hov coach motorcycle passenger bus rail emergency" index="0" length="24.582552466773617" shape="0.19884999999999997,-97.31925000000001 0.83715,-85.02600000000001 1.47415,-72.7698" speed="36.11111111111111" width="2.683345779060164"/>
		<lane allow="moped bicycle pedestrian custom1 trailer evehicle rail_urban ship private truck vip custom2 authority delivery rail_electric taxi tram army hov coach motorcycle passenger bus rail emergency" index="1" length="24.582552466773617" shape="-2.71405,-97.22715 -1.96835,-84.86495 -1.22685,-72.61410000000001" speed="36.11111111111111" width="2.7276221530849907"/>
		<lane allow="moped bicycle pedestrian custom1 trailer evehicle rail_urban ship private truck vip custom2 authority delivery rail_electric taxi tram army hov coach motorcycle passenger bus rail emergency" index="2" length="24.582552466773617" shape="-5.62695,-97.13499999999999 -4.83965,-84.6997 -4.05945,-72.45075" speed="36.11111111111111" width="2.9143588059811725"/>
	</edge>
	<edge from="19" function="normal" id="43838" length="8.327047283399931" numLanes="3" priority="1" speed="36.11111111111111" spreadType="center" to="20">
		<lane allow="moped bicycle pedestrian custom1 trailer evehicle rail_urban ship private truck vip custom2 authority delivery rail_electric taxi tram army hov coach motorcycle passenger bus rail emergency" index="0" length="8.327047283399931" shape="1.47415,-72.7698 1.7082,-68.4251 1.9423,-64.08045" speed="36.11111111111111" width="2.671116060750637"/>
		<lane allow="moped bicycle pedestrian custom1 trailer evehicle rail_urban ship private truck vip custom2 authority delivery rail_electric taxi tram army hov coach motorcycle passenger bus rail emergency" index="1" length="8.327047283399931" shape="-1.22685,-72.61410000000001 -1.0054,-68.35995 -0.78395,-64.10589999999999" speed="36.11111111111111" width="2.7276221530849907"/>
		<lane allow="moped bicycle pedestrian custom1 trailer evehicle rail_urban ship private truck vip custom2 authority delivery rail_electric taxi tram army hov coach motorcycle passenger bus rail emergency" index="2" length="8.327047283399931" shape="-4.05945,-72.45075 -3.8643,-68.2918 -3.66925,-64.13284999999999" speed="36.11111111111111" width="2.9469900746354747"/>
	</edge>
	<edge from="20" function="normal" id="43638" length="16.086200504447284" numLanes="3" priority="1" speed="36.11111111111111" spreadType="center" to="21">
		<lane allow="moped bicycle pedestrian custom1 trailer evehicle rail_urban ship private truck vip custom2 authority delivery rail_electric taxi tram army hov coach motorcycle passenger bus rail emergency" index="0" length="16.086200504447284" shape="1.9423,-64.08045 2.13115,-60.57495 2.3087,-57.2802 2.4716500000000003,-54.25605 2.6422,-51.0911 2.8078000000000003,-48.01755" speed="36.11111111111111" width="2.6351791457128684"/>
		<lane allow="moped bicycle pedestrian custom1 trailer evehicle rail_urban ship private truck vip custom2 authority delivery rail_electric taxi tram army hov coach motorcycle passenger bus rail emergency" index="1" length="16.086200504447284" shape="-0.78395,-64.10589999999999 -0.6010499999999999,-60.58855 -0.42934999999999995,-57.287549999999996 -0.2721,-54.265 -0.10560000000000003,-51.0622 0.05520000000000003,-47.97085" speed="36.11111111111111" width="2.7816215145127132"/>
		<lane allow="moped bicycle pedestrian custom1 trailer evehicle rail_urban ship private truck vip custom2 authority delivery rail_electric taxi tram army hov coach motorcycle passenger bus rail emergency" index="2" length="16.086200504447284" shape="-3.66925,-64.13284999999999 -3.50385,-60.603 -3.34885,-57.29535 -3.20725,-54.27455 -3.0553,-51.0312 -2.90955,-47.92055" speed="36.11111111111111" width="2.98923020525352"/>
	</edge>
	<edge from="20" function="normal" id="43648" length="15.647527078539005" numLanes="1" priority="1" speed="36.11111111111111" spreadType="center" to="22">
		<lane allow="moped bicycle pedestrian custom1 trailer evehicle rail_urban ship private vip custom2 authority delivery rail_electric taxi tram army hov coach motorcycle passenger rail emergency" index="0" length="15.647527078539005" shape="-3.66925,-64.13284999999999 -3.61545,-62.86395 -3.7943499999999997,-59.1614 -4.23245,-57.182050000000004 -4.8368,-55.69015 -5.68155,-54.5214 -6.9756,-53.4027 -9.1615,-52.650800000000004 -10.73075,-52.6255" speed="36.11111111111111" width="2.76016969949313"/>
	</edge>
	<edge from="22" function="normal" id="43618" length="7.652452144574311" numLanes="2" priority="1" speed="36.11111111111111" spreadType="center" to="12">
		<lane allow="moped bicycle pedestrian custom1 trailer evehicle rail_urban ship private truck vip custom2 authority delivery rail_electric taxi tram army hov coach motorcycle passenger bus rail emergency" index="0" length="7.652452144574311" shape="-10.5384,-49.3721 -14.5074,-49.3174 -18.476399999999998,-49.26275" speed="36.11111111111111" width="3.1643185174694404"/>
		<lane allow="moped bicycle pedestrian custom1 trailer evehicle rail_urban ship private truck vip custom2 authority delivery rail_electric taxi tram army hov coach motorcycle passenger bus rail emergency" index="1" length="7.652452144574311" shape="-10.73075,-52.6255 -14.55695,-52.61135 -18.38315,-52.59725" speed="36.11111111111111" width="3.353843826119516"/>
	</edge>
	<edge from="21" function="normal" id="43598" length="10.917968257533413" numLanes="2" priority="1" speed="36.11111111111111" spreadType="center" to="23">
		<lane allow="moped bicycle pedestrian custom1 trailer evehicle rail_urban ship private truck vip custom2 authority delivery rail_electric taxi tram army hov coach motorcycle passenger bus rail emergency" index="0" length="10.917968257533413" shape="2.8078000000000003,-48.01755 3.10155,-42.56645 3.3952999999999998,-37.1154" speed="36.11111111111111" width="2.6121648110331788"/>
		<lane allow="moped bicycle pedestrian custom1 trailer evehicle rail_urban ship private truck vip custom2 authority delivery rail_electric taxi tram army hov coach motorcycle passenger bus rail emergency" index="1" length="10.917968257533413" shape="0.05520000000000003,-47.97085 0.33965,-42.50175 0.6240999999999999,-37.032650000000004" speed="36.11111111111111" width="2.8708130991062446"/>
	</edge>
	<edge from="23" function="normal" id="43205" length="44.80469344761991" numLanes="2" priority="1" speed="36.11111111111111" spreadType="center" to="24">
		<lane allow="moped bicycle pedestrian custom1 trailer evehicle rail_urban ship private truck vip custom2 authority delivery rail_electric taxi tram army hov coach motorcycle passenger bus rail emergency" index="0" length="44.80469344761991" shape="3.3952999999999998,-37.1154 4.28815,-22.0901 5.181,-7.06485 6.053,7.6104" speed="36.11111111111111" width="2.6110981980768173"/>
		<lane allow="moped bicycle pedestrian custom1 trailer evehicle rail_urban ship private truck vip custom2 authority delivery rail_electric taxi tram army hov coach motorcycle passenger bus rail emergency" index="1" length="44.80469344761991" shape="0.6240999999999999,-37.032650000000004 1.50585,-22.0048 2.2654,-6.9732 3.10065,7.78395" speed="36.11111111111111" width="2.932705612570072"/>
	</edge>
	<edge from="19" function="normal" id="43646" length="18.74262427746306" numLanes="1" priority="1" speed="36.11111111111111" spreadType="center" to="5">
		<lane allow="moped bicycle pedestrian custom1 trailer evehicle rail_urban ship private vip custom2 authority delivery rail_electric taxi tram army hov coach motorcycle passenger rail emergency" index="0" length="18.74262427746306" shape="1.47415,-72.7698 1.6816499999999999,-69.1497 2.417,-66.73949999999999 3.0760499999999995,-65.3055 3.76165,-64.30385000000001 4.5499,-63.6707 6.4055,-62.8558 8.99755,-62.28515 13.11025,-62.248" speed="36.11111111111111" width="2.683345779060164"/>
	</edge>
	<edge from="25" function="normal" id="43456" length="13.037777576174808" numLanes="3" priority="1" speed="36.11111111111111" spreadType="center" to="26">
		<lane allow="moped bicycle pedestrian custom1 trailer evehicle rail_urban ship private truck vip custom2 authority delivery rail_electric taxi tram army hov coach motorcycle passenger bus rail emergency" index="0" length="13.037777576174808" shape="-66.94624999999999,-72.69194999999999 -60.87325,-70.32235 -54.8003,-67.9528" speed="36.11111111111111" width="3.256392252171102"/>
		<lane allow="moped bicycle pedestrian custom1 trailer evehicle rail_urban ship private truck vip custom2 authority delivery rail_electric taxi tram army hov coach motorcycle passenger bus rail emergency" index="1" length="13.037777576174808" shape="-68.4486,-69.45785000000001 -62.263549999999995,-67.03139999999999 -56.07855,-64.60495" speed="36.11111111111111" width="3.7861493182387904"/>
		<lane allow="moped bicycle pedestrian custom1 trailer evehicle rail_urban ship private truck vip custom2 authority delivery rail_electric taxi tram army hov coach motorcycle passenger bus rail emergency" index="2" length="13.037777576174808" shape="-69.9471,-66.2321 -63.62795,-63.80745 -57.3088,-61.3828" speed="36.11111111111111" width="3.1118984302190804"/>
	</edge>
	<edge from="26" function="normal" id="43464" length="25.046575335412292" numLanes="4" priority="1" speed="36.11111111111111" spreadType="center" to="27">
		<lane allow="moped bicycle pedestrian custom1 trailer evehicle rail_urban ship private truck vip custom2 authority delivery rail_electric taxi tram army hov coach motorcycle passenger rail emergency" index="0" length="25.046575335412292" shape="-54.8003,-67.9528 -48.58925,-67.03129999999999 -42.3256,-66.61105 -36.020700000000005,-66.59190000000001 -29.83815,-66.76155" speed="36.11111111111111" width="2.8851869714110503"/>
		<lane allow="moped bicycle pedestrian custom1 trailer evehicle rail_urban ship private truck vip custom2 authority delivery rail_electric taxi tram army hov coach motorcycle passenger bus rail emergency" index="1" length="25.046575335412292" shape="-54.8003,-67.9528 -48.722750000000005,-66.2289 -42.5989,-64.759 -36.33665,-63.842349999999996 -30.13695,-63.29899999999999" speed="36.11111111111111" width="3.304406520087983"/>
		<lane allow="moped bicycle pedestrian custom1 trailer evehicle rail_urban ship private truck vip custom2 authority delivery rail_electric taxi tram army hov coach motorcycle passenger bus rail emergency" index="2" length="25.046575335412292" shape="-56.07855,-64.60495 -49.753600000000006,-62.8461 -43.430499999999995,-61.29715 -36.878249999999994,-60.20625 -30.45485,-59.614549999999994" speed="36.11111111111111" width="3.3306279558065333"/>
		<lane allow="moped bicycle pedestrian custom1 trailer evehicle rail_urban ship private truck vip custom2 authority delivery rail_electric taxi tram army hov coach motorcycle passenger bus rail emergency" index="3" length="25.046575335412292" shape="-57.3088,-61.3828 -50.811350000000004,-59.37155 -44.293,-57.802 -37.41815,-56.811 -30.74165,-56.2904" speed="36.11111111111111" width="3.1118984302190804"/>
	</edge>
	<edge from="27" function="normal" id="43472" length="11.854144357145337" numLanes="4" priority="1" speed="36.11111111111111" spreadType="center" to="28">
		<lane allow="moped bicycle pedestrian custom1 trailer evehicle rail_urban ship private truck vip custom2 authority delivery rail_electric taxi tram army hov coach motorcycle passenger bus rail emergency" index="0" length="11.854144357145337" shape="-29.83815,-66.76155 -23.9232,-66.38345000000001 -18.00815,-66.00534999999999" speed="36.11111111111111" width="2.8851869714110503"/>
		<lane allow="moped bicycle pedestrian custom1 trailer evehicle rail_urban ship private truck vip custom2 authority delivery rail_electric taxi tram army hov coach motorcycle passenger bus rail emergency" index="1" length="11.854144357145337" shape="-30.13695,-63.29899999999999 -24.12195,-62.885850000000005 -18.106949999999998,-62.47265" speed="36.11111111111111" width="3.5927059356423783"/>
		<lane allow="moped bicycle pedestrian custom1 trailer evehicle rail_urban ship private truck vip custom2 authority delivery rail_electric taxi tram army hov coach motorcycle passenger bus rail emergency" index="2" length="11.854144357145337" shape="-30.45485,-59.614549999999994 -24.329349999999998,-59.3106 -18.203899999999997,-59.0066" speed="36.11111111111111" width="3.3306279558065333"/>
		<lane allow="moped bicycle pedestrian custom1 trailer evehicle rail_urban ship private truck vip custom2 authority delivery rail_electric taxi tram army hov coach motorcycle passenger bus rail emergency" index="3" length="11.854144357145337" shape="-30.74165,-56.2904 -24.5172,-56.0604 -18.2927,-55.8304" speed="36.11111111111111" width="3.012776825455216"/>
	</edge>
	<edge from="28" function="normal" id="43614" length="6.79722951448399" numLanes="3" priority="1" speed="36.11111111111111" spreadType="center" to="29">
		<lane allow="moped bicycle pedestrian custom1 trailer evehicle rail_urban ship private truck vip custom2 authority delivery rail_electric taxi tram army hov coach motorcycle passenger bus rail emergency" index="0" length="6.79722951448399" shape="-18.106949999999998,-62.47265 -14.70845,-62.447900000000004 -11.309899999999999,-62.42325" speed="36.11111111111111" width="3.570117024692612"/>
		<lane allow="moped bicycle pedestrian custom1 trailer evehicle rail_urban ship private truck vip custom2 authority delivery rail_electric taxi tram army hov coach motorcycle passenger bus rail emergency" index="1" length="6.79722951448399" shape="-18.203899999999997,-59.0066 -14.655100000000001,-58.992599999999996 -11.1063,-58.9786" speed="36.11111111111111" width="3.331206496151209"/>