<routes>
	<vehicle depart="0.1" departLane="2" departPos="0" departSpeed="6.9251" id="88" type="passenger">
		<route edges="43608 43602 43488"/>
	</vehicle>
	<vehicle depart="0.1" departLane="1" departPos="11.465537373863341" departSpeed="6.2911" id="93" type="passenger">
		<route edges="43632 43832 43382 43386 43390"/>
	</vehicle>
	<vehicle depart="0.1" departLane="2" departPos="0" departSpeed="3.9258" id="118" type="passenger">
		<route edges="43594 43652 43602 43488"/>
	</vehicle>
	<vehicle depart="0.1" departLane="1" departPos="0" departSpeed="4.6665" id="124" type="passenger">
		<route edges="43594 43632 43654 43632 43832 43382 43386 43390"/>
	</vehicle>
	<vehicle depart="0.1" departLane="1" departPos="0" departSpeed="0.039624" id="134" type="passenger">
		<route edges="43343 43594 43632 43832 43382 43386 43390"/>
	</vehicle>
	<vehicle depart="0.1" departLane="1" departPos="0" departSpeed="0.0" id="146" type="passenger">
		<route edges="43343 43594 43632 43654 43632 43832 43382 43386 43390"/>
	</vehicle>
	<vehicle depart="0.1" departLane="2" departPos="36.39137279342961" departSpeed="3.3833" id="154" type="passenger">
		<route edges="43343 43594 43652 43602 43488"/>
	</vehicle>
	<vehicle depart="0.1" departLane="1" departPos="45.05824608285272" departSpeed="4.194" id="160" type="passenger">
		<route edges="43343 43594 43632 43654 43832 43382 43386 43390"/>
	</vehicle>
	<vehicle depart="0.1" departLane="1" departPos="0" departSpeed="0.0" id="187" type="passenger">
		<route edges="43343 43594 43632 43832 43382 43386 43390"/>
	</vehicle>
	<vehicle depart="0.1" departLane="0" departPos="11.13920663983949" departSpeed="7.6688" id="192" type="passenger">
		<route edges="43632 43832 43382 43386 43390"/>
	</vehicle>
	<vehicle depart="0.1" departLane="2" departPos="22.829376463505046" departSpeed="4.5324" id="198" type="passenger">
		<route edges="43343 43594 43652 43602 43488"/>
	</vehicle>
	<vehicle depart="0.1" departLane="0" departPos="0" departSpeed="4.3891" id="249" type="passenger">
		<route edges="43640 43594 43632 43628 43618 43640 43476 43480 43484"/>
	</vehicle>
	<vehicle depart="0.1" departLane="1" departPos="8.51971992791003" departSpeed="5.8217" id="256" type="passenger">
		<route edges="43838 43638 43598 43205"/>
	</vehicle>
	<vehicle depart="0.1" departLane="0" departPos="0" departSpeed="6.2149" id="262" type="passenger">
		<route edges="43638 43598 43205"/>
	</vehicle>
	<vehicle depart="0.1" departLane="0" departPos="0" departSpeed="5.3005" id="271" type="passenger">
		<route edges="43646 43602 43488"/>
	</vehicle>
	<vehicle depart="0.1" departLane="1" departPos="0" departSpeed="0.0" id="334" type="passenger">
		<route edges="43406 43838 43638 43650 43638 43598 43205"/>
	</vehicle>
	<vehicle depart="0.1" departLane="0" departPos="0" departSpeed="1.5392" id="335" type="passenger">
		<route edges="43406 43646 43488"/>
	</vehicle>
	<vehicle depart="0.1" departLane="0" departPos="0" departSpeed="0.61265" id="347" type="passenger">
		<route edges="43406 43838 43646 43838 43638 43598 43205"/>
	</vehicle>
	<vehicle depart="0.1" departLane="1" departPos="16.495668862872257" departSpeed="0.033528" id="1689" type="passenger">
		<route edges="43406 43838 43638 43650 43598 43205"/>
	</vehicle>
</routes>
