<!-- generated on Tue Feb  9 22:12:55 2021 by Eclipse SUMO netconvert Version 1.8.0
<configuration xmlns:xsi="http://www.w3.org/2001/XMLSchema-instance" xsi:noNamespaceSchemaLocation="http://sumo.dlr.de/xsd/netconvertConfiguration.xsd">

    <input>
        <node-files value="./converted_scenarios/scenario-factory/HRV_Pula-9_5_I-1-1/HRV_Pula-9_5_I-1-1.nod.xml"/>
        <edge-files value="./converted_scenarios/scenario-factory/HRV_Pula-9_5_I-1-1/HRV_Pula-9_5_I-1-1.edg.xml"/>
        <connection-files value="./converted_scenarios/scenario-factory/HRV_Pula-9_5_I-1-1/HRV_Pula-9_5_I-1-1.con.xml"/>
        <tllogic-files value="./converted_scenarios/scenario-factory/HRV_Pula-9_5_I-1-1/HRV_Pula-9_5_I-1-1.tll.xml"/>
        <type-files value="/home/zen/commonroad-interactive-benchmarks/install/commonroad-map-tool/crmapconverter/sumo_map/templates/DEU.typ.xml"/>
    </input>

    <output>
        <output-file value="./converted_scenarios/scenario-factory/HRV_Pula-9_5_I-1-1/HRV_Pula-9_5_I-1-1.net.xml"/>
    </output>

    <processing>
        <geometry.remove.keep-edges.explicit value="true"/>
        <geometry.avoid-overlap value="true"/>
        <offset.disable-normalization value="true"/>
    </processing>

    <junctions>
        <no-turnarounds value="true"/>
        <junctions.internal-link-detail value="20"/>
    </junctions>

    <report>
        <aggregate-warnings value="5"/>
    </report>

    <random_number>
        <seed value="1234"/>
    </random_number>

</configuration>
--><net xmlns:xsi="http://www.w3.org/2001/XMLSchema-instance" version="1.6" junctionCornerDetail="5" junctionLinkDetail="20" limitTurnSpeed="5.50" xsi:noNamespaceSchemaLocation="http://sumo.dlr.de/xsd/net_file.xsd">

    <location netOffset="0.00,0.00" convBoundary="-934.44,895.60,-746.67,1073.03" origBoundary="-934.44,884.91,-746.67,1073.03" projParameter="!"/>

    <type id="highway.bridleway" priority="1" speed="2.78" allow="pedestrian" oneway="1" width="2.00"/>
    <type id="highway.bus_guideway" priority="1" speed="27.78" allow="bus" oneway="1"/>
    <type id="highway.cycleway" priority="1" speed="8.33" allow="bicycle" oneway="0" width="1.00"/>
    <type id="highway.footway" priority="1" speed="2.78" allow="pedestrian" oneway="1" width="2.00"/>
    <type id="highway.ford" priority="1" speed="2.78" allow="army" oneway="0"/>
    <type id="highway.living_street" priority="2" speed="2.78" disallow="tram rail_urban rail rail_electric rail_fast ship" oneway="0"/>
    <type id="highway.motorway" priority="14" speed="39.44" allow="private emergency authority army vip passenger hov taxi bus coach delivery truck trailer motorcycle evehicle custom1 custom2" oneway="1"/>
    <type id="highway.motorway_link" priority="9" speed="22.22" allow="private emergency authority army vip passenger hov taxi bus coach delivery truck trailer motorcycle evehicle custom1 custom2" oneway="1"/>
    <type id="highway.path" priority="1" speed="2.78" allow="pedestrian bicycle" oneway="0" width="2.00"/>
    <type id="highway.pedestrian" priority="1" speed="2.78" allow="pedestrian" oneway="1" width="2.00"/>
    <type id="highway.primary" priority="12" speed="27.78" disallow="pedestrian tram rail_urban rail rail_electric rail_fast ship" oneway="0"/>
    <type id="highway.primary_link" priority="7" speed="22.22" disallow="pedestrian tram rail_urban rail rail_electric rail_fast ship" oneway="0"/>
    <type id="highway.raceway" priority="15" speed="83.33" allow="vip" oneway="0"/>
    <type id="highway.residential" priority="3" speed="13.89" disallow="pedestrian tram rail_urban rail rail_electric rail_fast ship" oneway="0"/>
    <type id="highway.secondary" priority="11" speed="27.78" disallow="pedestrian tram rail_urban rail rail_electric rail_fast ship" oneway="0"/>
    <type id="highway.secondary_link" priority="6" speed="22.22" disallow="pedestrian tram rail_urban rail rail_electric rail_fast ship" oneway="0"/>
    <type id="highway.service" priority="1" speed="5.56" allow="pedestrian delivery bicycle" oneway="0"/>
    <type id="highway.stairs" priority="1" speed="1.39" allow="pedestrian" oneway="1" width="2.00"/>
    <type id="highway.step" priority="1" speed="1.39" allow="pedestrian" oneway="1" width="2.00"/>
    <type id="highway.steps" priority="1" speed="1.39" allow="pedestrian" oneway="1" width="2.00"/>
    <type id="highway.tertiary" priority="10" speed="22.22" disallow="pedestrian tram rail_urban rail rail_electric rail_fast ship" oneway="0"/>
    <type id="highway.tertiary_link" priority="5" speed="22.22" disallow="pedestrian tram rail_urban rail rail_electric rail_fast ship" oneway="0"/>
    <type id="highway.track" priority="1" speed="5.56" allow="pedestrian motorcycle moped bicycle" oneway="0"/>
    <type id="highway.trunk" priority="13" speed="27.78" disallow="pedestrian bicycle tram rail_urban rail rail_electric rail_fast ship" oneway="0"/>
    <type id="highway.trunk_link" priority="8" speed="22.22" disallow="pedestrian bicycle tram rail_urban rail rail_electric rail_fast ship" oneway="0"/>
    <type id="highway.unclassified" priority="4" speed="13.89" disallow="pedestrian tram rail_urban rail rail_electric rail_fast ship" oneway="0"/>
    <type id="highway.unsurfaced" priority="1" speed="8.33" disallow="tram rail_urban rail rail_electric rail_fast ship" oneway="0"/>
    <type id="railway.highspeed" priority="21" speed="69.44" allow="rail_fast" oneway="1"/>
    <type id="railway.light_rail" priority="19" speed="27.78" allow="rail_urban" oneway="1"/>
    <type id="railway.preserved" priority="16" speed="27.78" allow="rail" oneway="1"/>
    <type id="railway.rail" priority="20" speed="44.44" allow="rail" oneway="1"/>
    <type id="railway.subway" priority="18" speed="27.78" allow="rail_urban" oneway="1"/>
    <type id="railway.tram" priority="17" speed="13.89" allow="tram" oneway="1"/>

    <edge id=":21_0" function="internal">
        <lane id=":21_0_0" index="0" disallow="pedestrian tram rail_urban rail rail_electric rail_fast ship" speed="36.11" length="7.94" width="3.48" shape="-830.16,929.51 -829.97,930.07 -829.80,930.58 -829.65,931.04 -829.52,931.46 -829.40,931.85 -829.29,932.20 -829.18,932.53 -829.08,932.84 -828.98,933.14 -828.87,933.44 -828.76,933.74 -828.64,934.04 -828.50,934.36 -828.35,934.69 -828.17,935.05 -827.98,935.44 -827.76,935.87 -827.50,936.34 -827.22,936.86"/>
        <lane id=":21_0_1" index="1" disallow="pedestrian tram rail_urban rail rail_electric rail_fast ship" speed="36.11" length="7.92" width="3.50" shape="-830.16,929.51 -827.52,936.98"/>
    </edge>
    <edge id=":22_0" function="internal">
        <lane id=":22_0_0" index="0" disallow="pedestrian tram rail_urban rail rail_electric rail_fast ship" speed="22.22" length="32.65" width="3.50" shape="-797.49,958.83 -799.38,958.83 -801.40,959.17 -803.34,959.81 -805.18,960.73 -806.90,961.84 -809.29,963.78 -812.23,966.64 -817.94,972.54 -820.22,974.60 -822.67,976.46 -823.53,977.01"/>
    </edge>
    <edge id=":22_1" function="internal">
        <lane id=":22_1_0" index="0" disallow="pedestrian tram rail_urban rail rail_electric rail_fast ship" speed="12.97" length="22.19" width="3.50" shape="-818.30,950.32 -817.62,951.14 -816.31,951.97 -814.39,952.72 -810.89,953.62 -805.80,954.46 -798.09,955.26 -797.10,955.34"/>
    </edge>
    <edge id=":22_2" function="internal">
        <lane id=":22_2_0" index="0" disallow="pedestrian tram rail_urban rail rail_electric rail_fast ship" speed="11.11" length="28.04" width="3.50" shape="-821.37,951.98 -819.69,955.59 -818.49,958.81 -817.74,961.58 -817.31,964.41 -817.26,966.70 -817.55,968.97 -818.03,970.62 -818.74,972.19 -819.68,973.62 -820.82,974.91 -822.58,976.38 -823.53,977.01"/>
    </edge>
    <edge id=":22_3" function="internal">
        <lane id=":22_3_0" index="0" disallow="pedestrian tram rail_urban rail rail_electric rail_fast ship" speed="22.91" length="34.75" width="3.50" shape="-825.26,973.96 -824.55,973.51 -822.12,971.69 -819.85,969.66 -813.90,963.69 -810.74,960.72 -808.11,958.67 -806.16,957.44 -804.05,956.44 -801.80,955.72 -799.45,955.35 -797.10,955.34"/>
    </edge>
    <edge id=":23_0" function="internal">
        <lane id=":23_0_0" index="0" disallow="pedestrian tram rail_urban rail rail_electric rail_fast ship" speed="10.57" length="30.92" width="3.50" shape="-846.39,1005.91 -846.41,1004.65 -846.59,1002.15 -846.97,999.72 -847.60,997.37 -848.02,996.30 -848.52,995.26 -849.11,994.29 -849.79,993.41 -850.56,992.63 -851.41,991.95 -852.35,991.39 -853.37,990.95 -854.44,990.61 -855.56,990.39 -856.73,990.26 -857.89,990.21 -860.34,990.35 -862.77,990.74 -866.45,991.68"/>
    </edge>
    <edge id=":23_1" function="internal">
        <lane id=":23_1_0" index="0" disallow="pedestrian tram rail_urban rail rail_electric rail_fast ship" speed="15.18" length="36.76" width="3.50" shape="-846.39,1005.91 -846.31,1002.43 -846.00,998.96 -845.43,995.51 -844.53,992.09 -843.26,988.78 -842.15,986.64 -840.85,984.61 -839.34,982.72 -837.64,981.00 -835.76,979.47 -833.74,978.15 -831.62,977.04 -829.47,976.15"/>
    </edge>
    <edge id=":23_2" function="internal">
        <lane id=":23_2_0" index="0" disallow="pedestrian tram rail_urban rail rail_electric rail_fast ship" speed="14.31" length="32.69" width="3.50" shape="-828.03,979.33 -830.15,980.22 -832.00,981.19 -833.75,982.36 -835.36,983.69 -836.82,985.20 -838.11,986.85 -839.22,988.62 -840.17,990.50 -841.27,993.44 -842.05,996.49 -842.55,999.59 -842.82,1002.73 -842.89,1005.87"/>
    </edge>
    <edge id=":23_3" function="internal">
        <lane id=":23_3_0" index="0" disallow="pedestrian tram rail_urban rail rail_electric rail_fast ship" speed="36.11" length="40.36" width="3.50" shape="-828.03,979.33 -831.14,980.45 -843.84,984.67 -866.45,991.68"/>
    </edge>
    <edge id=":23_4" function="internal">
        <lane id=":23_4_0" index="0" disallow="pedestrian tram rail_urban rail rail_electric rail_fast ship" speed="36.11" length="39.90" width="3.50" shape="-867.46,988.33 -844.94,981.34 -832.30,977.15 -829.47,976.15"/>
    </edge>
    <edge id=":23_5" function="internal">
        <lane id=":23_5_0" index="0" disallow="pedestrian tram rail_urban rail rail_electric rail_fast ship" speed="11.62" length="37.64" width="3.50" shape="-867.46,988.33 -863.23,987.25 -860.38,986.80 -857.49,986.64 -856.04,986.69 -854.60,986.86 -853.19,987.15 -851.81,987.58 -850.49,988.17 -849.24,988.91 -848.11,989.81 -847.10,990.85 -846.22,991.99 -845.47,993.23 -844.84,994.53 -844.32,995.88 -843.57,998.68 -843.12,1001.54 -842.92,1004.42 -842.89,1005.87"/>
    </edge>
    <edge id=":24_0" function="internal">
        <lane id=":24_0_0" index="0" disallow="pedestrian tram rail_urban rail rail_electric rail_fast ship" speed="36.11" length="2.99" width="3.50" shape="-834.86,915.99 -834.77,916.19 -834.69,916.38 -834.62,916.54 -834.55,916.70 -834.50,916.84 -834.45,916.97 -834.40,917.09 -834.36,917.20 -834.32,917.32 -834.29,917.43 -834.25,917.54 -834.21,917.66 -834.17,917.79 -834.13,917.92 -834.08,918.06 -834.03,918.22 -833.98,918.39 -833.91,918.59 -833.84,918.80"/>
    </edge>
    <edge id=":24_1" function="internal">
        <lane id=":24_1_0" index="0" disallow="pedestrian tram rail_urban rail rail_electric rail_fast ship" speed="36.11" length="2.99" width="3.50" shape="-834.81,915.97 -833.84,918.80"/>
    </edge>

    <edge id="14047" from="24" to="21" priority="3" type="highway.residential" spreadType="center" length="11.32">
        <lane id="14047_0" index="0" disallow="pedestrian tram rail_urban rail rail_electric rail_fast ship" speed="36.11" length="11.32" width="3.50" customShape="1" shape="-833.84,918.80 -831.60,925.33 -830.16,929.51"/>
    </edge>
    <edge id="14231" from="23" to="8" priority="3" type="highway.residential" spreadType="center" length="70.00" shape="-846.40,992.92 -933.45,1011.97">
        <lane id="14231_0" index="0" disallow="pedestrian tram rail_urban rail rail_electric rail_fast ship" speed="36.11" length="70.00" width="3.50" customShape="1" shape="-866.45,991.68 -906.08,1003.68 -933.45,1011.97"/>
    </edge>
    <edge id="14232" from="16" to="23" priority="3" type="highway.residential" spreadType="center" length="70.00" shape="-934.44,1008.61 -847.15,989.50">
        <lane id="14232_0" index="0" disallow="pedestrian tram rail_urban rail rail_electric rail_fast ship" speed="36.11" length="70.00" width="3.50" customShape="1" shape="-934.44,1008.61 -907.10,1000.33 -867.44,988.32"/>
    </edge>
    <edge id="14234" from="22" to="23" priority="3" type="highway.residential" spreadType="center" length="5.07" shape="-811.83,964.79 -845.75,992.61">
        <lane id="14234_0" index="0" disallow="pedestrian tram rail_urban rail rail_electric rail_fast ship" speed="36.11" length="5.07" width="3.50" customShape="1" shape="-823.53,977.01 -826.08,978.45 -828.03,979.33"/>
    </edge>
    <edge id="14235" from="23" to="22" priority="3" type="highway.residential" spreadType="center" length="4.75" shape="-847.97,989.91 -814.05,962.08">
        <lane id="14235_0" index="0" disallow="pedestrian tram rail_urban rail rail_electric rail_fast ship" speed="36.11" length="4.75" width="3.50" customShape="1" shape="-829.47,976.15 -827.61,975.31 -825.26,973.97"/>
    </edge>
    <edge id="14459" from="17" to="22" priority="3" type="highway.residential" spreadType="center" length="51.44" shape="-747.69,971.38 -813.15,965.17">
        <lane id="14459_0" index="0" disallow="pedestrian tram rail_urban rail rail_electric rail_fast ship" speed="36.11" length="51.44" width="3.49" customShape="1" shape="-747.69,971.38 -759.22,967.82 -767.00,965.80 -780.08,962.15 -786.90,960.42 -792.33,959.40 -797.49,958.81"/>
    </edge>
    <edge id="14460" from="22" to="14" priority="3" type="highway.residential" spreadType="center" length="52.08" shape="-812.82,961.69 -746.67,968.03">
        <lane id="14460_0" index="0" disallow="pedestrian tram rail_urban rail rail_electric rail_fast ship" speed="36.11" length="52.08" width="3.50" customShape="1" shape="-797.10,955.34 -791.91,955.92 -786.31,956.97 -779.36,958.72 -766.18,962.39 -758.32,964.44 -746.67,968.03"/>
    </edge>
    <edge id="14819" from="21" to="22" priority="3" type="highway.residential" spreadType="center" length="16.20">
        <lane id="14819_0" index="0" disallow="pedestrian tram rail_urban rail rail_electric rail_fast ship" speed="36.11" length="16.20" width="3.48" customShape="1" shape="-827.22,936.86 -826.42,938.31 -823.80,942.08 -820.20,947.05 -818.39,950.13 -818.29,950.35"/>
        <lane id="14819_1" index="1" disallow="pedestrian tram rail_urban rail rail_electric rail_fast ship" speed="36.11" length="16.22" width="3.50" customShape="1" shape="-827.52,936.98 -825.57,942.38 -823.04,948.50 -821.50,951.73 -821.45,951.84 -821.37,951.98"/>
    </edge>
    <edge id="14941" from="15" to="23" priority="3" type="highway.residential" spreadType="center" length="70.00" shape="-834.58,1073.03 -848.54,991.48">
        <lane id="14941_0" index="0" disallow="pedestrian tram rail_urban rail rail_electric rail_fast ship" speed="36.11" length="70.00" width="3.50" customShape="1" shape="-834.58,1073.03 -835.43,1072.18 -837.76,1069.38 -839.84,1066.38 -841.66,1063.22 -842.76,1060.86 -843.54,1058.37 -844.44,1053.77 -845.03,1049.64 -845.60,1040.80 -846.12,1026.74 -846.39,1005.88"/>
    </edge>
    <edge id="14942" from="23" to="3" priority="3" type="highway.residential" spreadType="center" length="70.00" shape="-845.09,990.87 -830.12,1072.44">
        <lane id="14942_0" index="0" disallow="pedestrian tram rail_urban rail rail_electric rail_fast ship" speed="36.11" length="70.00" width="3.50" customShape="1" shape="-842.89,1005.87 -842.64,1026.11 -842.15,1039.75 -841.64,1048.29 -841.16,1052.18 -840.34,1056.58 -839.74,1058.84 -838.88,1060.95 -837.24,1063.92 -835.35,1066.75 -833.23,1069.38 -830.87,1071.80 -830.12,1072.44"/>
    </edge>
    <edge id="17931" from="25" to="24" priority="3" type="highway.residential" spreadType="center" length="31.33">
        <lane id="17931_0" index="0" disallow="pedestrian tram rail_urban rail rail_electric rail_fast ship" speed="36.11" length="31.33" width="3.50" customShape="1" shape="-844.96,886.33 -839.89,901.15 -834.81,915.97"/>
    </edge>
    <edge id="18088" from="25" to="24" priority="3" type="highway.residential" spreadType="center" length="25.35">
        <lane id="18088_0" index="0" disallow="pedestrian tram rail_urban rail rail_electric rail_fast ship" speed="36.11" length="25.35" width="3.50" customShape="1" shape="-855.20,905.94 -853.28,905.47 -850.41,905.12 -848.10,905.13 -845.81,905.45 -843.60,906.13 -842.03,906.89 -840.59,907.84 -838.87,909.39 -837.40,911.18 -835.90,913.65 -834.86,915.99"/>
    </edge>

    <junction id="14" type="dead_end" x="-746.67" y="968.03" incLanes="14460_0" intLanes="" shape="-746.16,966.35 -747.19,969.70" rightOfWay="edgePriority"/>
    <junction id="15" type="dead_end" x="-834.58" y="1073.03" incLanes="" intLanes="" shape="-833.35,1071.78 -835.81,1074.27" rightOfWay="edgePriority"/>
    <junction id="16" type="dead_end" x="-934.44" y="1008.61" incLanes="" intLanes="" shape="-933.93,1010.29 -934.95,1006.94" rightOfWay="edgePriority"/>
    <junction id="17" type="dead_end" x="-747.69" y="971.38" incLanes="" intLanes="" shape="-747.17,969.71 -748.20,973.05" rightOfWay="edgePriority"/>
    <junction id="21" type="priority" x="-828.87" y="933.27" incLanes="14047_0" intLanes=":21_0_0 :21_0_1" shape="-829.15,937.62 -825.58,936.23 -826.90,933.64 -827.28,932.69 -827.60,931.72 -827.98,930.53 -828.51,928.94 -831.82,930.08" rightOfWay="edgePriority">
        <request index="0" response="00" foes="00" cont="0"/>
        <request index="1" response="00" foes="00" cont="0"/>
    </junction>
    <junction id="22" type="priority" x="-812.94" y="963.44" incLanes="14459_0 14819_0 14819_1 14235_0" intLanes=":22_0_0 :22_1_0 :22_2_0 :22_3_0" shape="-797.68,960.55 -796.90,953.60 -802.71,952.90 -807.51,952.21 -811.32,951.52 -814.12,950.85 -815.93,950.19 -816.75,949.54 -822.91,952.80 -820.92,957.11 -819.94,961.01 -819.97,964.49 -821.01,967.55 -823.06,970.21 -826.12,972.44 -822.67,978.53 -817.23,974.44 -813.64,970.11 -810.89,966.04 -807.98,962.75 -803.91,960.75">
        <request index="0" response="0100" foes="0100" cont="0"/>
        <request index="1" response="0000" foes="1000" cont="0"/>
        <request index="2" response="0000" foes="1001" cont="0"/>
        <request index="3" response="0110" foes="0110" cont="0"/>
    </junction>
    <junction id="23" type="priority" x="-846.81" y="991.22" incLanes="14941_0 14234_0 14232_0" intLanes=":23_0_0 :23_1_0 :23_2_0 :23_3_0 :23_4_0 :23_5_0" shape="-848.14,1005.93 -841.14,1005.84 -840.82,999.99 -839.70,994.81 -837.80,990.32 -835.09,986.50 -831.60,983.37 -827.30,980.92 -830.19,974.55 -837.94,977.89 -843.80,980.05 -848.74,981.52 -853.75,982.78 -859.84,984.33 -867.97,986.66 -865.94,993.35 -860.56,992.23 -856.15,992.39 -852.70,993.84 -850.22,996.58 -848.69,1000.61">
        <request index="0" response="001000" foes="001000" cont="0"/>
        <request index="1" response="111000" foes="111000" cont="0"/>
        <request index="2" response="000000" foes="100000" cont="0"/>
        <request index="3" response="000000" foes="100011" cont="0"/>
        <request index="4" response="000000" foes="000010" cont="0"/>
        <request index="5" response="001100" foes="001110" cont="0"/>
    </junction>
    <junction id="24" type="priority" x="-834.33" y="917.38" incLanes="18088_0 17931_0" intLanes=":24_0_0 :24_1_0" shape="-835.49,919.37 -832.19,918.23 -833.17,915.37 -836.51,916.59 -836.08,917.60 -835.96,917.96 -835.69,918.77">
        <request index="0" response="10" foes="10" cont="0"/>
        <request index="1" response="00" foes="01" cont="0"/>
    </junction>
    <junction id="25" type="dead_end" x="-851.05" y="895.60" incLanes="" intLanes="" shape="-854.78,907.64 -855.61,904.24 -846.62,886.90 -843.31,885.76"/>
    <junction id="3" type="dead_end" x="-830.12" y="1072.44" incLanes="14942_0" intLanes="" shape="-828.99,1071.10 -831.25,1073.77" rightOfWay="edgePriority"/>
    <junction id="8" type="dead_end" x="-933.45" y="1011.97" incLanes="14231_0" intLanes="" shape="-932.94,1013.64 -933.95,1010.29" rightOfWay="edgePriority"/>

    <connection from="14047" to="14819" fromLane="0" toLane="0" contPos="-4.00" via=":21_0_0" dir="s" state="M"/>
    <connection from="14047" to="14819" fromLane="0" toLane="1" contPos="-4.00" via=":21_0_1" dir="s" state="M"/>
    <connection from="14232" to="14235" fromLane="0" toLane="0" contPos="-4.00" shape="-867.44,988.32 -844.94,981.34 -832.30,977.15 -829.47,976.15" via=":23_4_0" dir="s" state="M"/>
    <connection from="14232" to="14942" fromLane="0" toLane="0" contPos="-4.00" shape="-867.44,988.32 -863.23,987.25 -860.38,986.80 -857.49,986.64 -856.04,986.69 -854.60,986.86 -853.19,987.15 -851.81,987.58 -850.49,988.17 -849.24,988.91 -848.11,989.81 -847.10,990.85 -846.22,991.99 -845.47,993.23 -844.84,994.53 -844.32,995.88 -843.57,998.68 -843.12,1001.54 -842.92,1004.42 -842.89,1005.87" via=":23_5_0" dir="l" state="m"/>
    <connection from="14234" to="14942" fromLane="0" toLane="0" contPos="-4.00" shape="-828.21,979.41 -830.15,980.22 -832.00,981.19 -833.75,982.36 -835.36,983.69 -836.82,985.20 -838.11,986.85 -839.22,988.62 -840.17,990.50 -841.27,993.44 -842.05,996.49 -842.55,999.59 -842.82,1002.73 -842.89,1005.87" via=":23_2_0" dir="r" state="M"/>
    <connection from="14234" to="14231" fromLane="0" toLane="0" contPos="-4.00" shape="-828.21,979.41 -831.14,980.45 -843.84,984.67 -866.45,991.68" via=":23_3_0" dir="s" state="M"/>
    <connection from="14235" to="14460" fromLane="0" toLane="0" contPos="-4.00" shape="-825.36,974.02 -824.55,973.51 -822.12,971.69 -819.85,969.66 -813.90,963.69 -810.74,960.72 -808.11,958.67 -806.16,957.44 -804.05,956.44 -801.80,955.72 -799.45,955.35 -797.10,955.34" via=":22_3_0" dir="l" state="m"/>
    <connection from="14459" to="14234" fromLane="0" toLane="0" contPos="-4.00" shape="-797.33,958.83 -799.38,958.83 -801.40,959.17 -803.34,959.81 -805.18,960.73 -806.90,961.84 -809.29,963.78 -812.23,966.64 -817.94,972.54 -820.22,974.60 -822.67,976.46 -823.53,977.01" via=":22_0_0" dir="r" state="m"/>
    <connection from="14819" to="14460" fromLane="0" toLane="0" contPos="-4.00" shape="-818.30,950.32 -817.62,951.14 -816.31,951.97 -814.39,952.72 -810.89,953.62 -805.80,954.46 -798.09,955.26 -797.10,955.34" via=":22_1_0" dir="r" state="M"/>
    <connection from="14819" to="14234" fromLane="1" toLane="0" contPos="-4.00" shape="-821.37,951.98 -819.69,955.59 -818.49,958.81 -817.74,961.58 -817.31,964.41 -817.26,966.70 -817.55,968.97 -818.03,970.62 -818.74,972.19 -819.68,973.62 -820.82,974.91 -822.58,976.38 -823.53,977.01" via=":22_2_0" dir="l" state="M"/>
    <connection from="14941" to="14231" fromLane="0" toLane="0" contPos="-4.00" shape="-846.39,1005.88 -846.41,1004.65 -846.59,1002.15 -846.97,999.72 -847.60,997.37 -848.02,996.30 -848.52,995.26 -849.11,994.29 -849.79,993.41 -850.56,992.63 -851.41,991.95 -852.35,991.39 -853.37,990.95 -854.44,990.61 -855.56,990.39 -856.73,990.26 -857.89,990.21 -860.34,990.35 -862.77,990.74 -866.45,991.68" via=":23_0_0" dir="r" state="m"/>
    <connection from="14941" to="14235" fromLane="0" toLane="0" contPos="-4.00" shape="-846.39,1005.88 -846.31,1002.43 -846.00,998.96 -845.43,995.51 -844.53,992.09 -843.26,988.78 -842.15,986.64 -840.85,984.61 -839.34,982.72 -837.64,981.00 -835.76,979.47 -833.74,978.15 -831.62,977.04 -829.47,976.15" via=":23_1_0" dir="l" state="m"/>
    <connection from="17931" to="14047" fromLane="0" toLane="0" contPos="-4.00" via=":24_1_0" dir="s" state="M"/>
    <connection from="18088" to="14047" fromLane="0" toLane="0" contPos="-4.00" via=":24_0_0" dir="s" state="m"/>

    <connection from=":21_0" to="14819" fromLane="0" toLane="0" dir="s" state="M"/>
    <connection from=":21_0" to="14819" fromLane="1" toLane="1" dir="s" state="M"/>
    <connection from=":22_0" to="14234" fromLane="0" toLane="0" dir="r" state="M"/>
    <connection from=":22_1" to="14460" fromLane="0" toLane="0" dir="r" state="M"/>
    <connection from=":22_2" to="14234" fromLane="0" toLane="0" dir="l" state="M"/>
    <connection from=":22_3" to="14460" fromLane="0" toLane="0" dir="l" state="M"/>
    <connection from=":23_0" to="14231" fromLane="0" toLane="0" dir="r" state="M"/>
    <connection from=":23_1" to="14235" fromLane="0" toLane="0" dir="l" state="M"/>
    <connection from=":23_2" to="14942" fromLane="0" toLane="0" dir="r" state="M"/>
    <connection from=":23_3" to="14231" fromLane="0" toLane="0" dir="s" state="M"/>
    <connection from=":23_4" to="14235" fromLane="0" toLane="0" dir="s" state="M"/>
    <connection from=":23_5" to="14942" fromLane="0" toLane="0" dir="l" state="M"/>
    <connection from=":24_0" to="14047" fromLane="0" toLane="0" dir="s" state="M"/>
    <connection from=":24_1" to="14047" fromLane="0" toLane="0" dir="s" state="M"/>

</net>