<routes>
	<vehicle depart="0.1" departLane="0" departPos="29.03120487316057" departSpeed="2.4545882" id="322" type="passenger">
		<route edges=":58_5 21186 21189"/>
	</vehicle>
	<vehicle depart="0.1" departLane="0" departPos="32.85483223171813" departSpeed="7.4300274" id="325" type="passenger">
		<route edges="21185 21309"/>
	</vehicle>
	<vehicle depart="0.1" departLane="0" departPos="17.756366984099746" departSpeed="0.9918387" id="327" type="passenger">
		<route edges=":58_4 21309"/>
	</vehicle>
	<vehicle depart="0.1" departLane="0" departPos="69.03170648508613" departSpeed="0.0" id="329" type="passenger">
		<route edges="21180 21183"/>
	</vehicle>
	<vehicle depart="0.1" departLane="0" departPos="61.476939413480764" departSpeed="0.0589191" id="338" type="passenger">
		<route edges="21180 21183"/>
	</vehicle>
	<vehicle depart="0.1" departLane="0" departPos="44.98080526818296" departSpeed="0.0" id="344" type="passenger">
		<route edges="21308 21182"/>
	</vehicle>
	<vehicle depart="0.1" departLane="0" departPos="37.1329595235105" departSpeed="0.38074334" id="360" type="passenger">
		<route edges="21308 21182"/>
	</vehicle>
	<vehicle depart="0.1" departLane="0" departPos="28.464773845867413" departSpeed="1.1046327" id="365" type="passenger">
		<route edges="21308 21182"/>
	</vehicle>
	<vehicle depart="0.1" departLane="0" departPos="19.103192634627195" departSpeed="1.7459917" id="367" type="passenger">
		<route edges="21308 21182"/>
	</vehicle>
	<vehicle depart="0.1" departLane="0" departPos="26.78755090308683" departSpeed="0.084012803" id="353" type="motorcycle">
		<route edges=":58_3 21182"/>
	</vehicle>
</routes>
