<!-- generated on Wed Feb 10 12:28:26 2021 by Eclipse SUMO netconvert Version 1.8.0
<configuration xmlns:xsi="http://www.w3.org/2001/XMLSchema-instance" xsi:noNamespaceSchemaLocation="http://sumo.dlr.de/xsd/netconvertConfiguration.xsd">

    <input>
        <node-files value="./converted_scenarios/SUMO/DEU_Flensburg-29_1_I-1-1/DEU_Flensburg-29_1_I-1-1.nod.xml"/>
        <edge-files value="./converted_scenarios/SUMO/DEU_Flensburg-29_1_I-1-1/DEU_Flensburg-29_1_I-1-1.edg.xml"/>
        <connection-files value="./converted_scenarios/SUMO/DEU_Flensburg-29_1_I-1-1/DEU_Flensburg-29_1_I-1-1.con.xml"/>
        <tllogic-files value="./converted_scenarios/SUMO/DEU_Flensburg-29_1_I-1-1/DEU_Flensburg-29_1_I-1-1.tll.xml"/>
        <type-files value="/home/zen/commonroad-interactive-benchmarks/install/commonroad-map-tool/crmapconverter/sumo_map/templates/DEU.typ.xml"/>
    </input>

    <output>
        <output-file value="./converted_scenarios/SUMO/DEU_Flensburg-29_1_I-1-1/DEU_Flensburg-29_1_I-1-1.net.xml"/>
    </output>

    <processing>
        <geometry.remove.keep-edges.explicit value="true"/>
        <geometry.avoid-overlap value="true"/>
        <offset.disable-normalization value="true"/>
    </processing>

    <junctions>
        <no-turnarounds value="true"/>
        <junctions.internal-link-detail value="20"/>
    </junctions>

    <report>
        <aggregate-warnings value="5"/>
    </report>

    <random_number>
        <seed value="1234"/>
    </random_number>

</configuration>
--><net xmlns:xsi="http://www.w3.org/2001/XMLSchema-instance" version="1.6" junctionCornerDetail="5" junctionLinkDetail="20" limitTurnSpeed="5.50" xsi:noNamespaceSchemaLocation="http://sumo.dlr.de/xsd/net_file.xsd">

    <location netOffset="0.00,0.00" convBoundary="115.91,232.30,174.52,356.35" origBoundary="115.91,232.30,174.52,356.35" projParameter="!"/>

    <type id="highway.bridleway" priority="1" speed="2.78" allow="pedestrian" oneway="1" width="2.00"/>
    <type id="highway.bus_guideway" priority="1" speed="27.78" allow="bus" oneway="1"/>
    <type id="highway.cycleway" priority="1" speed="8.33" allow="bicycle" oneway="0" width="1.00"/>
    <type id="highway.footway" priority="1" speed="2.78" allow="pedestrian" oneway="1" width="2.00"/>
    <type id="highway.ford" priority="1" speed="2.78" allow="army" oneway="0"/>
    <type id="highway.living_street" priority="2" speed="2.78" disallow="tram rail_urban rail rail_electric rail_fast ship" oneway="0"/>
    <type id="highway.motorway" priority="14" speed="39.44" allow="private emergency authority army vip passenger hov taxi bus coach delivery truck trailer motorcycle evehicle custom1 custom2" oneway="1"/>
    <type id="highway.motorway_link" priority="9" speed="22.22" allow="private emergency authority army vip passenger hov taxi bus coach delivery truck trailer motorcycle evehicle custom1 custom2" oneway="1"/>
    <type id="highway.path" priority="1" speed="2.78" allow="pedestrian bicycle" oneway="0" width="2.00"/>
    <type id="highway.pedestrian" priority="1" speed="2.78" allow="pedestrian" oneway="1" width="2.00"/>
    <type id="highway.primary" priority="12" speed="27.78" disallow="pedestrian tram rail_urban rail rail_electric rail_fast ship" oneway="0"/>
    <type id="highway.primary_link" priority="7" speed="22.22" disallow="pedestrian tram rail_urban rail rail_electric rail_fast ship" oneway="0"/>
    <type id="highway.raceway" priority="15" speed="83.33" allow="vip" oneway="0"/>
    <type id="highway.residential" priority="3" speed="13.89" disallow="pedestrian tram rail_urban rail rail_electric rail_fast ship" oneway="0"/>
    <type id="highway.secondary" priority="11" speed="27.78" disallow="pedestrian tram rail_urban rail rail_electric rail_fast ship" oneway="0"/>
    <type id="highway.secondary_link" priority="6" speed="22.22" disallow="pedestrian tram rail_urban rail rail_electric rail_fast ship" oneway="0"/>
    <type id="highway.service" priority="1" speed="5.56" allow="pedestrian delivery bicycle" oneway="0"/>
    <type id="highway.stairs" priority="1" speed="1.39" allow="pedestrian" oneway="1" width="2.00"/>
    <type id="highway.step" priority="1" speed="1.39" allow="pedestrian" oneway="1" width="2.00"/>
    <type id="highway.steps" priority="1" speed="1.39" allow="pedestrian" oneway="1" width="2.00"/>
    <type id="highway.tertiary" priority="10" speed="22.22" disallow="pedestrian tram rail_urban rail rail_electric rail_fast ship" oneway="0"/>
    <type id="highway.tertiary_link" priority="5" speed="22.22" disallow="pedestrian tram rail_urban rail rail_electric rail_fast ship" oneway="0"/>
    <type id="highway.track" priority="1" speed="5.56" allow="pedestrian motorcycle moped bicycle" oneway="0"/>
    <type id="highway.trunk" priority="13" speed="27.78" disallow="pedestrian bicycle tram rail_urban rail rail_electric rail_fast ship" oneway="0"/>
    <type id="highway.trunk_link" priority="8" speed="22.22" disallow="pedestrian bicycle tram rail_urban rail rail_electric rail_fast ship" oneway="0"/>
    <type id="highway.unclassified" priority="4" speed="13.89" disallow="pedestrian tram rail_urban rail rail_electric rail_fast ship" oneway="0"/>
    <type id="highway.unsurfaced" priority="1" speed="8.33" disallow="tram rail_urban rail rail_electric rail_fast ship" oneway="0"/>
    <type id="railway.highspeed" priority="21" speed="69.44" allow="rail_fast" oneway="1"/>
    <type id="railway.light_rail" priority="19" speed="27.78" allow="rail_urban" oneway="1"/>
    <type id="railway.preserved" priority="16" speed="27.78" allow="rail" oneway="1"/>
    <type id="railway.rail" priority="20" speed="44.44" allow="rail" oneway="1"/>
    <type id="railway.subway" priority="18" speed="27.78" allow="rail_urban" oneway="1"/>
    <type id="railway.tram" priority="17" speed="13.89" allow="tram" oneway="1"/>

    <edge id=":21_0" function="internal">
        <lane id=":21_0_0" index="0" disallow="pedestrian tram rail_urban rail rail_electric rail_fast ship" speed="36.11" length="8.04" width="3.50" shape="143.49,351.55 135.52,350.49"/>
    </edge>
    <edge id=":21_1" function="internal">
        <lane id=":21_1_0" index="0" disallow="pedestrian tram rail_urban rail rail_electric rail_fast ship" speed="8.94" length="21.70" width="3.50" shape="143.49,351.55 137.13,350.54 134.83,349.82 133.40,349.10 132.12,348.13 131.58,347.54 131.13,346.87 130.78,346.15 130.53,345.39 130.35,343.80 130.50,342.20 131.13,339.88 131.43,339.11"/>
    </edge>
    <edge id=":21_2" function="internal">
        <lane id=":21_2_0" index="0" disallow="pedestrian tram rail_urban rail rail_electric rail_fast ship" speed="7.53" length="15.01" width="3.50" shape="134.62,340.56 134.46,341.01 134.27,341.57 134.11,342.13 134.00,342.70 133.95,343.28 133.97,343.87 134.08,344.44 134.33,344.96 134.67,345.43 135.08,345.84 135.56,346.17 136.07,346.46 136.60,346.69 137.15,346.89 137.70,347.06 138.27,347.21 138.84,347.33 139.42,347.43 143.99,348.09"/>
    </edge>
    <edge id=":21_3" function="internal">
        <lane id=":21_3_0" index="0" disallow="pedestrian tram rail_urban rail rail_electric rail_fast ship" speed="15.19" length="14.98" width="3.50" shape="134.62,340.56 134.26,341.25 133.84,341.88 133.37,342.46 132.84,342.99 132.27,343.47 131.67,343.92 131.02,344.34 130.34,344.72 129.64,345.08 128.92,345.42 128.18,345.75 127.42,346.06 126.66,346.37 125.90,346.68 125.14,347.00 124.39,347.32 123.66,347.66 122.94,348.01 122.24,348.39"/>
    </edge>
    <edge id=":21_4" function="internal">
        <lane id=":21_4_0" index="0" disallow="pedestrian tram rail_urban rail rail_electric rail_fast ship" speed="9.40" length="15.08" width="3.50" shape="119.42,345.06 124.81,345.50 126.16,345.20 127.40,344.60 128.48,343.75 129.41,342.73 130.19,341.59 131.05,339.97 131.43,339.11"/>
    </edge>
    <edge id=":21_5" function="internal">
        <lane id=":21_5_0" index="0" disallow="pedestrian tram rail_urban rail rail_electric rail_fast ship" speed="36.11" length="24.76" width="3.50" shape="119.42,345.06 131.70,346.50 143.99,348.09"/>
    </edge>
    <edge id=":23_0" function="internal">
        <lane id=":23_0_0" index="0" disallow="pedestrian tram rail_urban rail rail_electric rail_fast ship" speed="36.11" length="21.08" width="3.50" shape="171.53,263.39 170.77,270.02 168.76,284.29"/>
    </edge>
    <edge id=":23_1" function="internal">
        <lane id=":23_1_0" index="0" disallow="pedestrian tram rail_urban rail rail_electric rail_fast ship" speed="8.42" length="15.58" width="3.50" shape="171.53,263.39 171.13,265.38 170.40,267.31 169.63,268.59 168.61,269.72 167.41,270.62 166.09,271.27 164.69,271.70 162.68,271.97 160.67,271.95"/>
    </edge>
    <edge id=":23_2" function="internal">
        <lane id=":23_2_0" index="0" disallow="pedestrian tram rail_urban rail rail_electric rail_fast ship" speed="6.97" length="10.17" width="3.50" shape="160.95,268.46 162.33,268.47 163.71,268.29 164.60,268.03 165.43,267.63 166.18,267.08 166.81,266.41 167.29,265.62 167.79,264.32 168.06,262.96"/>
    </edge>
    <edge id=":23_3" function="internal">
        <lane id=":23_3_0" index="0" disallow="pedestrian tram rail_urban rail rail_electric rail_fast ship" speed="9.36" length="21.08" width="3.50" shape="160.95,268.46 163.14,268.77 164.56,269.18 165.91,269.79 167.11,270.64 168.12,271.71 168.86,272.99 169.36,274.38 169.69,276.57 169.65,278.79 168.76,284.29"/>
    </edge>
    <edge id=":23_4" function="internal">
        <lane id=":23_4_0" index="0" disallow="pedestrian tram rail_urban rail rail_electric rail_fast ship" speed="8.08" length="15.13" width="3.50" shape="165.32,283.67 166.14,278.66 166.18,277.06 165.97,275.54 165.69,274.71 165.25,273.95 164.71,273.33 164.00,272.83 163.18,272.45 162.25,272.18 160.67,271.95"/>
    </edge>
    <edge id=":23_5" function="internal">
        <lane id=":23_5_0" index="0" disallow="pedestrian tram rail_urban rail rail_electric rail_fast ship" speed="36.11" length="20.89" width="3.50" shape="165.32,283.67 167.30,269.59 168.06,262.96"/>
    </edge>

    <edge id="1447" from="21" to="22" priority="3" type="highway.residential" spreadType="center" length="0.21">
        <lane id="1447_0" index="0" disallow="pedestrian tram rail_urban rail rail_electric rail_fast ship" speed="36.11" length="0.21" width="3.50" customShape="1" shape="122.24,348.39 122.06,348.49"/>
    </edge>
    <edge id="44" from="1" to="21" priority="3" type="highway.residential" spreadType="center" length="3.53">
        <lane id="44_0" index="0" disallow="pedestrian tram rail_urban rail rail_electric rail_fast ship" speed="36.11" length="3.53" width="3.49" customShape="1" shape="115.91,344.67 119.42,345.06"/>
    </edge>
    <edge id="46" from="18" to="21" priority="3" type="highway.residential" spreadType="center" length="25.38" shape="168.40,356.35 133.25,346.37">
        <lane id="46_0" index="0" disallow="pedestrian tram rail_urban rail rail_electric rail_fast ship" speed="36.11" length="25.38" width="3.50" customShape="1" shape="168.40,356.35 158.62,354.21 148.85,352.34 143.49,351.55"/>
    </edge>
    <edge id="47" from="21" to="9" priority="3" type="highway.residential" spreadType="center" length="25.61" shape="134.20,343.01 169.13,352.92">
        <lane id="47_0" index="0" disallow="pedestrian tram rail_urban rail rail_electric rail_fast ship" speed="36.11" length="25.61" width="3.50" customShape="1" shape="143.99,348.09 149.44,348.89 159.34,350.78 169.13,352.92"/>
    </edge>
    <edge id="497" from="5" to="23" priority="3" type="highway.residential" spreadType="center" length="42.00" shape="157.22,232.81 167.80,270.74">
        <lane id="497_0" index="0" disallow="pedestrian tram rail_urban rail rail_electric rail_fast ship" speed="36.11" length="42.00" width="3.46" customShape="1" shape="157.22,232.81 156.89,235.03 156.51,237.23 156.11,239.42 155.69,241.62 155.28,243.81 154.87,246.03 154.49,248.27 154.16,250.53 153.85,252.81 153.56,255.02 153.25,257.13 152.94,259.20 152.85,261.55 153.21,264.38 153.58,266.62 154.39,267.19 156.49,267.81 158.73,268.27 161.04,268.47"/>
    </edge>
    <edge id="498" from="23" to="11" priority="3" type="highway.residential" spreadType="center" length="47.88" shape="164.45,271.66 153.76,232.30">
        <lane id="498_0" index="0" disallow="pedestrian tram rail_urban rail rail_electric rail_fast ship" speed="36.11" length="47.88" width="3.50" customShape="1" shape="160.67,271.95 157.53,271.60 154.87,271.02 152.63,270.23 151.37,269.52 150.72,268.96 150.19,268.27 149.79,267.48 149.43,265.92 149.49,260.57 149.98,254.89 151.04,247.78 153.54,233.78 153.76,232.30"/>
    </edge>
    <edge id="503" from="23" to="21" priority="3" type="highway.residential" spreadType="center" length="66.18" shape="167.73,271.80 135.41,345.41">
        <lane id="503_0" index="0" disallow="pedestrian tram rail_urban rail rail_electric rail_fast ship" speed="36.11" length="66.18" width="3.50" customShape="1" shape="168.76,284.29 168.55,285.49 167.92,287.71 166.40,291.14 164.02,295.71 161.11,300.54 157.09,306.44 147.07,319.73 142.44,326.22 139.27,331.24 136.68,336.00 134.62,340.56"/>
    </edge>
    <edge id="504" from="21" to="23" priority="3" type="highway.residential" spreadType="center" length="65.32" shape="132.20,344.01 164.53,270.39">
        <lane id="504_0" index="0" disallow="pedestrian tram rail_urban rail rail_electric rail_fast ship" speed="36.11" length="65.32" width="3.50" customShape="1" shape="131.43,339.11 133.55,334.44 136.26,329.47 139.54,324.27 144.26,317.65 154.24,304.40 158.17,298.65 160.97,294.00 163.24,289.63 164.63,286.54 165.13,284.74 165.32,283.67"/>
    </edge>
    <edge id="506" from="17" to="23" priority="3" type="highway.residential" spreadType="center" length="24.79" shape="174.52,238.81 167.81,271.57">
        <lane id="506_0" index="0" disallow="pedestrian tram rail_urban rail rail_electric rail_fast ship" speed="36.11" length="24.79" width="3.50" customShape="1" shape="174.52,238.81 173.02,251.10 171.52,263.42"/>
    </edge>
    <edge id="507" from="23" to="14" priority="3" type="highway.residential" spreadType="center" length="24.75" shape="164.39,270.87 171.04,238.39">
        <lane id="507_0" index="0" disallow="pedestrian tram rail_urban rail rail_electric rail_fast ship" speed="36.11" length="24.75" width="3.50" customShape="1" shape="168.06,262.96 169.55,250.68 171.04,238.39"/>
    </edge>
    <edge id="983" from="21" to="22" priority="3" type="highway.residential" spreadType="center" length="12.40">
        <lane id="983_0" index="0" disallow="pedestrian tram rail_urban rail rail_electric rail_fast ship" speed="36.11" length="12.40" width="3.50" customShape="1" shape="135.52,350.49 131.28,349.97 123.21,348.99"/>
    </edge>

    <junction id="1" type="dead_end" x="115.91" y="344.67" incLanes="" intLanes="" shape="115.72,346.41 116.10,342.94" rightOfWay="edgePriority"/>
    <junction id="11" type="dead_end" x="153.76" y="232.30" incLanes="498_0" intLanes="" shape="152.03,232.04 155.49,232.56" rightOfWay="edgePriority"/>
    <junction id="14" type="dead_end" x="171.04" y="238.39" incLanes="507_0" intLanes="" shape="169.31,238.18 172.78,238.60" rightOfWay="edgePriority"/>
    <junction id="17" type="dead_end" x="174.52" y="238.81" incLanes="" intLanes="" shape="172.78,238.60 176.26,239.03" rightOfWay="edgePriority"/>
    <junction id="18" type="dead_end" x="168.40" y="356.35" incLanes="" intLanes="" shape="168.78,354.64 168.03,358.06" rightOfWay="edgePriority"/>
    <junction id="21" type="priority" x="133.81" y="344.71" incLanes="46_0 503_0 44_0" intLanes=":21_0_0 :21_1_0 :21_2_0 :21_3_0 :21_4_0 :21_5_0" shape="143.23,353.29 144.24,346.36 141.33,345.83 139.04,345.17 137.39,344.38 136.36,343.47 135.97,342.44 136.21,341.28 129.84,338.39 128.83,340.13 127.54,341.50 125.98,342.50 124.13,343.14 122.01,343.41 119.61,343.32 119.23,346.79 119.21,347.20 123.25,350.73 131.94,350.72 137.99,350.58 141.39,350.31 142.15,349.92 140.26,349.40 135.73,348.75 135.30,352.22">
        <request index="0" response="000000" foes="000000" cont="0"/>
        <request index="1" response="110000" foes="111000" cont="0"/>
        <request index="2" response="100000" foes="100000" cont="0"/>
        <request index="3" response="100010" foes="100010" cont="0"/>
        <request index="4" response="000000" foes="000010" cont="0"/>
        <request index="5" response="000000" foes="001110" cont="0"/>
    </junction>
    <junction id="22" type="dead_end" x="123.11" y="348.98" incLanes="983_0 1447_0" intLanes="" shape="122.89,350.71 123.32,347.24 123.10,350.73 123.12,347.23"/>
    <junction id="23" type="priority" x="166.12" y="271.13" incLanes="506_0 497_0 504_0" intLanes=":23_0_0 :23_1_0 :23_2_0 :23_3_0 :23_4_0 :23_5_0" shape="173.27,263.60 166.32,262.75 165.53,265.03 164.80,265.79 163.84,266.29 162.66,266.53 161.26,266.52 160.48,273.69 162.94,274.99 163.63,276.36 163.98,278.22 163.97,280.55 163.60,283.37 170.49,284.59">
        <request index="0" response="000000" foes="001000" cont="0"/>
        <request index="1" response="110000" foes="111000" cont="0"/>
        <request index="2" response="100000" foes="100000" cont="0"/>
        <request index="3" response="100011" foes="100011" cont="0"/>
        <request index="4" response="000000" foes="000010" cont="0"/>
        <request index="5" response="000000" foes="001110" cont="0"/>
    </junction>
    <junction id="5" type="dead_end" x="157.22" y="232.81" incLanes="" intLanes="" shape="155.51,232.55 158.94,233.07" rightOfWay="edgePriority"/>
    <junction id="9" type="dead_end" x="169.13" y="352.92" incLanes="47_0" intLanes="" shape="169.50,351.22 168.75,354.63" rightOfWay="edgePriority"/>

    <connection from="44" to="504" fromLane="0" toLane="0" contPos="-4.00" shape="123.44,345.49 124.81,345.50 126.16,345.20 127.40,344.60 128.48,343.75 129.41,342.73 130.19,341.59 131.05,339.97 131.43,339.11" via=":21_4_0" dir="r" state="M"/>
    <connection from="44" to="47" fromLane="0" toLane="0" contPos="-4.00" shape="123.44,345.49 131.70,346.50 139.99,347.51" via=":21_5_0" dir="s" state="M"/>
    <connection from="46" to="983" fromLane="0" toLane="0" contPos="-4.00" via=":21_0_0" dir="s" state="M"/>
    <connection from="46" to="504" fromLane="0" toLane="0" contPos="-4.00" shape="139.51,350.97 137.13,350.54 134.83,349.82 133.40,349.10 132.12,348.13 131.58,347.54 131.13,346.87 130.78,346.15 130.53,345.39 130.35,343.80 130.50,342.20 131.13,339.88 131.43,339.11" via=":21_1_0" dir="l" state="m"/>
    <connection from="497" to="507" fromLane="0" toLane="0" contPos="-4.00" shape="160.95,268.46 162.33,268.47 163.71,268.29 164.60,268.03 165.43,267.63 166.18,267.08 166.81,266.41 167.29,265.62 167.79,264.32 168.06,262.96" via=":23_2_0" dir="r" state="m"/>
    <connection from="497" to="503" fromLane="0" toLane="0" contPos="-4.00" shape="160.95,268.46 163.14,268.77 164.56,269.18 165.91,269.79 167.11,270.64 168.12,271.71 168.86,272.99 169.36,274.38 169.69,276.57 169.65,278.79 169.48,280.24" via=":23_3_0" dir="s" state="m"/>
    <connection from="503" to="47" fromLane="0" toLane="0" contPos="-4.00" shape="134.66,340.47 134.46,341.01 134.27,341.57 134.11,342.13 134.00,342.70 133.95,343.28 133.97,343.87 134.08,344.44 134.33,344.96 134.67,345.43 135.08,345.84 135.56,346.17 136.07,346.46 136.60,346.69 137.15,346.89 137.70,347.06 138.27,347.21 138.84,347.33 139.42,347.43 139.99,347.51" via=":21_2_0" dir="r" state="m"/>
    <connection from="503" to="1447" fromLane="0" toLane="0" contPos="-4.00" via=":21_3_0" dir="l" state="m"/>
    <connection from="504" to="498" fromLane="0" toLane="0" contPos="-4.00" shape="166.02,279.75 166.14,278.66 166.18,277.06 165.97,275.54 165.69,274.71 165.25,273.95 164.71,273.33 164.00,272.83 163.18,272.45 162.25,272.18 160.67,271.95" via=":23_4_0" dir="R" state="M"/>
    <connection from="504" to="507" fromLane="0" toLane="0" contPos="-4.00" shape="166.02,279.75 167.30,269.59 168.06,262.96" via=":23_5_0" dir="s" state="M"/>
    <connection from="506" to="503" fromLane="0" toLane="0" contPos="-4.00" shape="171.52,263.42 170.77,270.02 169.48,280.24" via=":23_0_0" dir="s" state="M"/>
    <connection from="506" to="498" fromLane="0" toLane="0" contPos="-4.00" shape="171.52,263.42 171.13,265.38 170.40,267.31 169.63,268.59 168.61,269.72 167.41,270.62 166.09,271.27 164.69,271.70 162.68,271.97 160.67,271.95" via=":23_1_0" dir="l" state="m"/>

    <connection from=":21_0" to="983" fromLane="0" toLane="0" dir="s" state="M"/>
    <connection from=":21_1" to="504" fromLane="0" toLane="0" dir="l" state="M"/>
    <connection from=":21_2" to="47" fromLane="0" toLane="0" dir="r" state="M"/>
    <connection from=":21_3" to="1447" fromLane="0" toLane="0" dir="l" state="M"/>
    <connection from=":21_4" to="504" fromLane="0" toLane="0" dir="r" state="M"/>
    <connection from=":21_5" to="47" fromLane="0" toLane="0" dir="s" state="M"/>
    <connection from=":23_0" to="503" fromLane="0" toLane="0" dir="s" state="M"/>
    <connection from=":23_1" to="498" fromLane="0" toLane="0" dir="l" state="M"/>
    <connection from=":23_2" to="507" fromLane="0" toLane="0" dir="r" state="M"/>
    <connection from=":23_3" to="503" fromLane="0" toLane="0" dir="s" state="M"/>
    <connection from=":23_4" to="498" fromLane="0" toLane="0" dir="R" state="M"/>
    <connection from=":23_5" to="507" fromLane="0" toLane="0" dir="s" state="M"/>

</net>