<routes>
	<vehicle depart="0.1" departLane="0" departPos="25.329464043951223" departSpeed="9.2902133" id="353" type="passenger">
		<route edges=":8_1 125160"/>
	</vehicle>
</routes>
