<!-- generated on Tue Feb  9 22:04:39 2021 by Eclipse SUMO netconvert Version 1.8.0
<configuration xmlns:xsi="http://www.w3.org/2001/XMLSchema-instance" xsi:noNamespaceSchemaLocation="http://sumo.dlr.de/xsd/netconvertConfiguration.xsd">

    <input>
        <node-files value="./converted_scenarios/scenario-factory/ITA_Segrate-2_3_I-1-1/ITA_Segrate-2_3_I-1-1.nod.xml"/>
        <edge-files value="./converted_scenarios/scenario-factory/ITA_Segrate-2_3_I-1-1/ITA_Segrate-2_3_I-1-1.edg.xml"/>
        <connection-files value="./converted_scenarios/scenario-factory/ITA_Segrate-2_3_I-1-1/ITA_Segrate-2_3_I-1-1.con.xml"/>
        <tllogic-files value="./converted_scenarios/scenario-factory/ITA_Segrate-2_3_I-1-1/ITA_Segrate-2_3_I-1-1.tll.xml"/>
        <type-files value="/home/zen/commonroad-interactive-benchmarks/install/commonroad-map-tool/crmapconverter/sumo_map/templates/DEU.typ.xml"/>
    </input>

    <output>
        <output-file value="./converted_scenarios/scenario-factory/ITA_Segrate-2_3_I-1-1/ITA_Segrate-2_3_I-1-1.net.xml"/>
    </output>

    <processing>
        <geometry.remove.keep-edges.explicit value="true"/>
        <geometry.avoid-overlap value="true"/>
        <offset.disable-normalization value="true"/>
    </processing>

    <junctions>
        <no-turnarounds value="true"/>
        <junctions.internal-link-detail value="20"/>
    </junctions>

    <report>
        <aggregate-warnings value="5"/>
    </report>

    <random_number>
        <seed value="1234"/>
    </random_number>

</configuration>
--><net xmlns:xsi="http://www.w3.org/2001/XMLSchema-instance" version="1.6" junctionCornerDetail="5" junctionLinkDetail="20" limitTurnSpeed="5.50" xsi:noNamespaceSchemaLocation="http://sumo.dlr.de/xsd/net_file.xsd">

    <location netOffset="0.00,0.00" convBoundary="-715.44,-1029.10,-632.83,-860.21" origBoundary="-715.44,-1029.10,-632.83,-860.21" projParameter="!"/>

    <type id="highway.bridleway" priority="1" speed="2.78" allow="pedestrian" oneway="1" width="2.00"/>
    <type id="highway.bus_guideway" priority="1" speed="27.78" allow="bus" oneway="1"/>
    <type id="highway.cycleway" priority="1" speed="8.33" allow="bicycle" oneway="0" width="1.00"/>
    <type id="highway.footway" priority="1" speed="2.78" allow="pedestrian" oneway="1" width="2.00"/>
    <type id="highway.ford" priority="1" speed="2.78" allow="army" oneway="0"/>
    <type id="highway.living_street" priority="2" speed="2.78" disallow="tram rail_urban rail rail_electric rail_fast ship" oneway="0"/>
    <type id="highway.motorway" priority="14" speed="39.44" allow="private emergency authority army vip passenger hov taxi bus coach delivery truck trailer motorcycle evehicle custom1 custom2" oneway="1"/>
    <type id="highway.motorway_link" priority="9" speed="22.22" allow="private emergency authority army vip passenger hov taxi bus coach delivery truck trailer motorcycle evehicle custom1 custom2" oneway="1"/>
    <type id="highway.path" priority="1" speed="2.78" allow="pedestrian bicycle" oneway="0" width="2.00"/>
    <type id="highway.pedestrian" priority="1" speed="2.78" allow="pedestrian" oneway="1" width="2.00"/>
    <type id="highway.primary" priority="12" speed="27.78" disallow="pedestrian tram rail_urban rail rail_electric rail_fast ship" oneway="0"/>
    <type id="highway.primary_link" priority="7" speed="22.22" disallow="pedestrian tram rail_urban rail rail_electric rail_fast ship" oneway="0"/>
    <type id="highway.raceway" priority="15" speed="83.33" allow="vip" oneway="0"/>
    <type id="highway.residential" priority="3" speed="13.89" disallow="pedestrian tram rail_urban rail rail_electric rail_fast ship" oneway="0"/>
    <type id="highway.secondary" priority="11" speed="27.78" disallow="pedestrian tram rail_urban rail rail_electric rail_fast ship" oneway="0"/>
    <type id="highway.secondary_link" priority="6" speed="22.22" disallow="pedestrian tram rail_urban rail rail_electric rail_fast ship" oneway="0"/>
    <type id="highway.service" priority="1" speed="5.56" allow="pedestrian delivery bicycle" oneway="0"/>
    <type id="highway.stairs" priority="1" speed="1.39" allow="pedestrian" oneway="1" width="2.00"/>
    <type id="highway.step" priority="1" speed="1.39" allow="pedestrian" oneway="1" width="2.00"/>
    <type id="highway.steps" priority="1" speed="1.39" allow="pedestrian" oneway="1" width="2.00"/>
    <type id="highway.tertiary" priority="10" speed="22.22" disallow="pedestrian tram rail_urban rail rail_electric rail_fast ship" oneway="0"/>
    <type id="highway.tertiary_link" priority="5" speed="22.22" disallow="pedestrian tram rail_urban rail rail_electric rail_fast ship" oneway="0"/>
    <type id="highway.track" priority="1" speed="5.56" allow="pedestrian motorcycle moped bicycle" oneway="0"/>
    <type id="highway.trunk" priority="13" speed="27.78" disallow="pedestrian bicycle tram rail_urban rail rail_electric rail_fast ship" oneway="0"/>
    <type id="highway.trunk_link" priority="8" speed="22.22" disallow="pedestrian bicycle tram rail_urban rail rail_electric rail_fast ship" oneway="0"/>
    <type id="highway.unclassified" priority="4" speed="13.89" disallow="pedestrian tram rail_urban rail rail_electric rail_fast ship" oneway="0"/>
    <type id="highway.unsurfaced" priority="1" speed="8.33" disallow="tram rail_urban rail rail_electric rail_fast ship" oneway="0"/>
    <type id="railway.highspeed" priority="21" speed="69.44" allow="rail_fast" oneway="1"/>
    <type id="railway.light_rail" priority="19" speed="27.78" allow="rail_urban" oneway="1"/>
    <type id="railway.preserved" priority="16" speed="27.78" allow="rail" oneway="1"/>
    <type id="railway.rail" priority="20" speed="44.44" allow="rail" oneway="1"/>
    <type id="railway.subway" priority="18" speed="27.78" allow="rail_urban" oneway="1"/>
    <type id="railway.tram" priority="17" speed="13.89" allow="tram" oneway="1"/>

    <edge id=":25_0" function="internal">
        <lane id=":25_0_0" index="0" disallow="pedestrian tram rail_urban rail rail_electric rail_fast ship" speed="7.70" length="13.26" width="3.50" shape="-658.03,-935.04 -658.85,-937.29 -659.76,-939.45 -660.82,-941.50 -661.40,-942.42 -662.04,-943.27 -662.72,-944.00 -663.42,-944.55 -664.07,-944.85 -664.62,-944.94 -665.50,-944.73"/>
    </edge>
    <edge id=":25_1" function="internal">
        <lane id=":25_1_0" index="0" disallow="pedestrian tram rail_urban rail rail_electric rail_fast ship" speed="36.11" length="27.50" width="3.50" shape="-658.03,-935.04 -665.35,-956.01 -667.16,-960.98"/>
    </edge>
    <edge id=":25_2" function="internal">
        <lane id=":25_2_0" index="0" disallow="pedestrian tram rail_urban rail rail_electric rail_fast ship" speed="36.11" length="27.55" width="3.50" shape="-663.86,-962.17 -662.06,-957.19 -654.72,-936.18"/>
    </edge>
    <edge id=":25_3" function="internal">
        <lane id=":25_3_0" index="0" disallow="pedestrian tram rail_urban rail rail_electric rail_fast ship" speed="7.84" length="13.34" width="3.50" shape="-663.86,-962.17 -663.45,-961.01 -662.39,-957.52 -661.84,-955.08 -661.53,-952.57 -661.51,-951.22 -661.65,-949.84 -661.82,-949.17"/>
    </edge>
    <edge id=":25_4" function="internal">
        <lane id=":25_4_0" index="0" disallow="pedestrian tram rail_urban rail rail_electric rail_fast ship" speed="8.52" length="15.87" width="3.50" shape="-668.46,-947.35 -665.70,-948.65 -665.19,-949.48 -664.95,-950.44 -664.88,-951.42 -664.92,-952.41 -665.03,-953.39 -665.41,-955.32 -665.91,-957.23 -666.82,-960.05 -667.16,-960.98"/>
    </edge>
    <edge id=":25_5" function="internal">
        <lane id=":25_5_0" index="0" disallow="pedestrian tram rail_urban rail rail_electric rail_fast ship" speed="9.46" length="20.74" width="3.50" shape="-668.46,-947.35 -665.12,-948.44 -663.69,-948.41 -662.32,-947.99 -661.09,-947.25 -660.02,-946.29 -659.09,-945.20 -658.27,-944.02 -656.87,-941.51 -655.71,-938.88 -654.72,-936.18"/>
    </edge>
    <edge id=":26_0" function="internal">
        <lane id=":26_0_0" index="0" disallow="pedestrian tram rail_urban rail rail_electric rail_fast ship" speed="36.11" length="12.64" width="3.50" shape="-686.77,-933.26 -688.32,-937.71 -690.92,-945.20"/>
    </edge>
    <edge id=":26_1" function="internal">
        <lane id=":26_1_0" index="0" disallow="pedestrian tram rail_urban rail rail_electric rail_fast ship" speed="7.03" length="10.32" width="3.50" shape="-686.09,-933.49 -686.23,-935.26 -686.12,-936.96 -685.73,-938.62 -685.25,-939.66 -684.59,-940.58 -683.74,-941.35 -682.76,-941.93 -682.23,-942.15"/>
    </edge>
    <edge id=":26_2" function="internal">
        <lane id=":26_2_0" index="0" disallow="pedestrian tram rail_urban rail rail_electric rail_fast ship" speed="7.66" length="12.97" width="3.50" shape="-680.97,-938.89 -682.13,-938.56 -683.30,-938.45 -684.46,-938.60 -685.57,-939.01 -687.03,-939.98 -688.26,-941.25 -689.60,-943.17 -690.69,-945.28"/>
    </edge>
    <edge id=":27_0" function="internal">
        <lane id=":27_0_0" index="0" disallow="pedestrian tram rail_urban rail rail_electric rail_fast ship" speed="7.42" length="11.46" width="3.50" shape="-665.50,-944.74 -667.61,-943.74 -669.03,-942.73 -670.22,-941.46 -671.09,-939.96 -671.59,-938.29 -671.75,-936.56 -671.72,-936.13"/>
    </edge>
    <edge id=":27_1" function="internal">
        <lane id=":27_1_0" index="0" disallow="pedestrian tram rail_urban rail rail_electric rail_fast ship" speed="36.11" length="16.32" width="3.50" shape="-665.50,-944.74 -673.14,-941.85 -680.77,-938.97"/>
    </edge>
    <edge id=":27_2" function="internal">
        <lane id=":27_2_0" index="0" disallow="pedestrian tram rail_urban rail rail_electric rail_fast ship" speed="6.97" length="10.74" width="3.46" shape="-676.25,-950.56 -675.56,-949.63 -674.22,-948.43 -673.17,-947.84 -672.04,-947.45 -670.85,-947.28 -669.06,-947.38 -667.31,-947.81 -666.75,-948.00"/>
    </edge>
    <edge id=":27_3" function="internal">
        <lane id=":27_3_0" index="0" disallow="pedestrian tram rail_urban rail rail_electric rail_fast ship" speed="36.11" length="15.12" width="3.50" shape="-676.91,-950.34 -672.22,-935.97"/>
    </edge>
    <edge id=":27_4" function="internal">
        <lane id=":27_4_0" index="0" disallow="pedestrian tram rail_urban rail rail_electric rail_fast ship" speed="7.84" length="13.05" width="3.50" shape="-677.14,-950.26 -676.76,-948.17 -676.62,-945.88 -676.75,-944.16 -677.19,-942.49 -677.69,-941.45 -678.38,-940.53 -679.25,-939.77 -680.24,-939.19 -680.77,-938.97"/>
    </edge>
    <edge id=":27_5" function="internal">
        <lane id=":27_5_0" index="0" disallow="pedestrian tram rail_urban rail rail_electric rail_fast ship" speed="36.11" length="16.32" width="3.46" shape="-682.02,-942.24 -674.37,-945.12 -666.75,-948.00"/>
    </edge>
    <edge id=":27_6" function="internal">
        <lane id=":27_6_0" index="0" disallow="pedestrian tram rail_urban rail rail_electric rail_fast ship" speed="7.54" length="12.89" width="3.50" shape="-682.02,-942.24 -680.87,-942.57 -679.71,-942.69 -678.54,-942.56 -677.43,-942.17 -676.42,-941.57 -675.13,-940.37 -674.06,-938.97 -672.89,-936.93 -672.45,-935.90"/>
    </edge>

    <edge id="17236" from="27" to="25" priority="3" type="highway.residential" spreadType="center" length="0.19" shape="-674.90,-944.98 -663.21,-949.50">
        <lane id="17236_0" index="0" disallow="pedestrian tram rail_urban rail rail_electric rail_fast ship" speed="36.11" length="0.19" width="3.46" customShape="1" shape="-668.64,-947.28 -668.46,-947.35"/>
    </edge>
    <edge id="17237" from="25" to="27" priority="3" type="highway.residential" spreadType="center" length="0.27" shape="-661.96,-946.25 -673.67,-941.77">
        <lane id="17237_0" index="0" disallow="pedestrian tram rail_urban rail rail_electric rail_fast ship" speed="36.11" length="0.27" width="3.50" customShape="1" shape="-665.50,-944.73 -665.75,-944.64"/>
    </edge>
    <edge id="17245" from="26" to="27" priority="3" type="highway.residential" spreadType="center" length="0.25" shape="-685.62,-940.74 -674.47,-945.17">
        <lane id="17245_0" index="0" disallow="pedestrian tram rail_urban rail rail_electric rail_fast ship" speed="36.11" length="0.25" width="3.50" customShape="1" shape="-682.23,-942.15 -682.12,-942.20 -682.00,-942.24"/>
    </edge>
    <edge id="17246" from="27" to="26" priority="3" type="highway.residential" spreadType="center" length="0.26" shape="-673.18,-941.96 -684.32,-937.49">
        <lane id="17246_0" index="0" disallow="pedestrian tram rail_urban rail rail_electric rail_fast ship" speed="36.11" length="0.26" width="3.50" customShape="1" shape="-680.77,-938.97 -680.89,-938.92 -681.01,-938.88"/>
    </edge>
    <edge id="17574" from="21" to="27" priority="3" type="highway.residential" spreadType="center" length="74.78">
        <lane id="17574_0" index="0" disallow="pedestrian tram rail_urban rail rail_electric rail_fast ship" speed="36.11" length="74.78" width="3.50" customShape="1" shape="-700.00,-1021.46 -687.05,-980.71 -676.87,-950.35"/>
    </edge>
    <edge id="17576" from="27" to="7" priority="3" type="highway.residential" spreadType="center" length="74.16">
        <lane id="17576_0" index="0" disallow="pedestrian tram rail_urban rail rail_electric rail_fast ship" speed="36.11" length="74.16" width="3.50" customShape="1" shape="-672.22,-935.97 -660.46,-898.21 -650.17,-865.16"/>
    </edge>
    <edge id="17619" from="25" to="15" priority="3" type="highway.residential" spreadType="center" length="70.00" shape="-664.26,-947.37 -687.52,-1027.90">
        <lane id="17619_0" index="0" disallow="pedestrian tram rail_urban rail rail_electric rail_fast ship" speed="36.11" length="70.00" width="3.50" customShape="1" shape="-667.16,-960.98 -671.58,-973.44 -675.80,-986.51 -682.29,-1008.46 -685.30,-1018.18 -686.73,-1023.59 -687.52,-1027.90"/>
    </edge>
    <edge id="17620" from="23" to="25" priority="3" type="highway.residential" spreadType="center" length="70.02" shape="-684.19,-1029.10 -660.90,-948.34">
        <lane id="17620_0" index="0" disallow="pedestrian tram rail_urban rail rail_electric rail_fast ship" speed="36.11" length="70.02" width="3.50" customShape="1" shape="-684.19,-1029.10 -683.26,-1024.14 -681.85,-1018.86 -678.87,-1009.24 -672.42,-987.45 -668.25,-974.52 -663.86,-962.15"/>
    </edge>
    <edge id="17622" from="22" to="25" priority="3" type="highway.residential" spreadType="center" length="68.06" shape="-636.15,-870.61 -664.25,-947.32">
        <lane id="17622_0" index="0" disallow="pedestrian tram rail_urban rail rail_electric rail_fast ship" speed="36.11" length="68.06" width="3.50" customShape="1" shape="-636.15,-870.61 -647.09,-902.83 -658.03,-935.06"/>
    </edge>
    <edge id="17623" from="25" to="16" priority="3" type="highway.residential" spreadType="center" length="68.07" shape="-660.96,-948.52 -632.83,-871.73">
        <lane id="17623_0" index="0" disallow="pedestrian tram rail_urban rail rail_electric rail_fast ship" speed="36.11" length="68.07" width="3.50" customShape="1" shape="-654.72,-936.18 -643.78,-903.96 -632.83,-871.73"/>
    </edge>
    <edge id="17667" from="24" to="26" priority="3" type="highway.residential" spreadType="center" length="77.29">
        <lane id="17667_0" index="0" disallow="pedestrian tram rail_urban rail rail_electric rail_fast ship" speed="36.11" length="77.29" width="3.50" customShape="1" shape="-661.50,-860.21 -686.76,-933.26"/>
    </edge>
    <edge id="17669" from="26" to="20" priority="3" type="highway.residential" spreadType="center" length="74.07">
        <lane id="17669_0" index="0" disallow="pedestrian tram rail_urban rail rail_electric rail_fast ship" speed="36.11" length="74.07" width="3.50" customShape="1" shape="-690.90,-945.21 -715.44,-1015.10"/>
    </edge>

    <junction id="15" type="dead_end" x="-687.52" y="-1027.90" incLanes="17619_0" intLanes="" shape="-689.24,-1027.59 -685.80,-1028.22" rightOfWay="edgePriority"/>
    <junction id="16" type="dead_end" x="-632.83" y="-871.73" incLanes="17623_0" intLanes="" shape="-631.17,-872.30 -634.49,-871.17" rightOfWay="edgePriority"/>
    <junction id="20" type="dead_end" x="-715.44" y="-1015.10" incLanes="17669_0" intLanes="" shape="-717.10,-1014.52 -713.79,-1015.68" rightOfWay="edgePriority"/>
    <junction id="21" type="dead_end" x="-700.00" y="-1021.46" incLanes="" intLanes="" shape="-701.67,-1020.93 -698.33,-1021.99" rightOfWay="edgePriority"/>
    <junction id="22" type="dead_end" x="-636.15" y="-870.61" incLanes="" intLanes="" shape="-634.49,-871.17 -637.80,-870.04" rightOfWay="edgePriority"/>
    <junction id="23" type="dead_end" x="-684.19" y="-1029.10" incLanes="" intLanes="" shape="-685.91,-1028.78 -682.46,-1029.42" rightOfWay="edgePriority"/>
    <junction id="24" type="dead_end" x="-661.50" y="-860.21" incLanes="" intLanes="" shape="-659.85,-860.78 -663.16,-859.63" rightOfWay="edgePriority"/>
    <junction id="25" type="priority" x="-662.59" y="-947.89" incLanes="17622_0 17620_0 17236_0" intLanes=":25_0_0 :25_1_0 :25_2_0 :25_3_0 :25_4_0 :25_5_0" shape="-659.69,-934.49 -653.06,-936.75 -662.21,-962.74 -668.80,-960.40 -670.98,-948.24 -669.72,-945.02 -662.49,-948.39 -668.28,-941.73">
        <request index="0" response="000000" foes="001000" cont="0"/>
        <request index="1" response="000000" foes="111000" cont="0"/>
        <request index="2" response="000000" foes="100000" cont="0"/>
        <request index="3" response="000011" foes="100011" cont="0"/>
        <request index="4" response="000010" foes="000010" cont="0"/>
        <request index="5" response="001110" foes="001110" cont="0"/>
    </junction>
    <junction id="26" type="priority" x="-684.97" y="-939.11" incLanes="17667_0 17246_0" intLanes=":26_0_0 :26_1_0 :26_2_0" shape="-688.42,-932.69 -685.11,-933.83 -684.80,-934.84 -684.16,-935.40 -683.21,-935.99 -681.93,-936.61 -680.34,-937.26 -682.86,-943.79 -685.80,-943.15 -686.96,-943.32 -687.93,-943.82 -688.69,-944.64 -689.25,-945.79 -692.55,-944.63">
        <request index="0" response="000" foes="100" cont="0"/>
        <request index="1" response="000" foes="100" cont="0"/>
        <request index="2" response="011" foes="011" cont="0"/>
    </junction>
    <junction id="27" type="priority" x="-674.06" y="-943.47" incLanes="17237_0 17574_0 17245_0" intLanes=":27_0_0 :27_1_0 :27_2_0 :27_3_0 :27_4_0 :27_5_0 :27_6_0" shape="-673.89,-935.45 -670.54,-936.49 -670.45,-938.93 -669.73,-940.06 -668.56,-941.13 -666.94,-942.15 -664.88,-943.10 -667.37,-949.62 -669.41,-948.96 -671.16,-948.65 -672.62,-948.69 -673.78,-949.08 -674.64,-949.82 -675.22,-950.90 -678.53,-949.79 -678.41,-947.40 -678.91,-946.36 -679.78,-945.42 -681.02,-944.59 -682.64,-943.87 -680.15,-937.33 -677.20,-937.98 -676.05,-937.83 -675.11,-937.36 -674.39,-936.56">
        <request index="0" response="0000000" foes="1001000" cont="0"/>
        <request index="1" response="0000000" foes="1011000" cont="0"/>
        <request index="2" response="0100000" foes="0100000" cont="0"/>
        <request index="3" response="1100011" foes="1100011" cont="0"/>
        <request index="4" response="1100010" foes="1100010" cont="0"/>
        <request index="5" response="0000000" foes="0011100" cont="0"/>
        <request index="6" response="0000011" foes="0011011" cont="0"/>
    </junction>
    <junction id="7" type="dead_end" x="-650.17" y="-865.16" incLanes="17576_0" intLanes="" shape="-648.50,-865.68 -651.84,-864.64" rightOfWay="edgePriority"/>

    <connection from="17236" to="17619" fromLane="0" toLane="0" contPos="-4.00" shape="-666.51,-948.10 -665.70,-948.65 -665.19,-949.48 -664.95,-950.44 -664.88,-951.42 -664.92,-952.41 -665.03,-953.39 -665.41,-955.32 -665.91,-957.23 -666.82,-960.05 -667.16,-960.98" via=":25_4_0" dir="r" state="m"/>
    <connection from="17236" to="17623" fromLane="0" toLane="0" contPos="-4.00" shape="-666.51,-948.10 -665.12,-948.44 -663.69,-948.41 -662.32,-947.99 -661.09,-947.25 -660.02,-946.29 -659.09,-945.20 -658.27,-944.02 -656.87,-941.51 -655.71,-938.88 -654.72,-936.18" via=":25_5_0" dir="l" state="m"/>
    <connection from="17237" to="17576" fromLane="0" toLane="0" contPos="-4.00" shape="-665.50,-944.74 -667.61,-943.74 -669.03,-942.73 -670.22,-941.46 -671.09,-939.96 -671.59,-938.29 -671.75,-936.56 -671.63,-934.82 -671.14,-932.55 -670.98,-931.99" via=":27_0_0" dir="r" state="M"/>
    <connection from="17237" to="17246" fromLane="0" toLane="0" contPos="-4.00" shape="-665.50,-944.74 -673.14,-941.85 -680.77,-938.97" via=":27_1_0" dir="s" state="M"/>
    <connection from="17245" to="17236" fromLane="0" toLane="0" contPos="-4.00" shape="-682.00,-942.24 -674.37,-945.12 -666.75,-948.00" via=":27_5_0" dir="s" state="M"/>
    <connection from="17245" to="17576" fromLane="0" toLane="0" contPos="-4.00" shape="-682.00,-942.24 -680.87,-942.57 -679.71,-942.69 -678.54,-942.56 -677.43,-942.17 -676.42,-941.57 -675.13,-940.37 -674.06,-938.97 -672.89,-936.93 -671.74,-934.22 -670.98,-931.99" via=":27_6_0" dir="l" state="m"/>
    <connection from="17246" to="17669" fromLane="0" toLane="0" contPos="-4.00" shape="-681.01,-938.88 -682.13,-938.56 -683.30,-938.45 -684.46,-938.60 -685.57,-939.01 -687.03,-939.98 -688.26,-941.25 -689.60,-943.17 -690.95,-945.78 -692.25,-949.06" via=":26_2_0" dir="l" state="m"/>
    <connection from="17574" to="17236" fromLane="0" toLane="0" contPos="-4.00" shape="-678.39,-954.88 -677.50,-952.65 -676.64,-951.07 -675.56,-949.63 -674.22,-948.43 -673.17,-947.84 -672.04,-947.45 -670.85,-947.28 -669.06,-947.38 -667.31,-947.81 -666.75,-948.00" via=":27_2_0" dir="r" state="m"/>
    <connection from="17574" to="17576" fromLane="0" toLane="0" contPos="-4.00" shape="-678.39,-954.88 -672.20,-935.90 -670.98,-931.99" via=":27_3_0" dir="s" state="m"/>
    <connection from="17574" to="17246" fromLane="0" toLane="0" contPos="-4.00" shape="-678.39,-954.88 -677.27,-951.01 -676.76,-948.17 -676.62,-945.88 -676.75,-944.16 -677.19,-942.49 -677.69,-941.45 -678.38,-940.53 -679.25,-939.77 -680.24,-939.19 -680.77,-938.97" via=":27_4_0" dir="l" state="m"/>
    <connection from="17620" to="17623" fromLane="0" toLane="0" contPos="-4.00" shape="-663.86,-962.17 -662.06,-957.19 -654.72,-936.18" via=":25_2_0" dir="s" state="M"/>
    <connection from="17620" to="17237" fromLane="0" toLane="0" contPos="-4.00" shape="-663.86,-962.17 -663.45,-961.01 -662.39,-957.52 -661.84,-955.08 -661.53,-952.57 -661.51,-951.22 -661.65,-949.84 -662.01,-948.43 -662.68,-947.05 -663.73,-945.81 -665.28,-944.84" via=":25_3_0" dir="l" state="m"/>
    <connection from="17622" to="17237" fromLane="0" toLane="0" contPos="-4.00" shape="-658.03,-935.04 -658.85,-937.29 -659.76,-939.45 -660.82,-941.50 -661.40,-942.42 -662.04,-943.27 -662.72,-944.00 -663.42,-944.55 -664.07,-944.85 -664.62,-944.94 -665.28,-944.84" via=":25_0_0" dir="r" state="M"/>
    <connection from="17622" to="17619" fromLane="0" toLane="0" contPos="-4.00" shape="-658.03,-935.04 -665.35,-956.01 -667.16,-960.98" via=":25_1_0" dir="s" state="M"/>
    <connection from="17667" to="17669" fromLane="0" toLane="0" contPos="-4.00" shape="-684.38,-926.36 -688.32,-937.71 -692.25,-949.06" via=":26_0_0" dir="s" state="M"/>
    <connection from="17667" to="17245" fromLane="0" toLane="0" contPos="-4.00" shape="-684.38,-926.36 -685.52,-930.19 -686.06,-932.99 -686.23,-935.26 -686.12,-936.96 -685.73,-938.62 -685.25,-939.66 -684.59,-940.58 -683.74,-941.35 -682.76,-941.93 -682.23,-942.15" via=":26_1_0" dir="l" state="M"/>

    <connection from=":25_0" to="17237" fromLane="0" toLane="0" dir="r" state="M"/>
    <connection from=":25_1" to="17619" fromLane="0" toLane="0" dir="s" state="M"/>
    <connection from=":25_2" to="17623" fromLane="0" toLane="0" dir="s" state="M"/>
    <connection from=":25_3" to="17237" fromLane="0" toLane="0" dir="l" state="M"/>
    <connection from=":25_4" to="17619" fromLane="0" toLane="0" dir="r" state="M"/>
    <connection from=":25_5" to="17623" fromLane="0" toLane="0" dir="l" state="M"/>
    <connection from=":26_0" to="17669" fromLane="0" toLane="0" dir="s" state="M"/>
    <connection from=":26_1" to="17245" fromLane="0" toLane="0" dir="l" state="M"/>
    <connection from=":26_2" to="17669" fromLane="0" toLane="0" dir="l" state="M"/>
    <connection from=":27_0" to="17576" fromLane="0" toLane="0" dir="r" state="M"/>
    <connection from=":27_1" to="17246" fromLane="0" toLane="0" dir="s" state="M"/>
    <connection from=":27_2" to="17236" fromLane="0" toLane="0" dir="r" state="M"/>
    <connection from=":27_3" to="17576" fromLane="0" toLane="0" dir="s" state="M"/>
    <connection from=":27_4" to="17246" fromLane="0" toLane="0" dir="l" state="M"/>
    <connection from=":27_5" to="17236" fromLane="0" toLane="0" dir="s" state="M"/>
    <connection from=":27_6" to="17576" fromLane="0" toLane="0" dir="l" state="M"/>

</net>