<routes>
	<vehicle depart="0.1" departLane="0" departPos="53.15859882077429" departSpeed="1.416103" id="38" type="bicycle">
		<route edges="17667 17245"/>
	</vehicle>
	<vehicle depart="0.1" departLane="0" departPos="43.78573090800588" departSpeed="1.2160328" id="310" type="bicycle">
		<route edges="17667 17245"/>
	</vehicle>
	<vehicle depart="0.1" departLane="0" departPos="65.48264649374593" departSpeed="0.83920312" id="31" type="passenger">
		<route edges="17667 17245"/>
	</vehicle>
	<vehicle depart="0.1" departLane="0" departPos="57.330840171419645" departSpeed="0.85840355" id="32" type="passenger">
		<route edges="17667 17245"/>
	</vehicle>
	<vehicle depart="0.1" departLane="0" departPos="10.10375830987539" departSpeed="4.4308842" id="35" type="passenger">
		<route edges=":26_2 17669"/>
	</vehicle>
	<vehicle depart="0.1" departLane="0" departPos="57.636742200395474" departSpeed="1.8531487" id="36" type="passenger">
		<route edges="17574 17246"/>
	</vehicle>
	<vehicle depart="0.1" departLane="0" departPos="37.85529980793316" departSpeed="2.5595854" id="37" type="passenger">
		<route edges="17574 17246"/>
	</vehicle>
	<vehicle depart="0.1" departLane="0" departPos="8.33561554693097" departSpeed="3.4841968" id="311" type="passenger">
		<route edges=":26_1 17245 17236 17619"/>
	</vehicle>
	<vehicle depart="0.1" departLane="0" departPos="8.169207979203325" departSpeed="3.1880344" id="319" type="passenger">
		<route edges="17574 17246"/>
	</vehicle>
	<vehicle depart="0.1" departLane="0" departPos="39.895767674325796" departSpeed="0.79534308" id="34" type="motorcycle">
		<route edges="17667 17245"/>
	</vehicle>
</routes>
