<routes>
	<vehicle depart="0.1" departLane="0" departPos="59.994622559584876" departSpeed="0.0" id="317" type="passenger">
		<route edges="17492 18062"/>
	</vehicle>
	<vehicle depart="0.1" departLane="0" departPos="2.5" departSpeed="15.883855" id="328" type="passenger">
		<route edges=":24_0 18062 17484"/>
	</vehicle>
	<vehicle depart="0.1" departLane="0" departPos="20.858582744431057" departSpeed="20.052162" id="326" type="motorcycle">
		<route edges=":24_3 18062 17484"/>
	</vehicle>
	<vehicle depart="0.1" departLane="0" departPos="69.9945037117903" departSpeed="0.0" id="30" type="truck">
		<route edges="17492 18062"/>
	</vehicle>
	<vehicle depart="0.1" departLane="0" departPos="54.1566085669513" departSpeed="0.0" id="330" type="truck">
		<route edges="17483 17721"/>
	</vehicle>
</routes>
