<!-- generated on Tue Feb  9 22:10:00 2021 by Eclipse SUMO netconvert Version 1.8.0
<configuration xmlns:xsi="http://www.w3.org/2001/XMLSchema-instance" xsi:noNamespaceSchemaLocation="http://sumo.dlr.de/xsd/netconvertConfiguration.xsd">

    <input>
        <node-files value="./converted_scenarios/scenario-factory/DEU_Guetersloh-42_1_I-1-1/DEU_Guetersloh-42_1_I-1-1.nod.xml"/>
        <edge-files value="./converted_scenarios/scenario-factory/DEU_Guetersloh-42_1_I-1-1/DEU_Guetersloh-42_1_I-1-1.edg.xml"/>
        <connection-files value="./converted_scenarios/scenario-factory/DEU_Guetersloh-42_1_I-1-1/DEU_Guetersloh-42_1_I-1-1.con.xml"/>
        <tllogic-files value="./converted_scenarios/scenario-factory/DEU_Guetersloh-42_1_I-1-1/DEU_Guetersloh-42_1_I-1-1.tll.xml"/>
        <type-files value="/home/zen/commonroad-interactive-benchmarks/install/commonroad-map-tool/crmapconverter/sumo_map/templates/DEU.typ.xml"/>
    </input>

    <output>
        <output-file value="./converted_scenarios/scenario-factory/DEU_Guetersloh-42_1_I-1-1/DEU_Guetersloh-42_1_I-1-1.net.xml"/>
    </output>

    <processing>
        <geometry.remove.keep-edges.explicit value="true"/>
        <geometry.avoid-overlap value="true"/>
        <offset.disable-normalization value="true"/>
    </processing>

    <junctions>
        <no-turnarounds value="true"/>
        <junctions.internal-link-detail value="20"/>
    </junctions>

    <report>
        <aggregate-warnings value="5"/>
    </report>

    <random_number>
        <seed value="1234"/>
    </random_number>

</configuration>
--><net xmlns:xsi="http://www.w3.org/2001/XMLSchema-instance" version="1.6" junctionCornerDetail="5" junctionLinkDetail="20" limitTurnSpeed="5.50" xsi:noNamespaceSchemaLocation="http://sumo.dlr.de/xsd/net_file.xsd">

    <location netOffset="0.00,0.00" convBoundary="-79.62,189.34,184.41,396.78" origBoundary="-79.62,189.33,184.41,396.78" projParameter="!"/>

    <type id="highway.bridleway" priority="1" speed="2.78" allow="pedestrian" oneway="1" width="2.00"/>
    <type id="highway.bus_guideway" priority="1" speed="27.78" allow="bus" oneway="1"/>
    <type id="highway.cycleway" priority="1" speed="8.33" allow="bicycle" oneway="0" width="1.00"/>
    <type id="highway.footway" priority="1" speed="2.78" allow="pedestrian" oneway="1" width="2.00"/>
    <type id="highway.ford" priority="1" speed="2.78" allow="army" oneway="0"/>
    <type id="highway.living_street" priority="2" speed="2.78" disallow="tram rail_urban rail rail_electric rail_fast ship" oneway="0"/>
    <type id="highway.motorway" priority="14" speed="39.44" allow="private emergency authority army vip passenger hov taxi bus coach delivery truck trailer motorcycle evehicle custom1 custom2" oneway="1"/>
    <type id="highway.motorway_link" priority="9" speed="22.22" allow="private emergency authority army vip passenger hov taxi bus coach delivery truck trailer motorcycle evehicle custom1 custom2" oneway="1"/>
    <type id="highway.path" priority="1" speed="2.78" allow="pedestrian bicycle" oneway="0" width="2.00"/>
    <type id="highway.pedestrian" priority="1" speed="2.78" allow="pedestrian" oneway="1" width="2.00"/>
    <type id="highway.primary" priority="12" speed="27.78" disallow="pedestrian tram rail_urban rail rail_electric rail_fast ship" oneway="0"/>
    <type id="highway.primary_link" priority="7" speed="22.22" disallow="pedestrian tram rail_urban rail rail_electric rail_fast ship" oneway="0"/>
    <type id="highway.raceway" priority="15" speed="83.33" allow="vip" oneway="0"/>
    <type id="highway.residential" priority="3" speed="13.89" disallow="pedestrian tram rail_urban rail rail_electric rail_fast ship" oneway="0"/>
    <type id="highway.secondary" priority="11" speed="27.78" disallow="pedestrian tram rail_urban rail rail_electric rail_fast ship" oneway="0"/>
    <type id="highway.secondary_link" priority="6" speed="22.22" disallow="pedestrian tram rail_urban rail rail_electric rail_fast ship" oneway="0"/>
    <type id="highway.service" priority="1" speed="5.56" allow="pedestrian delivery bicycle" oneway="0"/>
    <type id="highway.stairs" priority="1" speed="1.39" allow="pedestrian" oneway="1" width="2.00"/>
    <type id="highway.step" priority="1" speed="1.39" allow="pedestrian" oneway="1" width="2.00"/>
    <type id="highway.steps" priority="1" speed="1.39" allow="pedestrian" oneway="1" width="2.00"/>
    <type id="highway.tertiary" priority="10" speed="22.22" disallow="pedestrian tram rail_urban rail rail_electric rail_fast ship" oneway="0"/>
    <type id="highway.tertiary_link" priority="5" speed="22.22" disallow="pedestrian tram rail_urban rail rail_electric rail_fast ship" oneway="0"/>
    <type id="highway.track" priority="1" speed="5.56" allow="pedestrian motorcycle moped bicycle" oneway="0"/>
    <type id="highway.trunk" priority="13" speed="27.78" disallow="pedestrian bicycle tram rail_urban rail rail_electric rail_fast ship" oneway="0"/>
    <type id="highway.trunk_link" priority="8" speed="22.22" disallow="pedestrian bicycle tram rail_urban rail rail_electric rail_fast ship" oneway="0"/>
    <type id="highway.unclassified" priority="4" speed="13.89" disallow="pedestrian tram rail_urban rail rail_electric rail_fast ship" oneway="0"/>
    <type id="highway.unsurfaced" priority="1" speed="8.33" disallow="tram rail_urban rail rail_electric rail_fast ship" oneway="0"/>
    <type id="railway.highspeed" priority="21" speed="69.44" allow="rail_fast" oneway="1"/>
    <type id="railway.light_rail" priority="19" speed="27.78" allow="rail_urban" oneway="1"/>
    <type id="railway.preserved" priority="16" speed="27.78" allow="rail" oneway="1"/>
    <type id="railway.rail" priority="20" speed="44.44" allow="rail" oneway="1"/>
    <type id="railway.subway" priority="18" speed="27.78" allow="rail_urban" oneway="1"/>
    <type id="railway.tram" priority="17" speed="13.89" allow="tram" oneway="1"/>

    <edge id=":41_0" function="internal">
        <lane id=":41_0_0" index="0" disallow="pedestrian tram rail_urban rail rail_electric rail_fast ship" speed="10.27" length="32.20" width="3.50" shape="10.26,231.99 10.19,228.63 9.82,225.97 9.28,224.04 8.43,222.21 7.66,221.11 6.71,220.16 5.62,219.39 4.40,218.82 2.45,218.35 0.44,218.23 -2.23,218.49 -5.50,219.25 -9.30,220.58 -11.77,221.63"/>
    </edge>
    <edge id=":41_1" function="internal">
        <lane id=":41_1_0" index="0" disallow="pedestrian tram rail_urban rail rail_electric rail_fast ship" speed="11.56" length="18.77" width="3.50" shape="11.60,218.39 12.12,215.63 13.13,212.04 14.30,209.07 15.56,206.74 16.82,205.02 18.32,203.51 19.61,202.59 20.08,202.32"/>
    </edge>
    <edge id=":41_2" function="internal">
        <lane id=":41_2_0" index="0" disallow="pedestrian tram rail_urban rail rail_electric rail_fast ship" speed="36.11" length="37.22" width="3.50" shape="21.72,205.41 16.21,208.29 4.15,214.23 -11.77,221.63"/>
    </edge>
    <edge id=":41_3" function="internal">
        <lane id=":41_3_0" index="0" disallow="pedestrian tram rail_urban rail rail_electric rail_fast ship" speed="36.11" length="36.99" width="3.50" shape="-13.21,218.44 2.63,211.08 14.61,205.17 20.08,202.32"/>
    </edge>
    <edge id=":42_0" function="internal">
        <lane id=":42_0_0" index="0" disallow="pedestrian tram rail_urban rail rail_electric rail_fast ship" speed="36.11" length="6.49" width="3.50" shape="9.95,267.23 3.46,267.08"/>
    </edge>
    <edge id=":42_1" function="internal">
        <lane id=":42_1_0" index="0" disallow="pedestrian tram rail_urban rail rail_electric rail_fast ship" speed="10.73" length="27.99" width="3.50" shape="24.41,267.56 21.44,267.35 18.51,266.82 16.24,266.10 14.10,265.05 12.64,264.02 11.35,262.78 10.29,261.34 9.48,259.75 8.90,258.06 8.45,255.72 8.32,253.34 8.49,250.37 8.56,249.78"/>
    </edge>
    <edge id=":43_0" function="internal">
        <lane id=":43_0_0" index="0" disallow="pedestrian tram rail_urban rail rail_electric rail_fast ship" speed="8.92" length="17.25" width="3.50" shape="86.11,272.36 85.38,272.85 84.08,274.02 82.60,275.83 81.42,277.85 80.53,280.01 79.77,282.83 79.32,285.72 79.17,287.48"/>
    </edge>
    <edge id=":43_1" function="internal">
        <lane id=":43_1_0" index="0" disallow="pedestrian tram rail_urban rail rail_electric rail_fast ship" speed="36.11" length="15.22" width="3.50" shape="86.17,269.19 78.87,269.02 70.95,268.83"/>
    </edge>
    <edge id=":43_2" function="internal">
        <lane id=":43_2_0" index="0" disallow="pedestrian tram rail_urban rail rail_electric rail_fast ship" speed="9.17" length="20.19" width="3.50" shape="86.21,267.07 84.35,265.96 82.96,264.82 81.74,263.49 80.73,261.99 79.94,260.37 79.21,258.09 78.81,255.72 78.68,252.71 78.88,249.72"/>
    </edge>
    <edge id=":43_3" function="internal">
        <lane id=":43_3_0" index="0" disallow="pedestrian tram rail_urban rail rail_electric rail_fast ship" speed="36.11" length="37.52" width="3.50" shape="82.36,250.10 81.80,255.27 80.26,271.88 79.17,287.48"/>
    </edge>
    <edge id=":43_4" function="internal">
        <lane id=":43_4_0" index="0" disallow="pedestrian tram rail_urban rail rail_electric rail_fast ship" speed="10.06" length="21.51" width="3.50" shape="82.36,250.10 81.81,253.48 81.05,256.22 79.96,258.86 78.82,260.83 77.43,262.64 75.80,264.23 73.95,265.56 71.93,266.63 71.00,266.97"/>
    </edge>
    <edge id=":43_5" function="internal">
        <lane id=":43_5_0" index="0" disallow="pedestrian tram rail_urban rail rail_electric rail_fast ship" speed="8.54" length="16.60" width="3.50" shape="75.68,287.27 75.72,283.77 75.43,280.87 74.93,278.59 74.14,276.39 73.32,274.85 72.29,273.43 71.07,272.18 70.86,272.01"/>
    </edge>
    <edge id=":43_6" function="internal">
        <lane id=":43_6_0" index="0" disallow="pedestrian tram rail_urban rail rail_electric rail_fast ship" speed="36.11" length="37.69" width="3.50" shape="75.68,287.27 76.78,271.60 78.32,254.92 78.88,249.72"/>
    </edge>
    <edge id=":44_0" function="internal">
        <lane id=":44_0_0" index="0" disallow="pedestrian tram rail_urban rail rail_electric rail_fast ship" speed="36.11" length="28.58" width="3.50" shape="85.50,314.26 71.17,313.91 56.93,313.56"/>
    </edge>
    <edge id=":44_1" function="internal">
        <lane id=":44_1_0" index="0" disallow="pedestrian tram rail_urban rail rail_electric rail_fast ship" speed="10.61" length="26.56" width="3.50" shape="85.50,314.27 84.14,314.17 82.84,313.90 81.60,313.44 80.44,312.79 79.42,311.95 78.53,310.96 77.79,309.87 77.17,308.69 76.68,307.46 75.96,304.91 75.52,302.29 75.24,298.32 75.28,294.35 75.34,293.02"/>
    </edge>
    <edge id=":44_2" function="internal">
        <lane id=":44_2_0" index="0" disallow="pedestrian tram rail_urban rail rail_electric rail_fast ship" speed="9.47" length="20.84" width="3.50" shape="78.84,293.23 78.78,294.37 78.73,297.83 78.92,301.24 79.24,303.43 79.76,305.56 80.10,306.53 80.51,307.46 81.01,308.30 81.58,309.04 82.21,309.65 82.92,310.13 83.71,310.47 84.57,310.69 85.55,310.77"/>
    </edge>
    <edge id=":44_3" function="internal">
        <lane id=":44_3_0" index="0" disallow="pedestrian tram rail_urban rail rail_electric rail_fast ship" speed="12.27" length="33.97" width="3.50" shape="78.84,293.23 78.60,295.75 78.18,298.26 77.52,300.76 76.58,303.21 75.33,305.51 74.55,306.64 73.69,307.68 72.74,308.64 71.72,309.53 70.62,310.32 69.47,311.01 68.25,311.62 65.80,312.54 63.26,313.14 60.69,313.47 56.93,313.56"/>
    </edge>
    <edge id=":44_4" function="internal">
        <lane id=":44_4_0" index="0" disallow="pedestrian tram rail_urban rail rail_electric rail_fast ship" speed="11.28" length="28.53" width="3.50" shape="57.00,310.06 60.29,309.98 62.47,309.70 64.61,309.20 66.66,308.43 67.64,307.93 68.58,307.37 69.47,306.72 70.30,306.01 71.07,305.22 71.76,304.37 72.39,303.47 73.44,301.54 74.22,299.49 74.78,297.37 75.14,295.21 75.34,293.02"/>
    </edge>
    <edge id=":44_5" function="internal">
        <lane id=":44_5_0" index="0" disallow="pedestrian tram rail_urban rail rail_electric rail_fast ship" speed="36.11" length="28.56" width="3.50" shape="57.00,310.06 71.26,310.41 85.55,310.77"/>
    </edge>
    <edge id=":45_0" function="internal">
        <lane id=":45_0_0" index="0" disallow="pedestrian tram rail_urban rail rail_electric rail_fast ship" speed="36.11" length="28.71" width="3.50" shape="114.42,314.63 100.05,314.45 85.71,314.27"/>
    </edge>
    <edge id=":45_1" function="internal">
        <lane id=":45_1_0" index="0" disallow="pedestrian tram rail_urban rail rail_electric rail_fast ship" speed="36.11" length="28.64" width="3.50" shape="85.77,310.77 100.09,310.95 114.41,311.13"/>
    </edge>
    <edge id=":45_2" function="internal">
        <lane id=":45_2_0" index="0" disallow="pedestrian tram rail_urban rail rail_electric rail_fast ship" speed="10.79" length="26.72" width="3.50" shape="85.77,310.77 87.21,310.90 88.68,311.29 90.06,311.93 91.28,312.81 92.32,313.85 93.18,314.98 93.88,316.17 94.46,317.42 95.29,319.86 95.85,322.35 96.22,324.85 96.51,328.55 96.58,332.26"/>
    </edge>
    <edge id=":45_3" function="internal">
        <lane id=":45_3_0" index="0" disallow="pedestrian tram rail_urban rail rail_electric rail_fast ship" speed="9.68" length="21.25" width="3.50" shape="93.08,332.21 93.03,329.03 92.82,325.85 92.56,323.74 92.16,321.65 91.58,319.60 91.20,318.61 90.74,317.65 90.18,316.75 89.50,315.93 88.70,315.23 87.78,314.70 86.77,314.38 85.71,314.27"/>
    </edge>

    <edge id="68965" from="43" to="42" priority="3" type="highway.residential" spreadType="center" length="61.01">
        <lane id="68965_0" index="0" disallow="pedestrian tram rail_urban rail rail_electric rail_fast ship" speed="36.11" length="61.01" width="3.50" customShape="1" shape="70.95,268.89 42.31,268.07 9.96,267.15"/>
    </edge>
    <edge id="68992" from="41" to="12" priority="3" type="highway.residential" spreadType="center" length="70.00" shape="5.91,217.64 -78.16,240.38">
        <lane id="68992_0" index="0" disallow="pedestrian tram rail_urban rail rail_electric rail_fast ship" speed="36.11" length="70.00" width="3.50" customShape="1" shape="-11.77,221.63 -35.34,232.06 -42.98,235.17 -49.30,237.39 -54.27,238.77 -60.32,240.05 -64.89,240.83 -67.98,241.04 -72.61,240.91 -78.16,240.38"/>
    </edge>
    <edge id="68993" from="28" to="41" priority="3" type="highway.residential" spreadType="center" length="70.02" shape="-79.62,236.62 5.00,214.26">
        <lane id="68993_0" index="0" disallow="pedestrian tram rail_urban rail rail_electric rail_fast ship" speed="36.11" length="70.02" width="3.50" customShape="1" shape="-79.62,236.62 -77.82,236.90 -72.36,237.42 -67.94,237.54 -65.07,237.32 -60.68,236.56 -54.81,235.30 -50.02,233.94 -43.89,231.77 -36.42,228.72 -13.19,218.43"/>
    </edge>
    <edge id="68995" from="30" to="41" priority="3" type="highway.residential" spreadType="center" length="47.42" shape="66.59,192.84 6.03,217.59">
        <lane id="68995_0" index="0" disallow="pedestrian tram rail_urban rail rail_electric rail_fast ship" speed="36.11" length="47.42" width="3.50" customShape="1" shape="66.59,192.84 59.64,192.83 54.16,193.14 49.70,193.68 46.29,194.46 42.50,195.70 36.94,197.91 30.59,200.83 21.68,205.43"/>
    </edge>
    <edge id="68996" from="41" to="13" priority="3" type="highway.residential" spreadType="center" length="49.16" shape="4.72,214.35 66.67,189.34">
        <lane id="68996_0" index="0" disallow="pedestrian tram rail_urban rail rail_electric rail_fast ship" speed="36.11" length="49.16" width="3.50" customShape="1" shape="20.08,202.32 29.17,197.63 35.72,194.63 41.49,192.34 45.49,191.05 49.12,190.23 53.81,189.66 59.50,189.33 66.67,189.34"/>
    </edge>
    <edge id="69068" from="45" to="35" priority="3" type="highway.residential" spreadType="center" length="70.00" shape="99.99,319.77 71.94,396.78">
        <lane id="69068_0" index="0" disallow="pedestrian tram rail_urban rail rail_electric rail_fast ship" speed="36.11" length="70.00" width="3.50" customShape="1" shape="96.58,332.26 96.49,336.31 96.11,341.39 95.43,345.92 94.38,350.38 92.75,355.73 90.62,361.46 87.96,367.52 84.53,374.34 78.83,384.57 71.94,396.78"/>
    </edge>
    <edge id="69069" from="39" to="45" priority="3" type="highway.residential" spreadType="center" length="70.03" shape="68.08,396.61 96.70,318.57">
        <lane id="69069_0" index="0" disallow="pedestrian tram rail_urban rail rail_electric rail_fast ship" speed="36.11" length="70.03" width="3.50" customShape="1" shape="68.08,396.61 68.67,395.47 75.61,383.14 81.25,373.05 84.63,366.38 87.24,360.48 89.34,354.92 90.93,349.72 91.96,345.44 92.62,341.09 92.99,336.18 93.08,332.18"/>
    </edge>
    <edge id="69208" from="42" to="3" priority="3" type="highway.residential" spreadType="center" length="19.05">
        <lane id="69208_0" index="0" disallow="pedestrian tram rail_urban rail rail_electric rail_fast ship" speed="36.11" length="19.05" width="3.50" customShape="1" shape="3.47,267.01 -12.42,266.75 -15.58,266.70"/>
    </edge>
    <edge id="69425" from="31" to="43" priority="3" type="highway.residential" spreadType="center" length="55.67">
        <lane id="69425_0" index="0" disallow="pedestrian tram rail_urban rail rail_electric rail_fast ship" speed="36.11" length="55.67" width="3.50" customShape="1" shape="141.83,270.25 119.67,269.85 86.17,269.25"/>
    </edge>
    <edge id="69622" from="45" to="36" priority="3" type="highway.residential" spreadType="center" length="70.00" shape="98.16,317.47 184.41,310.85">
        <lane id="69622_0" index="0" disallow="pedestrian tram rail_urban rail rail_electric rail_fast ship" speed="36.11" length="70.00" width="3.50" customShape="1" shape="114.41,311.13 157.16,310.96 184.41,310.85"/>
    </edge>
    <edge id="69623" from="40" to="45" priority="3" type="highway.residential" spreadType="center" length="70.00" shape="184.41,314.35 98.43,320.96">
        <lane id="69623_0" index="0" disallow="pedestrian tram rail_urban rail rail_electric rail_fast ship" speed="36.11" length="70.00" width="3.50" customShape="1" shape="184.41,314.35 157.17,314.46 114.41,314.63"/>
    </edge>
    <edge id="69625" from="44" to="45" priority="3" type="highway.residential" spreadType="center" length="0.26" shape="74.01,304.27 99.25,317.72">
        <lane id="69625_0" index="0" disallow="pedestrian tram rail_urban rail rail_electric rail_fast ship" speed="36.11" length="0.26" width="3.50" customShape="1" shape="85.55,310.77 85.81,310.77"/>
    </edge>
    <edge id="69626" from="45" to="44" priority="3" type="highway.residential" spreadType="center" length="0.25" shape="97.61,320.80 72.37,307.36">
        <lane id="69626_0" index="0" disallow="pedestrian tram rail_urban rail rail_electric rail_fast ship" speed="36.11" length="0.25" width="3.50" customShape="1" shape="85.71,314.27 85.59,314.27 85.46,314.26"/>
    </edge>
    <edge id="69628" from="18" to="44" priority="3" type="highway.residential" spreadType="center" length="70.03" shape="-12.96,307.92 73.15,304.07">
        <lane id="69628_0" index="0" disallow="pedestrian tram rail_urban rail rail_electric rail_fast ship" speed="36.11" length="70.03" width="3.50" customShape="1" shape="-12.96,307.92 57.04,310.06"/>
    </edge>
    <edge id="69629" from="44" to="25" priority="3" type="highway.residential" spreadType="center" length="69.99" shape="73.30,307.57 -13.03,311.42">
        <lane id="69629_0" index="0" disallow="pedestrian tram rail_urban rail rail_electric rail_fast ship" speed="36.11" length="69.99" width="3.50" customShape="1" shape="56.93,313.56 -13.03,311.42"/>
    </edge>
    <edge id="69681" from="43" to="15" priority="3" type="highway.residential" spreadType="center" length="38.60" shape="77.23,268.64 83.11,211.35">
        <lane id="69681_0" index="0" disallow="pedestrian tram rail_urban rail rail_electric rail_fast ship" speed="36.11" length="38.60" width="3.50" customShape="1" shape="78.88,249.72 81.00,230.52 83.11,211.35"/>
    </edge>
    <edge id="69682" from="27" to="43" priority="3" type="highway.residential" spreadType="center" length="38.61" shape="86.59,211.72 80.70,269.00">
        <lane id="69682_0" index="0" disallow="pedestrian tram rail_urban rail rail_electric rail_fast ship" speed="36.11" length="38.61" width="3.50" customShape="1" shape="86.59,211.72 84.48,230.91 82.36,250.10"/>
    </edge>
    <edge id="69684" from="44" to="43" priority="3" type="highway.residential" spreadType="center" length="5.76" shape="71.45,305.63 77.24,268.50">
        <lane id="69684_0" index="0" disallow="pedestrian tram rail_urban rail rail_electric rail_fast ship" speed="36.11" length="5.76" width="3.50" customShape="1" shape="75.34,293.02 75.51,290.14 75.68,287.27"/>
    </edge>
    <edge id="69685" from="43" to="44" priority="3" type="highway.residential" spreadType="center" length="5.77" shape="80.70,269.04 74.90,306.17">
        <lane id="69685_0" index="0" disallow="pedestrian tram rail_urban rail rail_electric rail_fast ship" speed="36.11" length="5.77" width="3.50" customShape="1" shape="79.17,287.48 79.01,290.35 78.84,293.24"/>
    </edge>
    <edge id="69761" from="42" to="41" priority="3" type="highway.residential" spreadType="center" length="45.50">
        <lane id="69761_0" index="0" disallow="pedestrian tram rail_urban rail rail_electric rail_fast ship" speed="36.11" length="45.50" width="3.50" customShape="1" shape="6.94,263.67 9.80,239.12 10.24,232.50 10.69,218.36"/>
    </edge>

    <junction id="12" type="dead_end" x="-78.16" y="240.38" incLanes="68992_0" intLanes="" shape="-78.32,242.12 -77.99,238.64" rightOfWay="edgePriority"/>
    <junction id="13" type="dead_end" x="66.67" y="189.34" incLanes="68996_0" intLanes="" shape="66.67,187.59 66.66,191.09" rightOfWay="edgePriority"/>
    <junction id="15" type="dead_end" x="83.11" y="211.35" incLanes="69681_0" intLanes="" shape="81.37,211.16 84.85,211.54" rightOfWay="edgePriority"/>
    <junction id="18" type="dead_end" x="-12.96" y="307.92" incLanes="" intLanes="" shape="-13.02,309.67 -12.91,306.17" rightOfWay="edgePriority"/>
    <junction id="25" type="dead_end" x="-13.03" y="311.42" incLanes="69629_0" intLanes="" shape="-13.09,313.17 -12.98,309.67" rightOfWay="edgePriority"/>
    <junction id="27" type="dead_end" x="86.59" y="211.72" incLanes="" intLanes="" shape="84.85,211.53 88.33,211.91" rightOfWay="edgePriority"/>
    <junction id="28" type="dead_end" x="-79.62" y="236.62" incLanes="" intLanes="" shape="-79.89,238.35 -79.34,234.89" rightOfWay="edgePriority"/>
    <junction id="3" type="dead_end" x="-15.58" y="266.70" incLanes="69208_0" intLanes="" shape="-15.61,268.45 -15.55,264.95" rightOfWay="edgePriority"/>
    <junction id="30" type="dead_end" x="66.59" y="192.84" incLanes="" intLanes="" shape="66.60,191.09 66.59,194.59" rightOfWay="edgePriority"/>
    <junction id="31" type="dead_end" x="141.83" y="270.25" incLanes="" intLanes="" shape="141.86,268.50 141.80,272.00" rightOfWay="edgePriority"/>
    <junction id="35" type="dead_end" x="71.94" y="396.78" incLanes="69068_0" intLanes="" shape="73.46,397.64 70.42,395.92" rightOfWay="edgePriority"/>
    <junction id="36" type="dead_end" x="184.41" y="310.85" incLanes="69622_0" intLanes="" shape="184.40,309.10 184.42,312.60" rightOfWay="edgePriority"/>
    <junction id="39" type="dead_end" x="68.08" y="396.61" incLanes="" intLanes="" shape="69.64,397.41 66.52,395.82" rightOfWay="edgePriority"/>
    <junction id="40" type="dead_end" x="184.41" y="314.35" incLanes="" intLanes="" shape="184.40,312.60 184.41,316.10" rightOfWay="edgePriority"/>
    <junction id="41" type="priority" x="5.41" y="215.96" incLanes="69761_0 68995_0 68993_0" intLanes=":41_0_0 :41_1_0 :41_2_0 :41_3_0" shape="8.94,218.31 12.44,218.42 12.78,216.34 13.65,214.32 15.05,212.38 16.99,210.51 19.47,208.71 22.48,206.99 19.28,200.77 -13.90,216.83 -11.06,223.23 -5.94,221.02 -1.20,219.15 2.91,217.78 6.13,217.07 8.23,217.19">
        <request index="0" response="0100" foes="0100" cont="0"/>
        <request index="1" response="1100" foes="1100" cont="0"/>
        <request index="2" response="0000" foes="0011" cont="0"/>
        <request index="3" response="0000" foes="0010" cont="0"/>
    </junction>
    <junction id="42" type="priority" x="7.90" y="261.38" incLanes="68965_0" intLanes=":42_0_0 :42_1_0" shape="9.91,268.90 10.01,265.40 9.19,265.21 8.93,265.00 8.75,264.70 8.67,264.32 8.68,263.87 5.21,263.46 4.92,264.47 4.67,264.82 4.35,265.07 3.96,265.21 3.49,265.26 3.44,268.76">
        <request index="0" response="00" foes="00" cont="0"/>
        <request index="1" response="00" foes="00" cont="0"/>
    </junction>
    <junction id="43" type="priority" x="78.97" y="268.77" incLanes="69425_0 69682_0 69684_0" intLanes=":43_0_0 :43_1_0 :43_2_0 :43_3_0 :43_4_0 :43_5_0 :43_6_0" shape="86.14,270.99 86.20,267.50 84.19,265.55 83.68,263.16 83.49,259.82 83.63,255.53 84.09,250.29 77.14,249.52 76.42,254.94 75.59,259.37 74.62,262.80 73.54,265.24 72.33,266.69 71.00,267.14 70.90,270.64 73.01,272.53 73.66,274.83 74.02,278.04 74.12,282.15 73.93,287.17 80.92,287.58 81.34,282.49 81.93,278.33 82.71,275.10 83.67,272.80 84.82,271.43">
        <request index="0" response="0001000" foes="0001000" cont="0"/>
        <request index="1" response="1111000" foes="1111000" cont="0"/>
        <request index="2" response="1011000" foes="1011000" cont="0"/>
        <request index="3" response="0000000" foes="0000111" cont="0"/>
        <request index="4" response="1100000" foes="1100110" cont="0"/>
        <request index="5" response="0000000" foes="0010010" cont="0"/>
        <request index="6" response="0000000" foes="0010110" cont="0"/>
    </junction>
    <junction id="44" type="priority" x="73.19" y="305.82" incLanes="69626_0 69685_0 69628_0" intLanes=":44_0_0 :44_1_0 :44_2_0 :44_3_0 :44_4_0 :44_5_0" shape="85.47,316.01 85.58,309.02 82.40,307.23 81.38,305.05 80.73,302.00 80.47,298.10 80.58,293.33 73.60,292.92 72.88,297.76 71.35,301.68 69.01,304.70 65.85,306.82 61.88,308.02 57.09,308.31 56.88,315.31">
        <request index="0" response="000000" foes="001000" cont="0"/>
        <request index="1" response="110000" foes="111000" cont="0"/>
        <request index="2" response="100000" foes="100000" cont="0"/>
        <request index="3" response="100011" foes="100011" cont="0"/>
        <request index="4" response="000000" foes="000010" cont="0"/>
        <request index="5" response="000000" foes="001110" cont="0"/>
    </junction>
    <junction id="45" type="priority" x="98.33" y="319.21" incLanes="69623_0 69625_0 69069_0" intLanes=":45_0_0 :45_1_0 :45_2_0 :45_3_0" shape="114.43,316.38 114.40,309.38 85.79,309.02 85.69,316.02 88.98,317.85 90.10,320.09 90.86,323.22 91.27,327.24 91.33,332.14 98.33,332.30 98.87,327.45 100.27,323.48 102.53,320.39 105.64,318.17 109.61,316.84">
        <request index="0" response="0000" foes="1100" cont="0"/>
        <request index="1" response="0000" foes="0000" cont="0"/>
        <request index="2" response="0001" foes="0001" cont="0"/>
        <request index="3" response="0001" foes="0001" cont="0"/>
    </junction>

    <connection from="68965" to="69208" fromLane="0" toLane="0" contPos="-4.00" shape="24.41,267.56 -8.25,266.82 -9.27,266.80" via=":42_0_0" dir="s" state="M"/>
    <connection from="68965" to="69761" fromLane="0" toLane="0" contPos="-4.00" shape="24.41,267.56 21.44,267.35 18.51,266.82 16.24,266.10 14.10,265.05 12.64,264.02 11.35,262.78 10.29,261.34 9.48,259.75 8.90,258.06 8.45,255.72 8.32,253.34 8.49,250.37 8.56,249.78" via=":42_1_0" dir="l" state="M"/>
    <connection from="68993" to="68996" fromLane="0" toLane="0" contPos="-4.00" shape="-13.21,218.44 2.63,211.08 14.61,205.17 20.08,202.32" via=":41_3_0" dir="s" state="M"/>
    <connection from="68995" to="68992" fromLane="0" toLane="0" contPos="-4.00" shape="21.72,205.41 16.21,208.29 4.15,214.23 -11.77,221.63" via=":41_2_0" dir="s" state="M"/>
    <connection from="69069" to="69626" fromLane="0" toLane="0" contPos="-4.00" shape="93.08,332.21 93.03,329.03 92.82,325.85 92.56,323.74 92.16,321.65 91.58,319.60 91.20,318.61 90.74,317.65 90.18,316.75 89.50,315.93 88.70,315.23 87.78,314.70 86.77,314.38 85.71,314.27" via=":45_3_0" dir="r" state="m"/>
    <connection from="69425" to="69685" fromLane="0" toLane="0" contPos="-4.00" shape="97.52,269.45 94.60,269.54 91.71,269.97 89.46,270.61 87.33,271.56 85.38,272.85 84.08,274.02 82.60,275.83 81.42,277.85 80.53,280.01 79.77,282.83 79.32,285.72 79.17,287.48" via=":43_0_0" dir="r" state="m"/>
    <connection from="69425" to="68965" fromLane="0" toLane="0" contPos="-4.00" shape="97.52,269.45 78.87,269.02 60.22,268.59" via=":43_1_0" dir="s" state="m"/>
    <connection from="69425" to="69681" fromLane="0" toLane="0" contPos="-4.00" shape="97.52,269.45 93.92,269.22 90.96,268.74 88.64,268.10 86.41,267.19 84.35,265.96 82.96,264.82 81.74,263.49 80.73,261.99 79.94,260.37 79.21,258.09 78.81,255.72 78.68,252.71 78.88,249.72" via=":43_2_0" dir="l" state="m"/>
    <connection from="69623" to="69626" fromLane="0" toLane="0" contPos="-4.00" shape="114.41,314.63 100.05,314.45 85.71,314.27" via=":45_0_0" dir="s" state="M"/>
    <connection from="69625" to="69622" fromLane="0" toLane="0" contPos="-4.00" shape="85.81,310.77 100.09,310.95 114.41,311.13" via=":45_1_0" dir="s" state="M"/>
    <connection from="69625" to="69068" fromLane="0" toLane="0" contPos="-4.00" shape="85.81,310.77 87.21,310.90 88.68,311.29 90.06,311.93 91.28,312.81 92.32,313.85 93.18,314.98 93.88,316.17 94.46,317.42 95.29,319.86 95.85,322.35 96.22,324.85 96.51,328.55 96.58,332.26" via=":45_2_0" dir="l" state="m"/>
    <connection from="69626" to="69629" fromLane="0" toLane="0" contPos="-4.00" shape="85.46,314.26 71.17,313.91 56.93,313.56" via=":44_0_0" dir="s" state="M"/>