<routes>
	<vehicle depart="0.1" departLane="0" departPos="34.025693246957296" departSpeed="0.0" id="314" type="bicycle">
		<route edges="183 180"/>
	</vehicle>
	<vehicle depart="0.1" departLane="0" departPos="25.362210718217433" departSpeed="0.0" id="315" type="bicycle">
		<route edges="460 187"/>
	</vehicle>
	<vehicle depart="0.1" departLane="0" departPos="12.4204308308643" departSpeed="4.2896643" id="333" type="bus">
		<route edges=":33_5 183 180"/>
	</vehicle>
	<vehicle depart="0.1" departLane="0" departPos="59.43999474610829" departSpeed="0.032226182" id="334" type="bus">
		<route edges="330 181"/>
	</vehicle>
	<vehicle depart="0.1" departLane="0" departPos="22.39551324046296" departSpeed="2.6937363e-05" id="34" type="passenger">
		<route edges="181 877"/>
	</vehicle>
	<vehicle depart="0.1" departLane="0" departPos="36.49968482506615" departSpeed="0.0" id="35" type="passenger">
		<route edges="181 877"/>
	</vehicle>
	<vehicle depart="0.1" departLane="0" departPos="29.350144634322483" departSpeed="0.0" id="36" type="passenger">
		<route edges="181 877"/>
	</vehicle>
	<vehicle depart="0.1" departLane="0" departPos="30.963556015750957" departSpeed="0.0" id="39" type="passenger">
		<route edges="460 187"/>
	</vehicle>
	<vehicle depart="0.1" departLane="0" departPos="34.23173400710025" departSpeed="0.0" id="316" type="passenger">
		<route edges="183 180"/>
	</vehicle>
	<vehicle depart="0.1" departLane="0" departPos="21.402605387160587" departSpeed="0.00011921934" id="317" type="passenger">
		<route edges="460 187"/>
	</vehicle>
	<vehicle depart="0.1" departLane="0" departPos="15.564709431404143" departSpeed="0.00025534685" id="318" type="passenger">
		<route edges="181 877"/>
	</vehicle>
	<vehicle depart="0.1" departLane="0" departPos="26.925523485256097" departSpeed="0.012945413" id="320" type="passenger">
		<route edges="183 180"/>
	</vehicle>
	<vehicle depart="0.1" departLane="0" departPos="8.445569675647913" departSpeed="0.001542439" id="321" type="passenger">
		<route edges="181 877"/>
	</vehicle>
	<vehicle depart="0.1" departLane="0" departPos="14.102136441634427" departSpeed="0.00085289003" id="323" type="passenger">
		<route edges="460 187"/>
	</vehicle>
	<vehicle depart="0.1" departLane="0" departPos="4.821396032430618" departSpeed="0.0" id="324" type="passenger">
		<route edges="328 331"/>
	</vehicle>
	<vehicle depart="0.1" departLane="0" departPos="17.044312833844025" departSpeed="9.9489516" id="325" type="passenger">
		<route edges="331"/>
	</vehicle>
	<vehicle depart="0.1" departLane="0" departPos="19.71434218084436" departSpeed="0.1184498" id="326" type="passenger">
		<route edges="183 180"/>
	</vehicle>
	<vehicle depart="0.1" departLane="0" departPos="20.94071952881197" departSpeed="3.0551622" id="332" type="passenger">
		<route edges="876 184"/>
	</vehicle>
	<vehicle depart="0.1" departLane="0" departPos="6.89482916918832" departSpeed="0.0037067496" id="335" type="passenger">
		<route edges="460 187"/>
	</vehicle>
	<vehicle depart="0.1" departLane="0" departPos="19.29188306355366" departSpeed="8.0649496" id="336" type="passenger">
		<route edges="184 187"/>
	</vehicle>
	<vehicle depart="0.1" departLane="0" departPos="28.874464869406065" departSpeed="3.6283141" id="337" type="passenger">
		<route edges="186 183"/>
	</vehicle>
	<vehicle depart="0.1" departLane="0" departPos="5.670243320911746" departSpeed="7.3514022" id="340" type="passenger">
		<route edges="184 187"/>
	</vehicle>
	<vehicle depart="0.1" departLane="0" departPos="44.218149524365174" departSpeed="0.7714051" id="341" type="passenger">
		<route edges="330 181"/>
	</vehicle>
	<vehicle depart="0.1" departLane="0" departPos="6.737308982855935" departSpeed="0.96363572" id="342" type="passenger">
		<route edges="876 184"/>
	</vehicle>
	<vehicle depart="0.1" departLane="0" departPos="11.997812305647606" departSpeed="2.5165195" id="343" type="passenger">
		<route edges="186 183"/>
	</vehicle>
	<vehicle depart="0.1" departLane="0" departPos="34.2384190451603" departSpeed="2.5070129" id="344" type="passenger">
		<route edges="330 181"/>
	</vehicle>
	<vehicle depart="0.1" departLane="0" departPos="23.25791122851901" departSpeed="3.5081299" id="345" type="passenger">
		<route edges="330 181"/>
	</vehicle>
	<vehicle depart="0.1" departLane="0" departPos="12.400937789715563" departSpeed="3.509182" id="347" type="passenger">
		<route edges="330 181"/>
	</vehicle>
	<vehicle depart="0.1" departLane="0" departPos="8.776618203286304" departSpeed="3.6055674" id="348" type="passenger">
		<route edges="879 877"/>
	</vehicle>
	<vehicle depart="0.1" departLane="0" departPos="64.11883201570024" departSpeed="0.0" id="310" type="motorcycle">
		<route edges="330 181"/>
	</vehicle>
	<vehicle depart="0.1" departLane="0" departPos="5.98080265167459" departSpeed="5.0115752" id="327" type="motorcycle">
		<route edges=":36_11 184 187"/>
	</vehicle>
	<vehicle depart="0.1" departLane="0" departPos="33.85343488626845" departSpeed="5.9488545" id="329" type="motorcycle">
		<route edges="184 187"/>
	</vehicle>
	<vehicle depart="0.1" departLane="0" departPos="12.316896452847173" departSpeed="1.8602934" id="338" type="motorcycle">
		<route edges="876 184"/>
	</vehicle>
	<vehicle depart="0.1" departLane="0" departPos="18.922742342003627" departSpeed="2.9430169" id="339" type="motorcycle">
		<route edges="186 183"/>
	</vehicle>
	<vehicle depart="0.1" departLane="0" departPos="40.56521031432966" departSpeed="0.0" id="30" type="truck">
		<route edges="460 187"/>
	</vehicle>
	<vehicle depart="0.1" departLane="0" departPos="16.36503004158699" departSpeed="0.0075017433" id="31" type="truck">
		<route edges=":34_3 181"/>
	</vehicle>
</routes>
