<routes>
	<vehicle depart="0.1" departLane="0" departPos="37.56167121221527" departSpeed="2.1230554" id="316" type="bicycle">
		<route edges=":29_5 8091 8797"/>
	</vehicle>
	<vehicle depart="0.1" departLane="0" departPos="28.060676749711597" departSpeed="0.0" id="36" type="passenger">
		<route edges=":29_6 8105"/>
	</vehicle>
	<vehicle depart="0.1" departLane="0" departPos="10.110541968615308" departSpeed="3.0282497" id="322" type="passenger">
		<route edges=":29_6 8105"/>
	</vehicle>
	<vehicle depart="0.1" departLane="0" departPos="8.689238952126326" departSpeed="0.27122423" id="324" type="passenger">
		<route edges=":29_1 8142"/>
	</vehicle>
	<vehicle depart="0.1" departLane="0" departPos="2.5" departSpeed="1.0334328" id="326" type="passenger">
		<route edges="8277 8105"/>
	</vehicle>
	<vehicle depart="0.1" departLane="0" departPos="20.948031783517337" departSpeed="2.1933915" id="328" type="passenger">
		<route edges="8106 8142"/>
	</vehicle>
	<vehicle depart="0.1" departLane="0" departPos="8.665178866215674" departSpeed="1.9867358" id="332" type="passenger">
		<route edges="8277 8091"/>
	</vehicle>
	<vehicle depart="0.1" departLane="0" departPos="37.342924359369206" departSpeed="1.8588817" id="38" type="motorcycle">
		<route edges=":29_6 8105"/>
	</vehicle>
	<vehicle depart="0.1" departLane="0" departPos="19.653194972252454" departSpeed="1.8130761" id="331" type="motorcycle">
		<route edges="8269 8105"/>
	</vehicle>
	<vehicle depart="0.1" departLane="0" departPos="15.484743802433842" departSpeed="1.0956638" id="334" type="motorcycle">
		<route edges=":30_0 8269"/>
	</vehicle>
</routes>
