<routes>
	<vehicle depart="0.1" departLane="0" departPos="107.58741422877094" departSpeed="0.0" id="30" type="passenger">
		<route edges="58 68 54"/>
	</vehicle>
	<vehicle depart="0.1" departLane="0" departPos="0" departSpeed="9.0392" id="36" type="passenger">
		<route edges="57"/>
	</vehicle>
	<vehicle depart="0.1" departLane="0" departPos="0" departSpeed="7.2397" id="312" type="passenger">
		<route edges="57"/>
	</vehicle>
	<vehicle depart="0.1" departLane="0" departPos="0" departSpeed="6.8355" id="313" type="passenger">
		<route edges="57"/>
	</vehicle>
	<vehicle depart="0.1" departLane="0" departPos="0" departSpeed="2.5914" id="318" type="passenger">
		<route edges="52"/>
	</vehicle>
	<vehicle depart="0.1" departLane="0" departPos="0" departSpeed="7.6389" id="323" type="passenger">
		<route edges="67 54"/>
	</vehicle>
	<vehicle depart="0.1" departLane="0" departPos="0" departSpeed="2.5834" id="324" type="passenger">
		<route edges="52"/>
	</vehicle>
	<vehicle depart="0.1" departLane="0" departPos="48.97314852347272" departSpeed="6.462" id="325" type="passenger">
		<route edges="56 61 57"/>
	</vehicle>
	<vehicle depart="0.1" departLane="0" departPos="36.89471861231722" departSpeed="5.4606" id="327" type="passenger">
		<route edges="56 67 54"/>
	</vehicle>
	<vehicle depart="0.1" departLane="0" departPos="0" departSpeed="4.4215" id="328" type="passenger">
		<route edges="56 67 54"/>
	</vehicle>
	<vehicle depart="0.1" departLane="0" departPos="110.18013450048934" departSpeed="8.3104" id="329" type="passenger">
		<route edges="57"/>
	</vehicle>
	<vehicle depart="0.1" departLane="0" departPos="86.30547336312479" departSpeed="8.2792" id="330" type="passenger">
		<route edges="57"/>
	</vehicle>
	<vehicle depart="0.1" departLane="0" departPos="65.33292005342389" departSpeed="7.978" id="331" type="passenger">
		<route edges="57"/>
	</vehicle>
	<vehicle depart="0.1" departLane="0" departPos="0" departSpeed="7.9645" id="332" type="passenger">
		<route edges="57"/>
	</vehicle>
	<vehicle depart="0.1" departLane="0" departPos="0" departSpeed="4.2801" id="333" type="passenger">
		<route edges="56 61 57"/>
	</vehicle>
	<vehicle depart="0.1" departLane="0" departPos="0" departSpeed="0.0378" id="334" type="passenger">
		<route edges="58 71 55 64 52"/>
	</vehicle>
</routes>
