<routes>
	<vehicle depart="0.1" departLane="0" departPos="27.912567257100036" departSpeed="0.45680727" id="31" type="passenger">
		<route edges=":66_3 45084"/>
	</vehicle>
	<vehicle depart="0.1" departLane="0" departPos="19.024820323036327" departSpeed="18.405016" id="343" type="passenger">
		<route edges="45086 45083"/>
	</vehicle>
	<vehicle depart="0.1" departLane="0" departPos="2.5" departSpeed="10.58289" id="353" type="passenger">
		<route edges="45084 45087"/>
	</vehicle>
	<vehicle depart="0.1" departLane="0" departPos="33.40126237939336" departSpeed="0.074835244" id="356" type="passenger">
		<route edges=":66_1 44960"/>
	</vehicle>
	<vehicle depart="0.1" departLane="0" departPos="18.49666680511527" departSpeed="1.6846746" id="361" type="passenger">
		<route edges=":66_1 44960"/>
	</vehicle>
	<vehicle depart="0.1" departLane="0" departPos="18.328709004883216" departSpeed="2.8278087" id="364" type="passenger">
		<route edges="45081 44960"/>
	</vehicle>
</routes>
