<routes>
	<vehicle depart="0.1" departLane="1" departPos="158.60387231619262" departSpeed="0.0" id="30" type="passenger">
		<route edges="475 485 483 469"/>
	</vehicle>
	<vehicle depart="0.1" departLane="0" departPos="254.01978985141983" departSpeed="6.6557" id="31" type="passenger">
		<route edges="468 487 473"/>
	</vehicle>
	<vehicle depart="0.1" departLane="1" departPos="135.12768631780904" departSpeed="0.0207" id="32" type="passenger">
		<route edges="475 483 469"/>
	</vehicle>
	<vehicle depart="0.1" departLane="0" departPos="142.97816030000573" departSpeed="0.0059" id="33" type="passenger">
		<route edges="475 485 473"/>
	</vehicle>
	<vehicle depart="0.1" departLane="1" departPos="104.00520303729652" departSpeed="0.0" id="34" type="passenger">
		<route edges="470 480 476"/>
	</vehicle>
	<vehicle depart="0.1" departLane="0" departPos="86.11696165558021" departSpeed="0.0021" id="35" type="passenger">
		<route edges="470 478 469"/>
	</vehicle>
	<vehicle depart="0.1" departLane="0" departPos="47.36261623492517" departSpeed="16.6123" id="36" type="passenger">
		<route edges="473"/>
	</vehicle>
	<vehicle depart="0.1" departLane="0" departPos="134.21761244416118" departSpeed="1.1934" id="38" type="passenger">
		<route edges="475 485 486 482 476"/>
	</vehicle>
	<vehicle depart="0.1" departLane="0" departPos="124.34405159634515" departSpeed="2.0729" id="39" type="passenger">
		<route edges="475 485 486 476"/>
	</vehicle>
	<vehicle depart="0.1" departLane="1" departPos="125.9760877051333" departSpeed="1.536" id="310" type="passenger">
		<route edges="475 483 469"/>
	</vehicle>
	<vehicle depart="0.1" departLane="0" departPos="12.318548675855434" departSpeed="11.0897" id="311" type="passenger">
		<route edges="473"/>
	</vehicle>
	<vehicle depart="0.1" departLane="1" departPos="93.82109167627617" departSpeed="0.0001" id="312" type="passenger">
		<route edges="470 480 476"/>
	</vehicle>
	<vehicle depart="0.1" departLane="0" departPos="71.0489892713321" departSpeed="0.0714" id="313" type="passenger">
		<route edges="470 478 469"/>
	</vehicle>
	<vehicle depart="0.1" departLane="0" departPos="0" departSpeed="14.9609" id="314" type="passenger">
		<route edges="469"/>
	</vehicle>
	<vehicle depart="0.1" departLane="0" departPos="78.61011838605069" departSpeed="0.0154" id="315" type="passenger">
		<route edges="470 478 469"/>
	</vehicle>
	<vehicle depart="0.1" departLane="1" departPos="142.63965201317353" departSpeed="0.0027" id="317" type="passenger">
		<route edges="475 483 469"/>
	</vehicle>
	<vehicle depart="0.1" departLane="0" departPos="209.03096825626747" departSpeed="11.5115" id="318" type="passenger">
		<route edges="468 487 473"/>
	</vehicle>
	<vehicle depart="0.1" departLane="0" departPos="63.310414974286765" departSpeed="0.249" id="319" type="passenger">
		<route edges="470 478 469"/>
	</vehicle>
	<vehicle depart="0.1" departLane="1" departPos="150.1649324068215" departSpeed="0.0002" id="320" type="passenger">
		<route edges="475 485 483 469"/>
	</vehicle>
	<vehicle depart="0.1" departLane="0" departPos="155.97416121511938" departSpeed="11.8202" id="321" type="passenger">
		<route edges="468 487 473"/>
	</vehicle>
	<vehicle depart="0.1" departLane="1" departPos="115.0869672429687" departSpeed="2.85" id="322" type="passenger">
		<route edges="475 483 469"/>
	</vehicle>
	<vehicle depart="0.1" departLane="0" departPos="124.30235954379023" departSpeed="0.0001" id="323" type="passenger">
		<route edges="477 479 469"/>
	</vehicle>
	<vehicle depart="0.1" departLane="1" departPos="65.00216168103191" departSpeed="6.4539" id="324" type="passenger">
		<route edges="470 480 476"/>
	</vehicle>
	<vehicle depart="0.1" departLane="0" departPos="103.41751081174637" departSpeed="4.7428" id="325" type="passenger">
		<route edges="475 485 486 476"/>
	</vehicle>
	<vehicle depart="0.1" departLane="0" departPos="136.28345120185435" departSpeed="11.9467" id="326" type="passenger">
		<route edges="468 487 473"/>
	</vehicle>
	<vehicle depart="0.1" departLane="0" departPos="109.28889157392607" departSpeed="3.7148" id="327" type="passenger">
		<route edges="477 479 469"/>
	</vehicle>
	<vehicle depart="0.1" departLane="0" departPos="90.06835977521723" departSpeed="5.1139" id="328" type="passenger">
		<route edges="475 485 473"/>
	</vehicle>
	<vehicle depart="0.1" departLane="0" departPos="0" departSpeed="11.8127" id="329" type="passenger">
		<route edges="468 487 473"/>
	</vehicle>
	<vehicle depart="0.1" departLane="1" departPos="52.66342356085287" departSpeed="5.5817" id="330" type="passenger">
		<route edges="470 480 476"/>
	</vehicle>
	<vehicle depart="0.1" departLane="0" departPos="94.35867811202034" departSpeed="5.7291" id="331" type="passenger">
		<route edges="477 479 469"/>
	</vehicle>
	<vehicle depart="0.1" departLane="1" departPos="75.83982198876078" departSpeed="5.7911" id="332" type="passenger">
		<route edges="475 483 469"/>
	</vehicle>
	<vehicle depart="0.1" departLane="0" departPos="0" departSpeed="11.992" id="333" type="passenger">
		<route edges="468 487 473"/>
	</vehicle>
	<vehicle depart="0.1" departLane="0" departPos="40.62574031718251" departSpeed="4.8878" id="334" type="passenger">
		<route edges="470 478 469"/>
	</vehicle>
	<vehicle depart="0.1" departLane="0" departPos="0" departSpeed="8.0284" id="335" type="passenger">
		<route edges="477 479 469"/>
	</vehicle>
	<vehicle depart="0.1" departLane="1" departPos="60.850378458665766" departSpeed="5.4117" id="336" type="passenger">
		<route edges="475 483 469"/>
	</vehicle>
	<vehicle depart="0.1" departLane="0" departPos="0" departSpeed="12.0967" id="337" type="passenger">
		<route edges="468 487 473"/>
	</vehicle>
	<vehicle depart="0.1" departLane="1" departPos="28.947037282297128" departSpeed="4.338" id="338" type="passenger">
		<route edges="470 480 476"/>
	</vehicle>
	<vehicle depart="0.1" departLane="0" departPos="0" departSpeed="9.047" id="339" type="passenger">
		<route edges="477 479 469"/>
	</vehicle>
	<vehicle depart="0.1" departLane="1" departPos="46.45649381310268" departSpeed="5.949" id="340" type="passenger">
		<route edges="475 483 469"/>
	</vehicle>
	<vehicle depart="0.1" departLane="0" departPos="0" departSpeed="12.1562" id="341" type="passenger">
		<route edges="468 487 473"/>
	</vehicle>
	<vehicle depart="0.1" departLane="1" departPos="0" departSpeed="6.2785" id="342" type="passenger">
		<route edges="475 475 485 473"/>
	</vehicle>
	<vehicle depart="0.1" departLane="0" departPos="68.0372740743618" departSpeed="8.1895" id="343" type="passenger">
		<route edges="475 475 483 469"/>
	</vehicle>
	<vehicle depart="0.1" departLane="0" departPos="0" departSpeed="9.3546" id="344" type="passenger">
		<route edges="477 479 469"/>
	</vehicle>
	<vehicle depart="0.1" departLane="1" departPos="0" departSpeed="3.8765" id="345" type="passenger">
		<route edges="470 470 478 469"/>
	</vehicle>
	<vehicle depart="0.1" departLane="0" departPos="0" departSpeed="10.5565" id="346" type="passenger">
		<route edges="468 487 473"/>
	</vehicle>
	<vehicle depart="0.1" departLane="0" departPos="0" departSpeed="9.1905" id="347" type="passenger">
		<route edges="477 479 469"/>
	</vehicle>
	<vehicle depart="0.1" departLane="1" departPos="0" departSpeed="5.8129" id="348" type="passenger">
		<route edges="475 483 469"/>
	</vehicle>
	<vehicle depart="0.1" departLane="0" departPos="0" departSpeed="7.6421" id="349" type="passenger">
		<route edges="468 487 473"/>
	</vehicle>
	<vehicle depart="0.1" departLane="1" departPos="0" departSpeed="3.1375" id="350" type="passenger">
		<route edges="470 470 478 469"/>
	</vehicle>
	<vehicle depart="0.1" departLane="0" departPos="0" departSpeed="3.119" id="351" type="passenger">
		<route edges="470 478 469"/>
	</vehicle>
	<vehicle depart="0.1" departLane="0" departPos="0" departSpeed="6.4731" id="352" type="passenger">
		<route edges="477 479 469"/>
	</vehicle>
	<vehicle depart="0.1" departLane="1" departPos="0" departSpeed="4.6038" id="353" type="passenger">
		<route edges="475 483 469"/>
	</vehicle>
	<vehicle depart="0.1" departLane="0" departPos="0" departSpeed="7.5511" id="354" type="passenger">
		<route edges="475 485 473"/>
	</vehicle>
	<vehicle depart="0.1" departLane="0" departPos="0" departSpeed="4.5343" id="355" type="passenger">
		<route edges="468 487 473"/>
	</vehicle>
	<vehicle depart="0.1" departLane="0" departPos="0" departSpeed="5.1404" id="356" type="passenger">
		<route edges="475 485 473"/>
	</vehicle>
	<vehicle depart="0.1" departLane="0" departPos="0" departSpeed="3.0932" id="357" type="passenger">
		<route edges="477 479 469"/>
	</vehicle>
</routes>
