<routes>
	<vehicle depart="0.1" departLane="0" departPos="16.77870872287219" departSpeed="1.2806645" id="315" type="passenger">
		<route edges=":108_0 59144"/>
	</vehicle>
	<vehicle depart="0.1" departLane="0" departPos="14.019447221286391" departSpeed="0.0" id="328" type="passenger">
		<route edges=":101_1 60396"/>
	</vehicle>
	<vehicle depart="0.1" departLane="0" departPos="22.393695974674795" departSpeed="1.2023087" id="337" type="passenger">
		<route edges="60402 59144"/>
	</vehicle>
	<vehicle depart="0.1" departLane="0" departPos="15.637363171995489" departSpeed="0.89261916" id="343" type="passenger">
		<route edges="60402 59144"/>
	</vehicle>
	<vehicle depart="0.1" departLane="0" departPos="6.47383325936517" departSpeed="0.915551" id="347" type="passenger">
		<route edges="60402 59144"/>
	</vehicle>
	<vehicle depart="0.1" departLane="0" departPos="24.8808138430021" departSpeed="1.237786" id="354" type="passenger">
		<route edges="65293 60402 59144"/>
	</vehicle>
	<vehicle depart="0.1" departLane="0" departPos="11.490636601585065" departSpeed="0.96552358" id="362" type="passenger">
		<route edges="65293 60402"/>
	</vehicle>
	<vehicle depart="0.1" departLane="0" departPos="8.108909568941083" departSpeed="2.3021555" id="319" type="motorcycle">
		<route edges=":108_0 59144"/>
	</vehicle>
	<vehicle depart="0.1" departLane="0" departPos="1.25" departSpeed="1.0082368" id="329" type="motorcycle">
		<route edges=":108_0 59144"/>
	</vehicle>
	<vehicle depart="0.1" departLane="0" departPos="30.895742790977714" departSpeed="0.0076129044" id="31" type="truck">
		<route edges=":108_1 60399"/>
	</vehicle>
</routes>
