<routes>
	<vehicle depart="0.1" departLane="0" departPos="15.653843458515675" departSpeed="3.5180759" id="312" type="bicycle">
		<route edges=":30_2 8269"/>
	</vehicle>
	<vehicle depart="0.1" departLane="0" departPos="4.84638243488152" departSpeed="1.3912543" id="30" type="passenger">
		<route edges=":30_2 8269"/>
	</vehicle>
	<vehicle depart="0.1" departLane="0" departPos="62.50589940030842" departSpeed="0.93419495" id="318" type="passenger">
		<route edges="8198 8269"/>
	</vehicle>
	<vehicle depart="0.1" departLane="0" departPos="53.88463998358991" departSpeed="0.35586041" id="321" type="passenger">
		<route edges="8198 8269"/>
	</vehicle>
	<vehicle depart="0.1" departLane="0" departPos="2.5" departSpeed="9.529427" id="341" type="passenger">
		<route edges=":29_1 8142"/>
	</vehicle>
	<vehicle depart="0.1" departLane="0" departPos="16.098588054910344" departSpeed="7.6033642" id="342" type="passenger">
		<route edges="8269 8091"/>
	</vehicle>
	<vehicle depart="0.1" departLane="0" departPos="2.5" departSpeed="9.5028109" id="349" type="passenger">
		<route edges="8269 8105"/>
	</vehicle>
	<vehicle depart="0.1" departLane="0" departPos="28.428757578633537" departSpeed="7.1938337" id="351" type="passenger">
		<route edges=":30_0 8269 8105"/>
	</vehicle>
	<vehicle depart="0.1" departLane="0" departPos="22.50701811329619" departSpeed="10.921318" id="357" type="passenger">
		<route edges="8267 8269"/>
	</vehicle>
	<vehicle depart="0.1" departLane="0" departPos="6.348426154944391" departSpeed="12.023653" id="336" type="motorcycle">
		<route edges=":29_2 8091 8797"/>
	</vehicle>
</routes>
