<!-- generated on 2020-12-18 15:54:01.541887 by ipykernel_launcher.py v1_2_0+5214-53edc58fcd
-->
<edges>
	<edge from="1" function="normal" id="14" length="236.57581404212362" numLanes="5" priority="1" speed="36.11111111111111" spreadType="center" to="2">
		<lane allow="moped bicycle pedestrian custom1 trailer evehicle rail_urban ship private truck vip custom2 authority delivery rail_electric taxi tram army hov coach motorcycle passenger rail emergency" index="0" length="236.57581404212362" shape="-51.819,32.68675 -45.276250000000005,26.9238 -43.98655,25.79795 -42.3184,24.33685 -34.251,17.27855 -31.267400000000002,14.665 -29.6996,13.2894 -29.67795,13.2706 -23.2712,7.70375 -20.278,5.1073 -17.11675,2.36075 -12.49335,-1.6842 -9.5135,-4.2872 -9.5008,-4.298349999999999 -1.86195,-11.0008 1.1099999999999999,-13.5969 3.3217,-15.522099999999998 8.89275,-20.3932 8.916,-20.41375 11.8808,-23.01515 11.9118,-23.042749999999998 20.111600000000003,-30.328049999999998 23.062800000000003,-32.91785 24.9693,-34.585049999999995 24.9998,-34.6115 30.782000000000004,-39.62665 30.7946,-39.63765 33.781400000000005,-42.237449999999995 41.652699999999996,-49.058949999999996 41.667699999999996,-49.072 43.2423,-50.44255 44.672650000000004,-51.679249999999996 52.77955,-58.78205 55.7769,-61.373599999999996 59.82785,-64.898 63.5878,-68.2001 66.56165,-70.7959 69.5918,-73.4383 69.61185,-73.4556 74.8815,-78.00785 77.87885,-80.59955 79.2833,-81.78174999999999 79.3472,-81.8343 83.2366,-85.0308 85.9211,-87.25305 88.93844999999999,-89.8204 96.89695,-96.28790000000001 96.9953,-96.37180000000001 98.22935,-97.41935000000001 100.01205,-98.9171 108.39355,-105.66364999999999 108.42025000000001,-105.6854 109.81505,-106.81705 111.58765,-108.19655 120.57655,-114.92385 121.32495,-115.5087 123.6583,-117.3597 128.70260000000002,-121.25569999999999" speed="36.11111111111111" width="3.5073943847249343"/>
		<lane allow="moped bicycle pedestrian custom1 trailer evehicle rail_urban ship private vip custom2 authority delivery rail_electric taxi tram army hov coach motorcycle passenger rail emergency" index="1" length="236.57581404212362" shape="-49.56655000000001,35.33065 -42.99915,29.544 -42.983000000000004,29.52995 -42.8977,29.455399999999997 -40.0031,26.939149999999998 -39.904399999999995,26.853450000000002 -31.90805,19.9005 -31.55695,19.59485 -28.9197,17.3023 -28.568800000000003,16.996850000000002 -20.979,10.32105 -20.88465,10.23835 -18.001399999999997,7.731999999999999 -17.90005,7.643700000000001 -10.20935,1.0799 -8.97425,0.028000000000000025 -8.92165,-0.017750000000000044 -7.12515,-1.5785500000000001 -5.9382,-2.61495 0.49825,-8.3573 1.49415,-9.24135 3.45205,-10.9433 4.4908,-11.843 11.251650000000001,-17.8358 12.6328,-19.06375 14.2015,-20.4274 15.57205,-21.63355 22.39745,-27.5688 22.4438,-27.6084 23.71835,-28.7035 23.74995,-28.7309 25.472099999999998,-30.2277 26.7474,-31.332250000000002 33.177,-36.90815 34.7518,-38.278800000000004 36.165049999999994,-39.5073 37.750699999999995,-40.87965 44.052400000000006,-46.3397 46.07925,-48.10355 47.040549999999996,-48.9392 49.009299999999996,-50.673199999999994 49.041250000000005,-50.701750000000004 55.1107,-56.11725 56.80265,-57.607 58.07585,-58.71375 59.76585,-60.19185 59.783550000000005,-60.20755 65.88535,-65.58895000000001 67.84765,-67.30895000000001 68.8586,-68.18775 70.84004999999999,-69.9086 77.14605,-75.39035 78.72704999999999,-76.766 80.13470000000001,-77.9897 81.7693,-79.37155 88.09415,-84.4724 90.6013,-86.54715 90.71289999999999,-86.64330000000001 91.2364,-87.09425 91.31035,-87.1536 93.8252,-89.24205 99.24355,-93.57355 102.18195,-96.03325000000001 102.28885,-96.11895 110.7073,-102.86805000000001 113.36405,-105.01425 113.79225,-105.361 116.54225,-107.4992 122.67715,-112.03995 124.80385000000001,-113.67580000000001 124.92525,-113.7735 125.87975,-114.5419 125.92355,-114.57575 128.07240000000002,-116.2698 130.87435,-118.41114999999999" speed="36.11111111111111" width="3.1182990876437753"/>
		<lane allow="moped bicycle pedestrian custom1 trailer evehicle rail_urban ship private truck vip custom2 authority delivery rail_electric taxi tram army hov coach motorcycle passenger rail emergency" index="2" length="236.57581404212362" shape="-47.414,37.85735 -45.1832,35.94345 -45.1352,35.9015 -42.14425,33.2906 -40.668949999999995,31.9867 -37.694199999999995,29.369500000000002 -33.75815,25.901600000000002 -30.7731,23.30295 -29.391849999999998,22.102 -26.3962,19.5013 -23.03605,16.55465 -20.0559,13.9378 -18.73355,12.7787 -18.706049999999998,12.754850000000001 -15.71055,10.1558 -11.5718,6.6366 -8.5562,4.06715 -6.7296499999999995,2.5267999999999997 -3.7508,-0.03609999999999991 -0.5726,-2.82845 -0.52155,-2.87425 2.41365,-5.48005 2.4568,-5.51895 3.7486499999999996,-6.6812000000000005 6.72225,-9.301 10.631599999999999,-12.825 13.5561,-15.426449999999999 13.5974,-15.4637 14.79045,-16.534599999999998 14.8385,-16.5766 17.8039,-19.18 21.81065,-22.65295 24.816650000000003,-25.234099999999998 25.94965,-26.21125 28.9348,-28.81695 33.14065,-32.49275 36.12945,-35.0942 36.9246,-35.78905 39.9099,-38.39445 43.880700000000004,-41.8638 46.8697,-44.465 48.224149999999995,-45.650850000000005 51.2068,-48.25925 54.81145,-51.4525 57.769999999999996,-54.057900000000004 58.93755,-55.086200000000005 58.969449999999995,-55.11395 61.95975,-57.7137 65.9711,-61.229749999999996 68.9506,-63.8414 69.97794999999999,-64.73295 70.0127,-64.7627 73.00245000000001,-67.33445 77.36195000000001,-71.08709999999999 77.39125,-71.1126 80.3794,-73.7123 80.94095,-74.20005 83.94085,-76.80324999999999 88.74175,-80.7735 91.78975,-83.3002 92.7667,-84.0573 95.71135000000001,-86.44905 95.8464,-86.55385 100.0212,-89.82495 103.0601,-92.36875 111.55675,-99.13374999999999 114.5935,-101.67585 115.39595,-102.30655 118.5002,-104.74945 118.60525,-104.82775000000001 123.13245,-108.2202 126.26925,-110.63765000000001 126.97040000000001,-111.1542 129.98610000000002,-113.4897 130.0836,-113.5627 132.9387,-115.7074" speed="36.11111111111111" width="3.0768356943457293"/>
		<lane allow="moped bicycle pedestrian custom1 trailer evehicle rail_urban ship private vip custom2 authority delivery rail_electric taxi tram army hov coach motorcycle passenger rail emergency" index="3" length="236.57581404212362" shape="-45.263,40.38215 -42.94585,38.422399999999996 -42.8234,38.317099999999996 -42.79815,38.2952 -39.94215,35.8127 -39.8534,35.734750000000005 -39.8327,35.716499999999996 -31.7668,28.5882 -31.600499999999997,28.4417 -31.57025,28.415300000000002 -28.7427,25.95705 -28.56695,25.80255 -20.815350000000002,19.00125 -20.60285,18.814700000000002 -17.83905,16.41215 -17.6097,16.2132 -9.4583,9.2332 -9.4351,9.213149999999999 -9.4085,9.1902 -6.4416,6.61125 -6.3976500000000005,6.5725999999999996 1.48295,-0.27369999999999994 1.6835,-0.44634999999999997 4.46175,-2.8614499999999996 4.68585,-3.0585500000000003 12.56345,-10.074 12.8445,-10.321850000000001 12.876850000000001,-10.34995 15.57465,-12.69555 15.8512,-12.93485 23.69295,-19.78565 23.7159,-19.80585 23.998649999999998,-20.0539 24.023600000000002,-20.0756 26.7301,-22.42855 27.01555,-22.676949999999998 34.7027,-29.3954 35.3364,-29.9485 35.346999999999994,-29.9577 37.7047,-32.0073 38.3499,-32.5754 46.050200000000004,-39.3799 49.036150000000006,-41.97555 57.0124,-48.920100000000005 57.043049999999994,-48.94665 57.0596,-48.9611 60.0357,-51.5481 60.0501,-51.5607 67.98355000000001,-58.5338 68.20355,-58.725049999999996 70.974,-61.13335 71.1632,-61.296499999999995 71.18719999999999,-61.317 79.12265,-68.08475000000001 79.6406,-68.53035 82.1022,-70.67015 82.59245000000001,-71.09185 90.5077,-77.88525 90.53255,-77.9068 90.8737,-78.20259999999999 93.5197,-80.50280000000001 93.6265,-80.59565 93.82695,-80.7507 102.13675,-87.1688 105.1842,-89.81305 113.67095,-96.44205 113.7071,-96.4711 116.5837,-98.88295 116.76304999999999,-99.02715 125.18090000000001,-105.49995 125.30305,-105.59594999999999 125.36484999999999,-105.64595 128.2928,-108.0158 128.5081,-108.18045000000001 134.97390000000001,-113.04175000000001" speed="36.11111111111111" width="3.2326036719647524"/>
		<lane allow="moped bicycle pedestrian custom1 trailer evehicle rail_urban ship private vip custom2 authority delivery rail_electric taxi tram army hov coach motorcycle passenger rail emergency" index="4" length="236.57581404212362" shape="-43.03435,42.99815 -40.56295,40.892700000000005 -40.1836,40.56635 -40.1575,40.54365 -37.5577,38.28395 -37.18515,37.958600000000004 -37.17345,37.948350000000005 -29.4486,31.1725 -29.0644,30.83705 -26.46475,28.577199999999998 -26.11695,28.2718 -26.089599999999997,28.247500000000002 -18.35125,21.37705 -17.97585,21.04735 -15.3762,18.78755 -14.96605,18.4358 -7.17675,11.8396 -6.800800000000001,11.51725 -6.7669999999999995,11.48785 -4.1671,9.22825 -3.8158000000000003,8.91995 -3.7905499999999996,8.89755 3.6910000000000003,2.26595 4.0675,1.93545 6.6672,-0.32435 7.01425,-0.6292 7.04205,-0.6538999999999999 14.815449999999998,-7.5579 15.190549999999998,-7.88735 17.79025,-10.14725 18.18775,-10.4912 25.99805,-17.2192 26.383699999999997,-17.5529 26.3955,-17.56315 28.995199999999997,-19.823 29.3809,-20.158700000000003 36.99165,-26.79125 37.3806,-27.12975 39.98025,-29.38965 40.32045,-29.6889 40.3526,-29.71755 48.31645,-36.81465 48.689099999999996,-37.14245 51.28875,-39.40235 51.68615,-39.7462 59.33285,-46.3344 59.718599999999995,-46.6682 59.730149999999995,-46.678250000000006 62.3298,-48.9381 62.6757,-49.24195 62.7043,-49.26735 70.24135,-55.96554999999999 70.61605,-56.29475 73.2157,-58.554550000000006 73.6189,-58.90205 81.33155,-65.49485000000001 81.71285,-65.82345 81.7346,-65.84235000000001 84.33435,-68.10215 84.7415,-68.45205 92.77860000000001,-75.28695 93.15690000000001,-75.6121 93.1853,-75.6368 95.7851,-77.8965 96.25385,-78.28059999999999 104.32735,-84.6088 104.65950000000001,-84.88015 104.78985,-84.99315 107.3923,-87.2498 107.8723,-87.64065 115.79945000000001,-93.7885 116.27199999999999,-94.16255 116.32805,-94.2079 118.91114999999999,-96.29865000000001 119.44505000000001,-96.72025 127.50455,-102.94095 127.97444999999999,-103.31190000000001 128.0366,-103.3622 130.6198,-105.4528 131.16219999999998,-105.87845 137.02530000000002,-110.35485" speed="36.11111111111111" width="3.4476868955866675"/>
	</edge>
</edges>
