<routes>
	<vehicle depart="0.1" departLane="0" departPos="41.83046310637017" departSpeed="3.1913336" id="332" type="bicycle">
		<route edges="12130 12133"/>
	</vehicle>
	<vehicle depart="0.1" departLane="0" departPos="27.70825598967767" departSpeed="0.0" id="36" type="passenger">
		<route edges="12647 12994"/>
	</vehicle>
	<vehicle depart="0.1" departLane="0" departPos="20.615549207956633" departSpeed="0.0" id="38" type="passenger">
		<route edges="12647 12994"/>
	</vehicle>
	<vehicle depart="0.1" departLane="0" departPos="56.54974593381638" departSpeed="3.0672516" id="310" type="passenger">
		<route edges="12132 12129"/>
	</vehicle>
	<vehicle depart="0.1" departLane="0" departPos="12.67644621503961" departSpeed="2.4382259" id="325" type="passenger">
		<route edges="12132 12129"/>
	</vehicle>
	<vehicle depart="0.1" departLane="0" departPos="2.5" departSpeed="1.8427997" id="330" type="passenger">
		<route edges=":48_6 12994"/>
	</vehicle>
	<vehicle depart="0.1" departLane="0" departPos="41.02581074103406" departSpeed="4.1249353" id="338" type="passenger">
		<route edges="12130 12994"/>
	</vehicle>
	<vehicle depart="0.1" departLane="0" departPos="30.27045356874413" departSpeed="2.5448935" id="340" type="passenger">
		<route edges="12130 12994"/>
	</vehicle>
	<vehicle depart="0.1" departLane="0" departPos="7.932031607027869" departSpeed="1.5274919" id="32" type="truck">
		<route edges=":48_0 12994"/>
	</vehicle>
</routes>
