<!-- generated on Tue Feb  9 22:10:04 2021 by Eclipse SUMO netconvert Version 1.8.0
<configuration xmlns:xsi="http://www.w3.org/2001/XMLSchema-instance" xsi:noNamespaceSchemaLocation="http://sumo.dlr.de/xsd/netconvertConfiguration.xsd">

    <input>
        <node-files value="./converted_scenarios/scenario-factory/HRV_Pula-16_2_I-1-1/HRV_Pula-16_2_I-1-1.nod.xml"/>
        <edge-files value="./converted_scenarios/scenario-factory/HRV_Pula-16_2_I-1-1/HRV_Pula-16_2_I-1-1.edg.xml"/>
        <connection-files value="./converted_scenarios/scenario-factory/HRV_Pula-16_2_I-1-1/HRV_Pula-16_2_I-1-1.con.xml"/>
        <tllogic-files value="./converted_scenarios/scenario-factory/HRV_Pula-16_2_I-1-1/HRV_Pula-16_2_I-1-1.tll.xml"/>
        <type-files value="/home/zen/commonroad-interactive-benchmarks/install/commonroad-map-tool/crmapconverter/sumo_map/templates/DEU.typ.xml"/>
    </input>

    <output>
        <output-file value="./converted_scenarios/scenario-factory/HRV_Pula-16_2_I-1-1/HRV_Pula-16_2_I-1-1.net.xml"/>
    </output>

    <processing>
        <geometry.remove.keep-edges.explicit value="true"/>
        <geometry.avoid-overlap value="true"/>
        <offset.disable-normalization value="true"/>
    </processing>

    <junctions>
        <no-turnarounds value="true"/>
        <junctions.internal-link-detail value="20"/>
    </junctions>

    <report>
        <aggregate-warnings value="5"/>
    </report>

    <random_number>
        <seed value="1234"/>
    </random_number>

</configuration>
--><net xmlns:xsi="http://www.w3.org/2001/XMLSchema-instance" version="1.6" junctionCornerDetail="5" junctionLinkDetail="20" limitTurnSpeed="5.50" xsi:noNamespaceSchemaLocation="http://sumo.dlr.de/xsd/net_file.xsd">

    <location netOffset="0.00,0.00" convBoundary="307.15,-25.76,479.30,206.11" origBoundary="307.15,-25.76,479.30,206.11" projParameter="!"/>

    <type id="highway.bridleway" priority="1" speed="2.78" allow="pedestrian" oneway="1" width="2.00"/>
    <type id="highway.bus_guideway" priority="1" speed="27.78" allow="bus" oneway="1"/>
    <type id="highway.cycleway" priority="1" speed="8.33" allow="bicycle" oneway="0" width="1.00"/>
    <type id="highway.footway" priority="1" speed="2.78" allow="pedestrian" oneway="1" width="2.00"/>
    <type id="highway.ford" priority="1" speed="2.78" allow="army" oneway="0"/>
    <type id="highway.living_street" priority="2" speed="2.78" disallow="tram rail_urban rail rail_electric rail_fast ship" oneway="0"/>
    <type id="highway.motorway" priority="14" speed="39.44" allow="private emergency authority army vip passenger hov taxi bus coach delivery truck trailer motorcycle evehicle custom1 custom2" oneway="1"/>
    <type id="highway.motorway_link" priority="9" speed="22.22" allow="private emergency authority army vip passenger hov taxi bus coach delivery truck trailer motorcycle evehicle custom1 custom2" oneway="1"/>
    <type id="highway.path" priority="1" speed="2.78" allow="pedestrian bicycle" oneway="0" width="2.00"/>
    <type id="highway.pedestrian" priority="1" speed="2.78" allow="pedestrian" oneway="1" width="2.00"/>
    <type id="highway.primary" priority="12" speed="27.78" disallow="pedestrian tram rail_urban rail rail_electric rail_fast ship" oneway="0"/>
    <type id="highway.primary_link" priority="7" speed="22.22" disallow="pedestrian tram rail_urban rail rail_electric rail_fast ship" oneway="0"/>
    <type id="highway.raceway" priority="15" speed="83.33" allow="vip" oneway="0"/>
    <type id="highway.residential" priority="3" speed="13.89" disallow="pedestrian tram rail_urban rail rail_electric rail_fast ship" oneway="0"/>
    <type id="highway.secondary" priority="11" speed="27.78" disallow="pedestrian tram rail_urban rail rail_electric rail_fast ship" oneway="0"/>
    <type id="highway.secondary_link" priority="6" speed="22.22" disallow="pedestrian tram rail_urban rail rail_electric rail_fast ship" oneway="0"/>
    <type id="highway.service" priority="1" speed="5.56" allow="pedestrian delivery bicycle" oneway="0"/>
    <type id="highway.stairs" priority="1" speed="1.39" allow="pedestrian" oneway="1" width="2.00"/>
    <type id="highway.step" priority="1" speed="1.39" allow="pedestrian" oneway="1" width="2.00"/>
    <type id="highway.steps" priority="1" speed="1.39" allow="pedestrian" oneway="1" width="2.00"/>
    <type id="highway.tertiary" priority="10" speed="22.22" disallow="pedestrian tram rail_urban rail rail_electric rail_fast ship" oneway="0"/>
    <type id="highway.tertiary_link" priority="5" speed="22.22" disallow="pedestrian tram rail_urban rail rail_electric rail_fast ship" oneway="0"/>
    <type id="highway.track" priority="1" speed="5.56" allow="pedestrian motorcycle moped bicycle" oneway="0"/>
    <type id="highway.trunk" priority="13" speed="27.78" disallow="pedestrian bicycle tram rail_urban rail rail_electric rail_fast ship" oneway="0"/>
    <type id="highway.trunk_link" priority="8" speed="22.22" disallow="pedestrian bicycle tram rail_urban rail rail_electric rail_fast ship" oneway="0"/>
    <type id="highway.unclassified" priority="4" speed="13.89" disallow="pedestrian tram rail_urban rail rail_electric rail_fast ship" oneway="0"/>
    <type id="highway.unsurfaced" priority="1" speed="8.33" disallow="tram rail_urban rail rail_electric rail_fast ship" oneway="0"/>
    <type id="railway.highspeed" priority="21" speed="69.44" allow="rail_fast" oneway="1"/>
    <type id="railway.light_rail" priority="19" speed="27.78" allow="rail_urban" oneway="1"/>
    <type id="railway.preserved" priority="16" speed="27.78" allow="rail" oneway="1"/>
    <type id="railway.rail" priority="20" speed="44.44" allow="rail" oneway="1"/>
    <type id="railway.subway" priority="18" speed="27.78" allow="rail_urban" oneway="1"/>
    <type id="railway.tram" priority="17" speed="13.89" allow="tram" oneway="1"/>

    <edge id=":44_0" function="internal">
        <lane id=":44_0_0" index="0" disallow="pedestrian tram rail_urban rail rail_electric rail_fast ship" speed="5.19" length="5.38" width="3.50" shape="383.90,65.47 383.06,64.76 381.55,63.82 379.92,63.11 379.22,62.91"/>
    </edge>
    <edge id=":44_1" function="internal">
        <lane id=":44_1_0" index="0" disallow="pedestrian tram rail_urban rail rail_electric rail_fast ship" speed="36.11" length="20.33" width="3.45" shape="386.04,64.83 380.97,51.45 379.11,45.72"/>
    </edge>
    <edge id=":44_2" function="internal">
        <lane id=":44_2_0" index="0" disallow="pedestrian tram rail_urban rail rail_electric rail_fast ship" speed="9.47" length="20.29" width="3.50" shape="388.81,64.01 389.37,61.88 390.32,59.75 391.60,57.80 393.18,56.08 394.99,54.61 397.49,53.10 400.15,51.90 402.91,50.97"/>
    </edge>
    <edge id=":44_3" function="internal">
        <lane id=":44_3_0" index="0" disallow="pedestrian tram rail_urban rail rail_electric rail_fast ship" speed="36.11" length="26.19" width="3.50" shape="403.89,54.33 395.60,56.54 378.46,60.60"/>
    </edge>
    <edge id=":44_4" function="internal">
        <lane id=":44_4_0" index="0" disallow="pedestrian tram rail_urban rail rail_electric rail_fast ship" speed="11.46" length="29.72" width="3.45" shape="403.89,54.33 400.35,55.23 396.71,55.83 394.20,56.01 391.65,55.94 389.12,55.54 387.81,55.17 386.56,54.69 385.35,54.08 384.21,53.34 383.15,52.47 382.19,51.50 381.35,50.43 380.63,49.30 380.01,48.09 379.11,45.72"/>
    </edge>
    <edge id=":44_5" function="internal">
        <lane id=":44_5_0" index="0" disallow="pedestrian tram rail_urban rail rail_electric rail_fast ship" speed="10.34" length="24.22" width="3.50" shape="382.46,44.68 383.20,46.65 383.70,47.58 384.28,48.46 384.96,49.27 385.72,49.99 386.56,50.63 387.47,51.17 388.43,51.60 389.42,51.94 390.45,52.19 392.54,52.46 394.64,52.48 396.74,52.30 399.86,51.76 402.91,50.97"/>
    </edge>
    <edge id=":44_6" function="internal">
        <lane id=":44_6_0" index="0" disallow="pedestrian tram rail_urban rail rail_electric rail_fast ship" speed="8.52" length="15.78" width="3.50" shape="382.46,44.68 382.96,46.94 383.10,48.66 383.01,50.39 382.65,52.09 382.03,53.70 381.16,55.20 379.70,56.99 377.99,58.54 377.83,58.65"/>
    </edge>
    <edge id=":45_0" function="internal">
        <lane id=":45_0_0" index="0" disallow="pedestrian tram rail_urban rail rail_electric rail_fast ship" speed="36.11" length="20.63" width="3.50" shape="406.89,133.34 405.54,128.77 401.03,113.56"/>
    </edge>
    <edge id=":45_1" function="internal">
        <lane id=":45_1_0" index="0" disallow="pedestrian tram rail_urban rail rail_electric rail_fast ship" speed="8.75" length="17.22" width="3.50" shape="410.02,132.42 410.07,132.21 410.72,130.58 411.58,129.04 412.63,127.63 414.29,125.98 416.18,124.59 418.77,123.21 421.50,122.15 422.63,121.81"/>
    </edge>
    <edge id=":45_2" function="internal">
        <lane id=":45_2_0" index="0" disallow="pedestrian tram rail_urban rail rail_electric rail_fast ship" speed="11.22" length="28.62" width="3.50" shape="423.59,125.18 420.76,125.85 417.87,126.21 415.55,126.21 413.25,125.91 411.02,125.25 408.93,124.23 407.04,122.88 405.39,121.25 403.97,119.40 402.51,116.89 401.35,114.23 401.11,113.54"/>
    </edge>
    <edge id=":46_0" function="internal">
        <lane id=":46_0_0" index="0" disallow="pedestrian tram rail_urban rail rail_electric rail_fast ship" speed="36.11" length="6.50" width="3.50" shape="325.92,77.28 319.74,79.30"/>
    </edge>
    <edge id=":46_1" function="internal">
        <lane id=":46_1_0" index="0" disallow="pedestrian tram rail_urban rail rail_electric rail_fast ship" speed="11.80" length="31.19" width="3.50" shape="341.47,72.21 338.13,73.13 335.28,73.62 332.40,73.77 330.09,73.59 327.84,73.10 325.68,72.26 323.69,71.09 321.91,69.62 320.36,67.91 318.74,65.52 317.42,62.95 316.56,60.80"/>
    </edge>
    <edge id=":48_0" function="internal">
        <lane id=":48_0_0" index="0" disallow="pedestrian tram rail_urban rail rail_electric rail_fast ship" speed="11.18" length="28.50" width="3.50" shape="437.57,62.76 436.48,59.68 435.54,57.69 434.40,55.82 433.03,54.10 432.26,53.32 431.43,52.61 430.54,51.96 429.60,51.40 428.62,50.92 427.59,50.52 426.54,50.22 424.38,49.85 422.18,49.79 420.00,49.97 417.84,50.35 415.71,50.89"/>
    </edge>
    <edge id=":48_1" function="internal">
        <lane id=":48_1_0" index="0" disallow="pedestrian tram rail_urban rail rail_electric rail_fast ship" speed="36.11" length="38.79" width="3.50" shape="437.57,62.76 432.06,44.19 426.55,25.57"/>
    </edge>
    <edge id=":48_2" function="internal">
        <lane id=":48_2_0" index="0" disallow="pedestrian tram rail_urban rail rail_electric rail_fast ship" speed="12.06" length="33.93" width="3.50" shape="437.57,62.76 436.94,60.33 436.49,57.83 436.28,55.26 436.36,52.64 436.80,50.05 437.19,48.73 437.69,47.47 438.30,46.26 439.01,45.11 439.82,44.03 440.72,43.02 441.71,42.08 443.78,40.51 446.03,39.21 448.38,38.15 451.96,36.95"/>
    </edge>
    <edge id=":48_3" function="internal">
        <lane id=":48_3_0" index="0" disallow="pedestrian tram rail_urban rail rail_electric rail_fast ship" speed="11.04" length="28.27" width="3.50" shape="452.89,40.33 449.80,41.36 447.81,42.25 445.93,43.34 444.19,44.66 443.41,45.41 442.68,46.22 442.03,47.09 441.45,48.02 440.96,48.99 440.56,50.00 440.25,51.04 439.88,53.19 439.81,55.36 440.00,57.53 440.38,59.68 440.92,61.76"/>
    </edge>
    <edge id=":48_4" function="internal">
        <lane id=":48_4_0" index="0" disallow="pedestrian tram rail_urban rail rail_electric rail_fast ship" speed="36.11" length="38.65" width="3.50" shape="452.89,40.33 420.73,49.43 415.71,50.89"/>
    </edge>
    <edge id=":48_5" function="internal">
        <lane id=":48_5_0" index="0" disallow="pedestrian tram rail_urban rail rail_electric rail_fast ship" speed="36.11" length="38.78" width="3.50" shape="429.90,24.58 435.42,43.19 440.92,61.76"/>
    </edge>
    <edge id=":48_6" function="internal">
        <lane id=":48_6_0" index="0" disallow="pedestrian tram rail_urban rail rail_electric rail_fast ship" speed="12.19" length="34.34" width="3.50" shape="429.90,24.58 430.84,28.45 431.20,31.07 431.29,33.70 431.06,36.33 430.80,37.63 430.44,38.90 429.98,40.13 429.41,41.32 428.73,42.46 427.96,43.53 427.10,44.53 425.16,46.31 422.98,47.81 420.65,49.05 418.22,50.07 415.71,50.89"/>
    </edge>
    <edge id=":48_7" function="internal">
        <lane id=":48_7_0" index="0" disallow="pedestrian tram rail_urban rail rail_electric rail_fast ship" speed="11.18" length="28.74" width="3.50" shape="414.73,47.53 416.91,46.81 419.01,45.94 420.98,44.89 422.79,43.65 424.41,42.16 425.08,41.37 425.69,40.51 426.23,39.61 426.69,38.65 427.06,37.66 427.35,36.63 427.56,35.61 427.75,33.40 427.67,31.18 427.36,28.95 426.55,25.57"/>
    </edge>
    <edge id=":48_8" function="internal">
        <lane id=":48_8_0" index="0" disallow="pedestrian tram rail_urban rail rail_electric rail_fast ship" speed="36.11" length="38.70" width="3.50" shape="414.73,47.53 419.76,46.07 451.96,36.95"/>
    </edge>
    <edge id=":48_9" function="internal">
        <lane id=":48_9_0" index="0" disallow="pedestrian tram rail_urban rail rail_electric rail_fast ship" speed="12.18" length="34.06" width="3.50" shape="414.73,47.53 417.19,46.90 419.71,46.46 422.29,46.25 424.92,46.34 427.51,46.77 428.84,47.15 430.10,47.64 431.32,48.23 432.49,48.93 433.59,49.73 434.61,50.61 435.57,51.58 437.19,53.63 438.55,55.86 439.66,58.20 440.92,61.76"/>
    </edge>
    <edge id=":49_0" function="internal">
        <lane id=":49_0_0" index="0" disallow="pedestrian tram rail_urban rail rail_electric rail_fast ship" speed="16.13" length="30.56" width="3.50" shape="379.50,46.97 378.44,44.63 377.66,44.01 375.97,42.95 373.30,41.57 368.74,39.50 362.26,36.85 352.92,33.31"/>
    </edge>
    <edge id=":49_1" function="internal">
        <lane id=":49_1_0" index="0" disallow="pedestrian tram rail_urban rail rail_electric rail_fast ship" speed="36.11" length="35.94" width="3.50" shape="379.50,46.97 374.18,28.97 369.33,12.50"/>
    </edge>
    <edge id=":49_2" function="internal">
        <lane id=":49_2_0" index="0" disallow="pedestrian tram rail_urban rail rail_electric rail_fast ship" speed="36.11" length="35.78" width="3.49" shape="372.69,11.51 377.54,27.98 382.79,45.83"/>
    </edge>
    <edge id=":49_3" function="internal">
        <lane id=":49_3_0" index="0" disallow="pedestrian tram rail_urban rail rail_electric rail_fast ship" speed="16.74" length="33.57" width="3.49" shape="354.12,30.03 364.01,33.81 370.88,36.70 375.73,39.02 378.60,40.66 380.48,42.00 381.46,42.95 382.79,45.83"/>
    </edge>

    <edge id="12129" from="48" to="28" priority="3" type="highway.residential" spreadType="center" length="52.51" shape="432.11,44.34 411.62,-24.77">
        <lane id="12129_0" index="0" disallow="pedestrian tram rail_urban rail rail_electric rail_fast ship" speed="36.11" length="52.51" width="3.50" customShape="1" shape="426.55,25.57 419.08,0.42 411.62,-24.77"/>
    </edge>
    <edge id="12130" from="41" to="48" priority="3" type="highway.residential" spreadType="center" length="52.52" shape="414.97,-25.76 435.47,43.34">
        <lane id="12130_0" index="0" disallow="pedestrian tram rail_urban rail rail_electric rail_fast ship" speed="36.11" length="52.52" width="3.50" customShape="1" shape="414.97,-25.76 422.44,-0.58 429.90,24.59"/>
    </edge>
    <edge id="12132" from="19" to="48" priority="3" type="highway.residential" spreadType="center" length="70.01" shape="457.47,129.87 432.09,44.26">
        <lane id="12132_0" index="0" disallow="pedestrian tram rail_urban rail rail_electric rail_fast ship" speed="36.11" length="70.01" width="3.50" customShape="1" shape="457.47,129.87 456.50,126.61 437.57,62.75"/>
    </edge>
    <edge id="12133" from="48" to="25" priority="3" type="highway.residential" spreadType="center" length="70.00" shape="435.45,43.27 460.82,128.87">
        <lane id="12133_0" index="0" disallow="pedestrian tram rail_urban rail rail_electric rail_fast ship" speed="36.11" length="70.00" width="3.50" customShape="1" shape="440.92,61.76 459.86,125.61 460.82,128.87"/>
    </edge>
    <edge id="12179" from="46" to="37" priority="3" type="highway.residential" spreadType="center" length="28.61">
        <lane id="12179_0" index="0" disallow="pedestrian tram rail_urban rail rail_electric rail_fast ship" speed="36.11" length="28.61" width="3.50" customShape="1" shape="321.76,75.16 314.29,54.53 312.02,48.26"/>
    </edge>
    <edge id="12180" from="38" to="39" priority="3" type="highway.residential" spreadType="center" length="13.35">
        <lane id="12180_0" index="0" disallow="pedestrian tram rail_urban rail rail_electric rail_fast ship" speed="36.11" length="13.35" width="3.50" customShape="1" shape="315.31,47.07 317.58,53.34 319.85,59.62"/>
    </edge>
    <edge id="12647" from="40" to="48" priority="3" type="highway.residential" spreadType="center" length="27.40" shape="479.30,33.02 434.18,45.50">
        <lane id="12647_0" index="0" disallow="pedestrian tram rail_urban rail rail_electric rail_fast ship" speed="36.11" length="27.40" width="3.50" customShape="1" shape="479.30,33.02 466.09,36.67 452.89,40.33"/>
    </edge>
    <edge id="12648" from="48" to="29" priority="3" type="highway.residential" spreadType="center" length="27.39" shape="433.25,42.13 478.36,29.64">
        <lane id="12648_0" index="0" disallow="pedestrian tram rail_urban rail rail_electric rail_fast ship" speed="36.11" length="27.39" width="3.50" customShape="1" shape="451.96,36.95 465.16,33.30 478.36,29.64"/>
    </edge>
    <edge id="12763" from="45" to="9" priority="3" type="highway.residential" spreadType="center" length="23.61" shape="413.75,124.48 445.33,115.32">
        <lane id="12763_0" index="0" disallow="pedestrian tram rail_urban rail rail_electric rail_fast ship" speed="36.11" length="23.61" width="3.50" customShape="1" shape="422.63,121.81 433.98,118.57 445.33,115.32"/>
    </edge>
    <edge id="12764" from="10" to="45" priority="3" type="highway.residential" spreadType="center" length="23.62" shape="446.29,118.69 414.72,127.84">
        <lane id="12764_0" index="0" disallow="pedestrian tram rail_urban rail rail_electric rail_fast ship" speed="36.11" length="23.62" width="3.50" customShape="1" shape="446.29,118.69 434.94,121.93 423.58,125.18"/>
    </edge>
    <edge id="12918" from="49" to="34" priority="3" type="highway.residential" spreadType="center" length="5.24" shape="366.65,29.56 367.85,7.47">
        <lane id="12918_0" index="0" disallow="pedestrian tram rail_urban rail rail_electric rail_fast ship" speed="36.11" length="5.24" width="3.50" customShape="1" shape="369.33,12.50 369.29,12.38 369.26,12.27 367.85,7.47"/>
    </edge>
    <edge id="12919" from="43" to="49" priority="3" type="highway.residential" spreadType="center" length="5.27" shape="371.21,6.47 370.13,29.72">
        <lane id="12919_0" index="0" disallow="pedestrian tram rail_urban rail rail_electric rail_fast ship" speed="36.11" length="5.27" width="3.49" customShape="1" shape="371.21,6.47 372.61,11.27 372.65,11.39 372.69,11.53"/>
    </edge>
    <edge id="12921" from="44" to="49" priority="3" type="highway.residential" spreadType="center" length="0.21" shape="386.25,56.86 366.95,30.46">
        <lane id="12921_0" index="0" disallow="pedestrian tram rail_urban rail rail_electric rail_fast ship" speed="36.11" length="0.21" width="3.45" customShape="1" shape="379.56,47.17 379.50,46.97"/>
    </edge>
    <edge id="12922" from="49" to="44" priority="3" type="highway.residential" spreadType="center" length="0.20" shape="369.75,28.41 389.05,54.81">
        <lane id="12922_0" index="0" disallow="pedestrian tram rail_urban rail rail_electric rail_fast ship" speed="36.11" length="0.20" width="3.49" customShape="1" shape="382.79,45.83 382.85,46.02"/>
    </edge>
    <edge id="12993" from="44" to="48" priority="3" type="highway.residential" spreadType="center" length="12.31" shape="387.20,54.15 433.40,42.09">
        <lane id="12993_0" index="0" disallow="pedestrian tram rail_urban rail rail_electric rail_fast ship" speed="36.11" length="12.31" width="3.50" customShape="1" shape="402.91,50.97 408.83,49.25 414.73,47.53"/>
    </edge>
    <edge id="12994" from="48" to="44" priority="3" type="highway.residential" spreadType="center" length="12.32" shape="434.28,45.47 388.09,57.53">
        <lane id="12994_0" index="0" disallow="pedestrian tram rail_urban rail rail_electric rail_fast ship" speed="36.11" length="12.32" width="3.50" customShape="1" shape="415.71,50.89 409.80,52.61 403.88,54.34"/>
    </edge>
    <edge id="13020" from="11" to="45" priority="3" type="highway.residential" spreadType="center" length="75.90">
        <lane id="13020_0" index="0" disallow="pedestrian tram rail_urban rail rail_electric rail_fast ship" speed="36.11" length="75.90" width="3.50" customShape="1" shape="428.45,206.11 419.55,176.09 406.89,133.34"/>
    </edge>
    <edge id="13022" from="45" to="44" priority="3" type="highway.residential" spreadType="center" length="50.98">
        <lane id="13022_0" index="0" disallow="pedestrian tram rail_urban rail rail_electric rail_fast ship" speed="36.11" length="50.98" width="3.50" customShape="1" shape="401.03,113.56 395.11,93.57 386.55,64.68"/>
    </edge>
    <edge id="13066" from="44" to="46" priority="3" type="highway.residential" spreadType="center" length="55.13">
        <lane id="13066_0" index="0" disallow="pedestrian tram rail_urban rail rail_electric rail_fast ship" speed="36.11" length="55.13" width="3.50" customShape="1" shape="378.33,60.18 354.58,67.93 325.92,77.28"/>
    </edge>
    <edge id="13083" from="49" to="33" priority="3" type="highway.residential" spreadType="center" length="5.27" shape="368.57,31.25 347.98,31.49">
        <lane id="13083_0" index="0" disallow="pedestrian tram rail_urban rail rail_electric rail_fast ship" speed="36.11" length="5.27" width="3.50" customShape="1" shape="352.92,33.31 352.78,33.27 352.67,33.22 347.98,31.49"/>
    </edge>
    <edge id="13084" from="42" to="49" priority="3" type="highway.residential" spreadType="center" length="5.27" shape="349.17,28.21 368.52,27.78">
        <lane id="13084_0" index="0" disallow="pedestrian tram rail_urban rail rail_electric rail_fast ship" speed="36.11" length="5.27" width="3.47" customShape="1" shape="349.17,28.21 353.87,29.93 353.99,29.98 354.12,30.03"/>
    </edge>
    <edge id="17734" from="46" to="47" priority="3" type="highway.residential" spreadType="center" length="13.24">
        <lane id="17734_0" index="0" disallow="pedestrian tram rail_urban rail rail_electric rail_fast ship" speed="36.11" length="13.24" width="3.50" customShape="1" shape="319.74,79.30 307.15,83.41"/>
    </edge>

    <junction id="10" type="dead_end" x="446.29" y="118.69" incLanes="" intLanes="" shape="445.81,117.00 446.78,120.37" rightOfWay="edgePriority"/>
    <junction id="11" type="dead_end" x="428.45" y="206.11" incLanes="" intLanes="" shape="430.12,205.62 426.77,206.61" rightOfWay="edgePriority"/>
    <junction id="19" type="dead_end" x="457.47" y="129.87" incLanes="" intLanes="" shape="459.15,129.38 455.79,130.37" rightOfWay="edgePriority"/>
    <junction id="25" type="dead_end" x="460.82" y="128.87" incLanes="12133_0" intLanes="" shape="462.50,128.37 459.15,129.37" rightOfWay="edgePriority"/>
    <junction id="28" type="dead_end" x="411.62" y="-24.77" incLanes="12129_0" intLanes="" shape="409.94,-24.27 413.30,-25.26" rightOfWay="edgePriority"/>
    <junction id="29" type="dead_end" x="478.36" y="29.64" incLanes="12648_0" intLanes="" shape="477.89,27.96 478.83,31.33" rightOfWay="edgePriority"/>
    <junction id="33" type="dead_end" x="347.98" y="31.49" incLanes="13083_0" intLanes="" shape="347.38,33.14 348.59,29.85" rightOfWay="edgePriority"/>
    <junction id="34" type="dead_end" x="367.85" y="7.47" incLanes="12918_0" intLanes="" shape="366.18,7.96 369.53,6.98" rightOfWay="edgePriority"/>
    <junction id="37" type="dead_end" x="312.02" y="48.26" incLanes="12179_0" intLanes="" shape="310.37,48.85 313.67,47.66" rightOfWay="edgePriority"/>
    <junction id="38" type="dead_end" x="315.31" y="47.07" incLanes="" intLanes="" shape="313.67,47.66 316.96,46.47" rightOfWay="edgePriority"/>
    <junction id="39" type="dead_end" x="319.85" y="59.62" incLanes="12180_0" intLanes="" shape="321.50,59.02 318.21,60.21" rightOfWay="edgePriority"/>
    <junction id="40" type="dead_end" x="479.30" y="33.02" incLanes="" intLanes="" shape="478.83,31.33 479.76,34.70" rightOfWay="edgePriority"/>
    <junction id="41" type="dead_end" x="414.97" y="-25.76" incLanes="" intLanes="" shape="413.30,-25.26 416.65,-26.26" rightOfWay="edgePriority"/>
    <junction id="42" type="dead_end" x="349.17" y="28.21" incLanes="" intLanes="" shape="348.58,29.84 349.77,26.58" rightOfWay="edgePriority"/>
    <junction id="43" type="dead_end" x="371.21" y="6.47" incLanes="" intLanes="" shape="369.53,6.96 372.88,5.98" rightOfWay="edgePriority"/>
    <junction id="44" type="priority" x="387.64" y="55.84" incLanes="13022_0 12994_0 12922_0" intLanes=":44_0_0 :44_1_0 :44_2_0 :44_3_0 :44_4_0 :44_5_0 :44_6_0" shape="384.88,65.18 388.23,64.18 389.60,61.86 391.80,60.54 394.99,59.13 399.18,57.62 404.38,56.01 402.43,49.29 397.66,50.39 393.57,50.71 390.18,50.25 387.47,49.00 385.46,46.97 384.12,44.17 377.46,46.23 378.44,49.69 379.05,52.59 379.28,54.93 379.15,56.69 378.65,57.89 377.78,58.51 378.87,61.84 381.57,61.55 382.66,61.93 383.57,62.66 384.31,63.74">
        <request index="0" response="0000000" foes="1001000" cont="0"/>
        <request index="1" response="0000000" foes="1011000" cont="0"/>
        <request index="2" response="0100000" foes="0111000" cont="0"/>
        <request index="3" response="1000111" foes="1000111" cont="0"/>
        <request index="4" response="1000110" foes="1000110" cont="0"/>
        <request index="5" response="0000000" foes="0000100" cont="0"/>
        <request index="6" response="0000011" foes="0011011" cont="0"/>
    </junction>
    <junction id="45" type="priority" x="414.32" y="126.13" incLanes="13020_0 12764_0" intLanes=":45_0_0 :45_1_0 :45_2_0" shape="405.22,133.84 408.57,132.85 410.10,131.54 412.23,130.63 415.27,129.55 419.22,128.29 424.07,126.86 422.15,120.13 417.17,121.20 412.88,121.37 409.29,120.65 406.40,119.02 404.21,116.49 402.71,113.07 399.36,114.06">
        <request index="0" response="000" foes="100" cont="0"/>
        <request index="1" response="000" foes="100" cont="0"/>
        <request index="2" response="011" foes="011" cont="0"/>
    </junction>
    <junction id="46" type="priority" x="329.02" y="66.51" incLanes="13066_0" intLanes=":46_0_0 :46_1_0" shape="326.47,78.94 325.38,75.62 324.53,75.71 324.17,75.59 323.87,75.36 323.61,75.02 323.41,74.57 320.11,75.76 320.24,76.60 320.14,76.93 319.93,77.22 319.62,77.45 319.20,77.64 320.28,80.96">
        <request index="0" response="00" foes="00" cont="0"/>
        <request index="1" response="00" foes="00" cont="0"/>
    </junction>
    <junction id="47" type="dead_end" x="307.15" y="83.41" incLanes="17734_0" intLanes="" shape="307.69,85.07 306.61,81.75"/>
    <junction id="48" type="priority" x="433.78" y="43.80" incLanes="12132_0 12647_0 12130_0 12993_0" intLanes=":48_0_0 :48_1_0 :48_2_0 :48_3_0 :48_4_0 :48_5_0 :48_6_0 :48_7_0 :48_8_0 :48_9_0" shape="435.89,63.25 442.60,61.26 441.66,56.55 441.82,52.44 443.06,48.93 445.40,46.02 448.83,43.72 453.36,42.01 451.49,35.27 446.68,36.14 442.46,35.91 438.84,34.60 435.82,32.18 433.40,28.68 431.58,24.08 424.87,26.07 425.84,30.89 425.71,35.09 424.49,38.70 422.17,41.69 418.75,44.07 414.24,45.85 416.20,52.57 420.97,51.64 425.15,51.79 428.73,53.02 431.71,55.35 434.10,58.76">
        <request index="0" response="0000000000" foes="0001010000" cont="0"/>
        <request index="1" response="0000000000" foes="1111010000" cont="0"/>
        <request index="2" response="0000100000" foes="1100110000" cont="0"/>
        <request index="3" response="0000100000" foes="1000100000" cont="0"/>
        <request index="4" response="0001100111" foes="1001100111" cont="0"/>
        <request index="5" response="0000000000" foes="1100011100" cont="0"/>
        <request index="6" response="0000000011" foes="1100010011" cont="0"/>
        <request index="7" response="0000000010" foes="0000000010" cont="0"/>
        <request index="8" response="0001100110" foes="0001100110" cont="0"/>
        <request index="9" response="0001111110" foes="0001111110" cont="0"/>
    </junction>
    <junction id="49" type="priority" x="368.40" y="29.51" incLanes="12921_0 12919_0 13084_0" intLanes=":49_0_0 :49_1_0 :49_2_0 :49_3_0" shape="378.34,49.06 384.85,46.51 374.36,11.02 367.65,12.99 368.51,18.12 368.03,22.61 366.30,26.16 363.43,28.50 359.53,29.34 354.72,28.40 352.32,34.96">
        <request index="0" response="0000" foes="0000" cont="0"/>
        <request index="1" response="0000" foes="1000" cont="0"/>
        <request index="2" response="0000" foes="1000" cont="0"/>
        <request index="3" response="0110" foes="0110" cont="0"/>
    </junction>
    <junction id="9" type="dead_end" x="445.33" y="115.32" incLanes="12763_0" intLanes="" shape="444.85,113.64 445.81,117.00" rightOfWay="edgePriority"/>

    <connection from="12130" to="12133" fromLane="0" toLane="0" contPos="-4.00" shape="429.90,24.59 435.42,43.19 440.92,61.76" via=":48_5_0" dir="s" state="M"/>
    <connection from="12130" to="12994" fromLane="0" toLane="0" contPos="-4.00" shape="429.90,24.59 430.84,28.45 431.20,31.07 431.29,33.70 431.06,36.33 430.80,37.63 430.44,38.90 429.98,40.13 429.41,41.32 428.73,42.46 427.96,43.53 427.10,44.53 425.16,46.31 422.98,47.81 420.65,49.05 418.22,50.07 415.71,50.89" via=":48_6_0" dir="l" state="m"/>
    <connection from="12132" to="12994" fromLane="0" toLane="0" contPos="-4.00" shape="437.57,62.76 436.48,59.68 435.54,57.69 434.40,55.82 433.03,54.10 432.26,53.32 431.43,52.61 430.54,51.96 429.60,51.40 428.62,50.92 427.59,50.52 426.54,50.22 424.38,49.85 422.18,49.79 420.00,49.97 417.84,50.35 415.71,50.89" via=":48_0_0" dir="r" state="M"/>