<routes>
	<vehicle depart="0.1" departLane="0" departPos="69.61198009602613" departSpeed="0.0" id="37" type="bicycle">
		<route edges="164 71"/>
	</vehicle>
	<vehicle depart="0.1" departLane="0" departPos="76.51154635758267" departSpeed="5.7861524" id="39" type="bicycle">
		<route edges="62 65 68"/>
	</vehicle>
	<vehicle depart="0.1" departLane="0" departPos="15.852052237486948" departSpeed="1.4869198" id="359" type="bicycle">
		<route edges="164 71"/>
	</vehicle>
	<vehicle depart="0.1" departLane="0" departPos="115.66682755232426" departSpeed="5.4993089" id="31" type="passenger">
		<route edges="142 383 7"/>
	</vehicle>
	<vehicle depart="0.1" departLane="0" departPos="46.69680767331371" departSpeed="18.34816" id="32" type="passenger">
		<route edges="61 10"/>
	</vehicle>
	<vehicle depart="0.1" departLane="0" departPos="43.63158556086507" departSpeed="0.0" id="34" type="passenger">
		<route edges="73 70"/>
	</vehicle>
	<vehicle depart="0.1" departLane="0" departPos="17.126278786350593" departSpeed="0.0" id="35" type="passenger">
		<route edges="7 65"/>
	</vehicle>
	<vehicle depart="0.1" departLane="0" departPos="36.39275110419262" departSpeed="0.0" id="36" type="passenger">
		<route edges="73 70"/>
	</vehicle>
	<vehicle depart="0.1" departLane="0" departPos="69.82331164190201" departSpeed="0.0" id="315" type="passenger">
		<route edges="164 71"/>
	</vehicle>
	<vehicle depart="0.1" departLane="0" departPos="29.447663246933924" departSpeed="0.0" id="316" type="passenger">
		<route edges="73 70"/>
	</vehicle>
	<vehicle depart="0.1" departLane="0" departPos="8.129611985046367" departSpeed="3.2171935" id="317" type="passenger">
		<route edges="383 7"/>
	</vehicle>
	<vehicle depart="0.1" departLane="0" departPos="24.07550542228454" departSpeed="12.87142" id="318" type="passenger">
		<route edges="142 383"/>
	</vehicle>
	<vehicle depart="0.1" departLane="0" departPos="51.042973058694066" departSpeed="0.0" id="321" type="passenger">
		<route edges="73 70"/>
	</vehicle>
	<vehicle depart="0.1" departLane="0" departPos="62.54947098585542" departSpeed="0.0059842414" id="331" type="passenger">
		<route edges="164 71"/>
	</vehicle>
	<vehicle depart="0.1" departLane="0" departPos="17.432106353365203" departSpeed="0.0" id="334" type="passenger">
		<route edges="161 64 61"/>
	</vehicle>
	<vehicle depart="0.1" departLane="0" departPos="45.368585792659324" departSpeed="15.02117" id="338" type="passenger">
		<route edges="163"/>
	</vehicle>
	<vehicle depart="0.1" departLane="0" departPos="55.027606036334355" departSpeed="0.046144089" id="339" type="passenger">
		<route edges="164 71"/>
	</vehicle>
	<vehicle depart="0.1" departLane="0" departPos="17.713955216104484" departSpeed="0.0" id="340" type="passenger">
		<route edges="73 70"/>
	</vehicle>
	<vehicle depart="0.1" departLane="0" departPos="47.4703537529148" departSpeed="0.19166818" id="343" type="passenger">
		<route edges="164 71"/>
	</vehicle>
	<vehicle depart="0.1" departLane="0" departPos="9.481209945465505" departSpeed="9.6925948" id="344" type="passenger">
		<route edges=":52_1 61 10"/>
	</vehicle>
	<vehicle depart="0.1" departLane="0" departPos="40.01844323745436" departSpeed="0.5005592" id="348" type="passenger">
		<route edges="164 71"/>
	</vehicle>
	<vehicle depart="0.1" departLane="0" departPos="10.841308567622209" departSpeed="13.856931" id="350" type="passenger">
		<route edges=":51_3 67 64 61 146"/>
	</vehicle>
	<vehicle depart="0.1" departLane="0" departPos="32.12669727977503" departSpeed="0.88119684" id="351" type="passenger">
		<route edges="164 71"/>
	</vehicle>
	<vehicle depart="0.1" departLane="0" departPos="6.043635368483314" departSpeed="0.0" id="354" type="passenger">
		<route edges="73 70"/>
	</vehicle>
	<vehicle depart="0.1" departLane="0" departPos="23.44347732922321" departSpeed="1.2188938" id="355" type="passenger">
		<route edges="164 71"/>
	</vehicle>
	<vehicle depart="0.1" departLane="0" departPos="28.119826541660064" departSpeed="13.825372" id="360" type="passenger">
		<route edges="70 67 64 8 242 143 62"/>
	</vehicle>
	<vehicle depart="0.1" departLane="0" departPos="4.765680306057929" departSpeed="8.057222" id="362" type="passenger">
		<route edges="70 67 64 61"/>
	</vehicle>
	<vehicle depart="0.1" departLane="0" departPos="29.67928446803024" departSpeed="6.5645907" id="363" type="passenger">
		<route edges="118 70 67"/>
	</vehicle>
	<vehicle depart="0.1" departLane="0" departPos="17.974889033681144" departSpeed="6.210962" id="367" type="passenger">
		<route edges="118 74"/>
	</vehicle>
	<vehicle depart="0.1" departLane="0" departPos="8.956561905455885" departSpeed="4.8559565" id="369" type="passenger">
		<route edges="118 74"/>
	</vehicle>
	<vehicle depart="0.1" departLane="0" departPos="22.301644970170997" departSpeed="0.0" id="330" type="motorcycle">
		<route edges="73 70"/>
	</vehicle>
	<vehicle depart="0.1" departLane="0" departPos="10.631159419025233" departSpeed="0.0" id="345" type="motorcycle">
		<route edges="73 70"/>
	</vehicle>
	<vehicle depart="0.1" departLane="0" departPos="9.64239577444365" departSpeed="0.99160961" id="325" type="truck">
		<route edges="7 65"/>
	</vehicle>
	<vehicle depart="0.1" departLane="0" departPos="10.330317451958432" departSpeed="0.0" id="341" type="truck">
		<route edges="161 68"/>
	</vehicle>
	<vehicle depart="0.1" departLane="0" departPos="10.049075719062" departSpeed="1.4059056" id="368" type="truck">
		<route edges="164 71"/>
	</vehicle>
</routes>
