<routes>
	<vehicle depart="0.1" departLane="0" departPos="31.923478265893017" departSpeed="2.3415344" id="353" type="bus">
		<route edges="15317 15320"/>
	</vehicle>
	<vehicle depart="0.1" departLane="0" departPos="72.49999996480564" departSpeed="5.165354" id="35" type="passenger">
		<route edges="15317 15281"/>
	</vehicle>
	<vehicle depart="0.1" departLane="0" departPos="56.43351171211927" departSpeed="5.3482632" id="314" type="passenger">
		<route edges="15317 15320 15370"/>
	</vehicle>
	<vehicle depart="0.1" departLane="0" departPos="17.605327333991973" departSpeed="7.0595525" id="327" type="passenger">
		<route edges=":170_3 15281 17331"/>
	</vehicle>
	<vehicle depart="0.1" departLane="0" departPos="44.10140711517309" departSpeed="3.1113661" id="343" type="passenger">
		<route edges="15317 15320"/>
	</vehicle>
</routes>
