<!-- generated on Tue Feb  9 22:06:49 2021 by Eclipse SUMO netconvert Version 1.8.0
<configuration xmlns:xsi="http://www.w3.org/2001/XMLSchema-instance" xsi:noNamespaceSchemaLocation="http://sumo.dlr.de/xsd/netconvertConfiguration.xsd">

    <input>
        <node-files value="./converted_scenarios/scenario-factory/ESP_Monzon-9_1_I-1-1/ESP_Monzon-9_1_I-1-1.nod.xml"/>
        <edge-files value="./converted_scenarios/scenario-factory/ESP_Monzon-9_1_I-1-1/ESP_Monzon-9_1_I-1-1.edg.xml"/>
        <connection-files value="./converted_scenarios/scenario-factory/ESP_Monzon-9_1_I-1-1/ESP_Monzon-9_1_I-1-1.con.xml"/>
        <tllogic-files value="./converted_scenarios/scenario-factory/ESP_Monzon-9_1_I-1-1/ESP_Monzon-9_1_I-1-1.tll.xml"/>
        <type-files value="/home/zen/commonroad-interactive-benchmarks/install/commonroad-map-tool/crmapconverter/sumo_map/templates/DEU.typ.xml"/>
    </input>

    <output>
        <output-file value="./converted_scenarios/scenario-factory/ESP_Monzon-9_1_I-1-1/ESP_Monzon-9_1_I-1-1.net.xml"/>
    </output>

    <processing>
        <geometry.remove.keep-edges.explicit value="true"/>
        <geometry.avoid-overlap value="true"/>
        <offset.disable-normalization value="true"/>
    </processing>

    <junctions>
        <no-turnarounds value="true"/>
        <junctions.internal-link-detail value="20"/>
    </junctions>

    <report>
        <aggregate-warnings value="5"/>
    </report>

    <random_number>
        <seed value="1234"/>
    </random_number>

</configuration>
--><net xmlns:xsi="http://www.w3.org/2001/XMLSchema-instance" version="1.6" junctionCornerDetail="5" junctionLinkDetail="20" limitTurnSpeed="5.50" xsi:noNamespaceSchemaLocation="http://sumo.dlr.de/xsd/net_file.xsd">

    <location netOffset="0.00,0.00" convBoundary="-818.26,-712.99,-506.09,-398.25" origBoundary="-818.26,-712.99,-494.25,-398.25" projParameter="!"/>

    <type id="highway.bridleway" priority="1" speed="2.78" allow="pedestrian" oneway="1" width="2.00"/>
    <type id="highway.bus_guideway" priority="1" speed="27.78" allow="bus" oneway="1"/>
    <type id="highway.cycleway" priority="1" speed="8.33" allow="bicycle" oneway="0" width="1.00"/>
    <type id="highway.footway" priority="1" speed="2.78" allow="pedestrian" oneway="1" width="2.00"/>
    <type id="highway.ford" priority="1" speed="2.78" allow="army" oneway="0"/>
    <type id="highway.living_street" priority="2" speed="2.78" disallow="tram rail_urban rail rail_electric rail_fast ship" oneway="0"/>
    <type id="highway.motorway" priority="14" speed="39.44" allow="private emergency authority army vip passenger hov taxi bus coach delivery truck trailer motorcycle evehicle custom1 custom2" oneway="1"/>
    <type id="highway.motorway_link" priority="9" speed="22.22" allow="private emergency authority army vip passenger hov taxi bus coach delivery truck trailer motorcycle evehicle custom1 custom2" oneway="1"/>
    <type id="highway.path" priority="1" speed="2.78" allow="pedestrian bicycle" oneway="0" width="2.00"/>
    <type id="highway.pedestrian" priority="1" speed="2.78" allow="pedestrian" oneway="1" width="2.00"/>
    <type id="highway.primary" priority="12" speed="27.78" disallow="pedestrian tram rail_urban rail rail_electric rail_fast ship" oneway="0"/>
    <type id="highway.primary_link" priority="7" speed="22.22" disallow="pedestrian tram rail_urban rail rail_electric rail_fast ship" oneway="0"/>
    <type id="highway.raceway" priority="15" speed="83.33" allow="vip" oneway="0"/>
    <type id="highway.residential" priority="3" speed="13.89" disallow="pedestrian tram rail_urban rail rail_electric rail_fast ship" oneway="0"/>
    <type id="highway.secondary" priority="11" speed="27.78" disallow="pedestrian tram rail_urban rail rail_electric rail_fast ship" oneway="0"/>
    <type id="highway.secondary_link" priority="6" speed="22.22" disallow="pedestrian tram rail_urban rail rail_electric rail_fast ship" oneway="0"/>
    <type id="highway.service" priority="1" speed="5.56" allow="pedestrian delivery bicycle" oneway="0"/>
    <type id="highway.stairs" priority="1" speed="1.39" allow="pedestrian" oneway="1" width="2.00"/>
    <type id="highway.step" priority="1" speed="1.39" allow="pedestrian" oneway="1" width="2.00"/>
    <type id="highway.steps" priority="1" speed="1.39" allow="pedestrian" oneway="1" width="2.00"/>
    <type id="highway.tertiary" priority="10" speed="22.22" disallow="pedestrian tram rail_urban rail rail_electric rail_fast ship" oneway="0"/>
    <type id="highway.tertiary_link" priority="5" speed="22.22" disallow="pedestrian tram rail_urban rail rail_electric rail_fast ship" oneway="0"/>
    <type id="highway.track" priority="1" speed="5.56" allow="pedestrian motorcycle moped bicycle" oneway="0"/>
    <type id="highway.trunk" priority="13" speed="27.78" disallow="pedestrian bicycle tram rail_urban rail rail_electric rail_fast ship" oneway="0"/>
    <type id="highway.trunk_link" priority="8" speed="22.22" disallow="pedestrian bicycle tram rail_urban rail rail_electric rail_fast ship" oneway="0"/>
    <type id="highway.unclassified" priority="4" speed="13.89" disallow="pedestrian tram rail_urban rail rail_electric rail_fast ship" oneway="0"/>
    <type id="highway.unsurfaced" priority="1" speed="8.33" disallow="tram rail_urban rail rail_electric rail_fast ship" oneway="0"/>
    <type id="railway.highspeed" priority="21" speed="69.44" allow="rail_fast" oneway="1"/>
    <type id="railway.light_rail" priority="19" speed="27.78" allow="rail_urban" oneway="1"/>
    <type id="railway.preserved" priority="16" speed="27.78" allow="rail" oneway="1"/>
    <type id="railway.rail" priority="20" speed="44.44" allow="rail" oneway="1"/>
    <type id="railway.subway" priority="18" speed="27.78" allow="rail_urban" oneway="1"/>
    <type id="railway.tram" priority="17" speed="13.89" allow="tram" oneway="1"/>

    <edge id=":151_0" function="internal">
        <lane id=":151_0_0" index="0" disallow="pedestrian tram rail_urban rail rail_electric rail_fast ship" speed="36.11" length="6.50" width="3.50" shape="-515.63,-432.97 -515.15,-433.06 -514.72,-433.13 -514.33,-433.20 -513.97,-433.25 -513.65,-433.31 -513.35,-433.35 -513.07,-433.40 -512.80,-433.44 -512.55,-433.49 -512.30,-433.53 -512.04,-433.58 -511.78,-433.64 -511.50,-433.70 -511.21,-433.77 -510.89,-433.85 -510.55,-433.95 -510.17,-434.06 -509.75,-434.18 -509.28,-434.32"/>
    </edge>
    <edge id=":156_0" function="internal">
        <lane id=":156_0_0" index="0" disallow="pedestrian tram rail_urban rail rail_electric rail_fast ship" speed="10.55" length="25.98" width="3.50" shape="-653.40,-493.53 -654.52,-493.33 -657.89,-492.51 -660.00,-491.78 -662.01,-490.87 -663.88,-489.73 -664.69,-489.10 -665.46,-488.39 -666.16,-487.63 -666.77,-486.81 -667.29,-485.94 -667.73,-485.01 -668.07,-484.04 -668.33,-483.04 -668.49,-482.00 -668.58,-480.97 -668.52,-478.77 -668.21,-476.57"/>
    </edge>
    <edge id=":156_1" function="internal">
        <lane id=":156_1_0" index="0" disallow="pedestrian tram rail_urban rail rail_electric rail_fast ship" speed="36.11" length="38.28" width="3.50" shape="-653.40,-493.53 -668.69,-490.79 -683.89,-487.69 -690.95,-486.12"/>
    </edge>
    <edge id=":156_2" function="internal">
        <lane id=":156_2_0" index="0" disallow="pedestrian tram rail_urban rail rail_electric rail_fast ship" speed="12.18" length="34.48" width="3.50" shape="-653.40,-493.53 -657.37,-493.08 -660.02,-493.04 -662.65,-493.28 -665.24,-493.86 -666.50,-494.28 -667.71,-494.81 -668.88,-495.43 -669.99,-496.16 -671.02,-496.99 -671.98,-497.90 -672.86,-498.89 -674.38,-501.06 -675.58,-503.43 -676.50,-505.91 -677.19,-508.47 -677.69,-511.09"/>
    </edge>
    <edge id=":156_3" function="internal">
        <lane id=":156_3_0" index="0" disallow="pedestrian tram rail_urban rail rail_electric rail_fast ship" speed="11.18" length="28.85" width="3.50" shape="-674.23,-511.63 -673.80,-509.34 -673.20,-507.14 -672.42,-505.03 -671.42,-503.06 -670.16,-501.25 -669.47,-500.48 -668.70,-499.74 -667.87,-499.09 -666.99,-498.50 -666.05,-498.00 -665.07,-497.58 -664.08,-497.24 -661.91,-496.76 -659.69,-496.56 -657.44,-496.58 -653.98,-496.98"/>
    </edge>
    <edge id=":156_4" function="internal">
        <lane id=":156_4_0" index="0" disallow="pedestrian tram rail_urban rail rail_electric rail_fast ship" speed="36.11" length="35.57" width="3.50" shape="-674.23,-511.63 -671.37,-494.06 -668.21,-476.57"/>
    </edge>
    <edge id=":156_5" function="internal">
        <lane id=":156_5_0" index="0" disallow="pedestrian tram rail_urban rail rail_electric rail_fast ship" speed="12.56" length="34.44" width="3.50" shape="-674.23,-511.63 -673.82,-507.80 -673.78,-505.25 -673.98,-502.71 -674.45,-500.20 -675.23,-497.78 -676.35,-495.49 -677.80,-493.40 -679.56,-491.55 -681.57,-489.98 -683.76,-488.67 -686.08,-487.61 -688.49,-486.77 -690.95,-486.12"/>
    </edge>
    <edge id=":156_6" function="internal">
        <lane id=":156_6_0" index="0" disallow="pedestrian tram rail_urban rail rail_electric rail_fast ship" speed="11.56" length="29.13" width="3.50" shape="-691.73,-489.53 -689.58,-490.10 -687.50,-490.83 -685.53,-491.73 -683.69,-492.83 -682.02,-494.13 -680.58,-495.64 -679.40,-497.36 -678.49,-499.24 -677.85,-501.25 -677.46,-503.36 -677.29,-505.54 -677.33,-507.73 -677.69,-511.09"/>
    </edge>
    <edge id=":156_7" function="internal">
        <lane id=":156_7_0" index="0" disallow="pedestrian tram rail_urban rail rail_electric rail_fast ship" speed="36.11" length="38.48" width="3.50" shape="-691.73,-489.53 -684.62,-491.11 -669.35,-494.23 -653.98,-496.98"/>
    </edge>
    <edge id=":156_8" function="internal">
        <lane id=":156_8_0" index="0" disallow="pedestrian tram rail_urban rail rail_electric rail_fast ship" speed="11.52" length="30.91" width="3.50" shape="-691.73,-489.53 -687.96,-490.21 -685.37,-490.43 -682.73,-490.40 -680.11,-490.05 -678.75,-489.71 -677.45,-489.26 -676.18,-488.68 -674.97,-487.97 -673.84,-487.14 -672.81,-486.19 -671.88,-485.15 -671.06,-484.03 -670.36,-482.85 -669.75,-481.61 -668.84,-479.14 -668.21,-476.57"/>
    </edge>
    <edge id=":156_9" function="internal">
        <lane id=":156_9_0" index="0" disallow="pedestrian tram rail_urban rail rail_electric rail_fast ship" speed="10.41" length="25.23" width="3.50" shape="-671.64,-475.88 -672.17,-478.05 -672.94,-480.10 -673.43,-481.08 -674.00,-482.01 -674.66,-482.89 -675.40,-483.70 -676.22,-484.42 -677.11,-485.06 -678.06,-485.60 -679.07,-486.03 -680.11,-486.37 -681.17,-486.63 -683.35,-486.90 -685.54,-486.90 -687.72,-486.71 -690.95,-486.12"/>
    </edge>
    <edge id=":156_10" function="internal">
        <lane id=":156_10_0" index="0" disallow="pedestrian tram rail_urban rail rail_electric rail_fast ship" speed="36.11" length="35.73" width="3.50" shape="-671.64,-475.88 -674.82,-493.47 -677.69,-511.09"/>
    </edge>
    <edge id=":156_11" function="internal">
        <lane id=":156_11_0" index="0" disallow="pedestrian tram rail_urban rail rail_electric rail_fast ship" speed="11.63" length="31.68" width="3.50" shape="-671.64,-475.88 -672.02,-478.53 -672.10,-481.16 -672.01,-482.48 -671.81,-483.78 -671.50,-485.06 -671.08,-486.31 -670.54,-487.51 -669.88,-488.65 -669.11,-489.72 -668.23,-490.71 -667.28,-491.61 -666.24,-492.43 -664.01,-493.82 -661.62,-494.93 -659.13,-495.80 -655.29,-496.74 -653.98,-496.98"/>
    </edge>
    <edge id=":157_0" function="internal">
        <lane id=":157_0_0" index="0" disallow="pedestrian tram rail_urban rail rail_electric rail_fast ship" speed="36.11" length="38.61" width="3.50" shape="-605.87,-540.90 -608.97,-559.95 -612.08,-579.01"/>
    </edge>
    <edge id=":157_1" function="internal">
        <lane id=":157_1_0" index="0" disallow="pedestrian tram rail_urban rail rail_electric rail_fast ship" speed="12.23" length="34.11" width="3.50" shape="-605.87,-540.90 -606.19,-543.42 -606.32,-545.98 -606.22,-548.57 -605.82,-551.17 -605.07,-553.69 -604.53,-554.96 -603.90,-556.16 -603.17,-557.30 -602.33,-558.38 -601.42,-559.37 -600.42,-560.29 -599.34,-561.13 -597.12,-562.51 -594.75,-563.61 -592.29,-564.44 -588.59,-565.30"/>
    </edge>
    <edge id=":157_2" function="internal">
        <lane id=":157_2_0" index="0" disallow="pedestrian tram rail_urban rail rail_electric rail_fast ship" speed="11.23" length="28.58" width="3.50" shape="-587.98,-561.85 -591.19,-561.11 -593.27,-560.40 -595.27,-559.48 -597.14,-558.32 -598.00,-557.64 -598.81,-556.90 -599.56,-556.09 -600.23,-555.22 -600.82,-554.30 -601.34,-553.32 -601.76,-552.31 -602.39,-550.21 -602.72,-548.03 -602.81,-545.84 -602.70,-543.64 -602.42,-541.46"/>
    </edge>
    <edge id=":157_3" function="internal">
        <lane id=":157_3_0" index="0" disallow="pedestrian tram rail_urban rail rail_electric rail_fast ship" speed="12.10" length="34.04" width="3.50" shape="-587.98,-561.85 -591.88,-561.37 -594.49,-561.32 -597.10,-561.54 -599.66,-562.08 -600.91,-562.50 -602.11,-563.01 -603.27,-563.62 -604.37,-564.33 -605.40,-565.14 -606.35,-566.03 -607.23,-567.00 -608.74,-569.14 -609.94,-571.47 -610.87,-573.91 -611.57,-576.44 -612.08,-579.01"/>
    </edge>
    <edge id=":157_4" function="internal">
        <lane id=":157_4_0" index="0" disallow="pedestrian tram rail_urban rail rail_electric rail_fast ship" speed="11.09" length="28.42" width="3.50" shape="-608.63,-579.59 -608.18,-577.34 -607.58,-575.17 -606.80,-573.10 -605.80,-571.16 -604.55,-569.39 -603.86,-568.63 -603.10,-567.91 -602.27,-567.27 -601.40,-566.70 -600.47,-566.21 -599.50,-565.80 -598.52,-565.48 -596.38,-565.02 -594.19,-564.84 -591.98,-564.88 -588.59,-565.30"/>
    </edge>
    <edge id=":157_5" function="internal">
        <lane id=":157_5_0" index="0" disallow="pedestrian tram rail_urban rail rail_electric rail_fast ship" speed="36.11" length="38.63" width="3.50" shape="-608.63,-579.59 -605.52,-560.51 -602.42,-541.46"/>
    </edge>
    <edge id=":158_0" function="internal">
        <lane id=":158_0_0" index="0" disallow="pedestrian tram rail_urban rail rail_electric rail_fast ship" speed="11.14" length="28.70" width="3.50" shape="-591.09,-442.16 -591.73,-445.40 -592.37,-447.51 -593.23,-449.55 -594.33,-451.46 -594.99,-452.35 -595.71,-453.18 -596.51,-453.95 -597.37,-454.65 -598.28,-455.26 -599.25,-455.79 -600.26,-456.24 -602.37,-456.89 -604.56,-457.24 -606.76,-457.34 -608.97,-457.24 -611.16,-456.97"/>
    </edge>
    <edge id=":158_1" function="internal">
        <lane id=":158_1_0" index="0" disallow="pedestrian tram rail_urban rail rail_electric rail_fast ship" speed="36.11" length="39.15" width="3.50" shape="-591.09,-442.16 -593.84,-461.52 -596.59,-480.92"/>
    </edge>
    <edge id=":158_2" function="internal">
        <lane id=":158_2_0" index="0" disallow="pedestrian tram rail_urban rail rail_electric rail_fast ship" speed="12.37" length="34.60" width="3.50" shape="-591.09,-442.16 -591.36,-444.62 -591.45,-447.12 -591.31,-449.65 -590.91,-452.19 -590.17,-454.68 -589.09,-457.04 -588.39,-458.20 -587.60,-459.27 -586.73,-460.27 -585.77,-461.21 -583.73,-462.80 -581.49,-464.09 -579.16,-465.11 -576.75,-465.89 -573.11,-466.69"/>
    </edge>
    <edge id=":158_3" function="internal">
        <lane id=":158_3_0" index="0" disallow="pedestrian tram rail_urban rail rail_electric rail_fast ship" speed="11.38" length="29.11" width="3.50" shape="-572.53,-463.24 -575.70,-462.54 -577.75,-461.88 -579.73,-461.02 -581.60,-459.94 -583.30,-458.61 -584.07,-457.86 -584.77,-457.04 -585.41,-456.17 -585.98,-455.25 -586.88,-453.29 -587.48,-451.23 -587.83,-449.10 -587.94,-446.94 -587.86,-444.78 -587.63,-442.66"/>
    </edge>
    <edge id=":158_4" function="internal">
        <lane id=":158_4_0" index="0" disallow="pedestrian tram rail_urban rail rail_electric rail_fast ship" speed="36.11" length="39.14" width="3.50" shape="-572.53,-463.24 -610.15,-457.13 -611.16,-456.97"/>
    </edge>
    <edge id=":158_5" function="internal">
        <lane id=":158_5_0" index="0" disallow="pedestrian tram rail_urban rail rail_electric rail_fast ship" speed="12.12" length="34.47" width="3.50" shape="-572.53,-463.24 -576.48,-462.78 -579.13,-462.75 -581.77,-462.99 -584.36,-463.57 -585.61,-464.00 -586.82,-464.53 -587.99,-465.16 -589.09,-465.90 -590.12,-466.73 -591.07,-467.66 -591.94,-468.66 -593.42,-470.85 -594.59,-473.23 -595.48,-475.72 -596.13,-478.29 -596.59,-480.92"/>
    </edge>
    <edge id=":158_6" function="internal">
        <lane id=":158_6_0" index="0" disallow="pedestrian tram rail_urban rail rail_electric rail_fast ship" speed="11.11" length="28.79" width="3.50" shape="-593.13,-481.42 -592.73,-479.12 -592.16,-476.91 -591.41,-474.80 -590.44,-472.81 -589.21,-470.99 -588.53,-470.21 -587.77,-469.48 -586.95,-468.81 -586.07,-468.23 -585.14,-467.72 -584.17,-467.29 -583.18,-466.95 -581.01,-466.47 -578.80,-466.27 -576.55,-466.29 -573.11,-466.69"/>
    </edge>
    <edge id=":158_7" function="internal">
        <lane id=":158_7_0" index="0" disallow="pedestrian tram rail_urban rail rail_electric rail_fast ship" speed="36.11" length="39.15" width="3.50" shape="-593.13,-481.42 -590.38,-462.02 -587.63,-442.66"/>
    </edge>
    <edge id=":158_8" function="internal">
        <lane id=":158_8_0" index="0" disallow="pedestrian tram rail_urban rail rail_electric rail_fast ship" speed="12.35" length="34.73" width="3.50" shape="-593.13,-481.42 -592.77,-477.55 -592.79,-474.98 -593.05,-472.42 -593.61,-469.91 -594.50,-467.50 -595.09,-466.36 -595.76,-465.26 -596.53,-464.23 -597.37,-463.26 -598.29,-462.36 -600.33,-460.80 -602.57,-459.53 -604.93,-458.53 -607.39,-457.76 -611.16,-456.97"/>
    </edge>
    <edge id=":158_9" function="internal">
        <lane id=":158_9_0" index="0" disallow="pedestrian tram rail_urban rail rail_electric rail_fast ship" speed="11.35" length="29.21" width="3.50" shape="-611.71,-460.43 -608.40,-461.11 -606.31,-461.77 -604.31,-462.62 -602.45,-463.67 -600.75,-464.98 -600.03,-465.68 -599.34,-466.47 -598.73,-467.30 -598.18,-468.18 -597.72,-469.08 -596.98,-471.09 -596.51,-473.18 -596.29,-475.35 -596.28,-477.54 -596.59,-480.92"/>
    </edge>
    <edge id=":158_10" function="internal">
        <lane id=":158_10_0" index="0" disallow="pedestrian tram rail_urban rail rail_electric rail_fast ship" speed="36.11" length="39.10" width="3.50" shape="-611.71,-460.43 -610.69,-460.59 -573.11,-466.69"/>
    </edge>
    <edge id=":158_11" function="internal">
        <lane id=":158_11_0" index="0" disallow="pedestrian tram rail_urban rail rail_electric rail_fast ship" speed="12.15" length="34.34" width="3.50" shape="-611.71,-460.43 -609.17,-460.74 -606.59,-460.86 -603.99,-460.73 -601.37,-460.31 -598.83,-459.53 -597.56,-458.97 -596.36,-458.31 -595.22,-457.55 -594.16,-456.69 -593.17,-455.74 -592.28,-454.71 -591.46,-453.60 -590.14,-451.31 -589.12,-448.89 -588.36,-446.39 -587.63,-442.66"/>
    </edge>
    <edge id=":159_0" function="internal">
        <lane id=":159_0_0" index="0" disallow="pedestrian tram rail_urban rail rail_electric rail_fast ship" speed="11.00" length="28.57" width="3.50" shape="-505.03,-502.26 -505.67,-505.50 -506.32,-507.60 -507.19,-509.62 -508.32,-511.51 -508.98,-512.38 -509.72,-513.20 -510.53,-513.95 -511.40,-514.62 -512.33,-515.20 -513.32,-515.70 -514.34,-516.11 -515.39,-516.44 -517.55,-516.85 -519.74,-516.99 -521.94,-516.91 -525.18,-516.48"/>
    </edge>
    <edge id=":159_1" function="internal">
        <lane id=":159_1_0" index="0" disallow="pedestrian tram rail_urban rail rail_electric rail_fast ship" speed="36.11" length="38.95" width="3.50" shape="-505.03,-502.26 -507.88,-521.53 -510.72,-540.79"/>
    </edge>
    <edge id=":159_2" function="internal">
        <lane id=":159_2_0" index="0" disallow="pedestrian tram rail_urban rail rail_electric rail_fast ship" speed="36.11" length="38.93" width="3.50" shape="-507.26,-541.30 -504.42,-522.04 -501.57,-502.79"/>
    </edge>
    <edge id=":159_3" function="internal">
        <lane id=":159_3_0" index="0" disallow="pedestrian tram rail_urban rail rail_electric rail_fast ship" speed="12.47" length="34.73" width="3.50" shape="-507.26,-541.30 -506.90,-537.58 -506.91,-535.03 -507.17,-532.48 -507.74,-529.94 -508.65,-527.51 -509.26,-526.30 -509.96,-525.16 -510.75,-524.09 -511.61,-523.09 -512.58,-522.14 -514.61,-520.54 -516.84,-519.21 -519.17,-518.16 -521.58,-517.34 -525.18,-516.48"/>
    </edge>
    <edge id=":159_4" function="internal">
        <lane id=":159_4_0" index="0" disallow="pedestrian tram rail_urban rail rail_electric rail_fast ship" speed="11.48" length="29.30" width="3.50" shape="-525.83,-519.91 -522.69,-520.67 -520.63,-521.37 -518.65,-522.26 -516.78,-523.37 -515.07,-524.71 -514.30,-525.47 -513.59,-526.29 -512.94,-527.17 -512.37,-528.09 -511.88,-529.06 -511.11,-531.09 -510.64,-533.21 -510.42,-535.38 -510.41,-537.55 -510.72,-540.79"/>
    </edge>
    <edge id=":159_5" function="internal">
        <lane id=":159_5_0" index="0" disallow="pedestrian tram rail_urban rail rail_electric rail_fast ship" speed="12.01" length="34.29" width="3.50" shape="-525.83,-519.91 -522.08,-520.42 -519.48,-520.51 -516.86,-520.34 -514.28,-519.84 -512.96,-519.43 -511.70,-518.92 -510.48,-518.30 -509.31,-517.57 -508.23,-516.73 -507.22,-515.80 -506.30,-514.79 -505.47,-513.68 -504.12,-511.42 -503.08,-509.00 -502.31,-506.50 -501.57,-502.79"/>
    </edge>
    <edge id=":160_0" function="internal">
        <lane id=":160_0_0" index="0" disallow="pedestrian tram rail_urban rail rail_electric rail_fast ship" speed="11.19" length="29.19" width="3.50" shape="-597.12,-484.61 -597.79,-488.08 -598.45,-490.26 -599.31,-492.34 -600.43,-494.29 -601.06,-495.14 -601.77,-495.96 -602.54,-496.71 -603.37,-497.39 -604.26,-497.98 -605.20,-498.50 -606.19,-498.93 -607.19,-499.28 -609.38,-499.77 -611.63,-499.98 -613.90,-499.95 -617.41,-499.55"/>
    </edge>
    <edge id=":160_1" function="internal">
        <lane id=":160_1_0" index="0" disallow="pedestrian tram rail_urban rail rail_electric rail_fast ship" speed="36.11" length="39.41" width="3.50" shape="-597.12,-484.61 -601.09,-511.29 -603.05,-523.57"/>
    </edge>
    <edge id=":160_2" function="internal">
        <lane id=":160_2_0" index="0" disallow="pedestrian tram rail_urban rail rail_electric rail_fast ship" speed="12.56" length="35.11" width="3.50" shape="-597.12,-484.61 -597.48,-488.52 -597.47,-491.12 -597.22,-493.70 -596.68,-496.24 -595.81,-498.69 -595.24,-499.86 -594.59,-500.99 -593.84,-502.05 -593.01,-503.05 -591.14,-504.85 -589.02,-506.36 -586.73,-507.58 -584.32,-508.55 -581.83,-509.30 -579.29,-509.87"/>
    </edge>
    <edge id=":160_3" function="internal">
        <lane id=":160_3_0" index="0" disallow="pedestrian tram rail_urban rail rail_electric rail_fast ship" speed="11.58" length="29.70" width="3.50" shape="-578.64,-506.43 -580.86,-505.94 -583.02,-505.29 -585.08,-504.46 -587.01,-503.42 -588.77,-502.17 -590.33,-500.67 -590.98,-499.88 -591.59,-499.01 -592.12,-498.10 -592.57,-497.17 -593.30,-495.11 -593.75,-492.97 -593.96,-490.77 -593.97,-488.54 -593.65,-485.10"/>
    </edge>
    <edge id=":160_4" function="internal">
        <lane id=":160_4_0" index="0" disallow="pedestrian tram rail_urban rail rail_electric rail_fast ship" speed="36.11" length="39.38" width="3.50" shape="-578.64,-506.43 -606.16,-501.47 -617.41,-499.55"/>
    </edge>
    <edge id=":160_5" function="internal">
        <lane id=":160_5_0" index="0" disallow="pedestrian tram rail_urban rail rail_electric rail_fast ship" speed="12.10" length="34.31" width="3.50" shape="-578.64,-506.43 -582.43,-505.92 -585.03,-505.84 -587.65,-506.03 -590.23,-506.55 -591.54,-506.96 -592.80,-507.48 -594.01,-508.11 -595.17,-508.84 -596.25,-509.68 -597.25,-510.61 -598.17,-511.62 -599.00,-512.72 -600.36,-514.97 -601.43,-517.37 -602.24,-519.84 -603.05,-523.57"/>
    </edge>
    <edge id=":160_6" function="internal">
        <lane id=":160_6_0" index="0" disallow="pedestrian tram rail_urban rail rail_electric rail_fast ship" speed="11.09" length="28.62" width="3.50" shape="-599.59,-524.13 -598.89,-520.90 -598.21,-518.81 -597.32,-516.80 -596.18,-514.91 -595.51,-514.04 -594.77,-513.22 -593.96,-512.48 -593.09,-511.80 -592.16,-511.21 -591.19,-510.70 -590.17,-510.29 -589.12,-509.95 -586.96,-509.52 -584.76,-509.36 -582.56,-509.43 -579.29,-509.87"/>
    </edge>
    <edge id=":160_7" function="internal">
        <lane id=":160_7_0" index="0" disallow="pedestrian tram rail_urban rail rail_electric rail_fast ship" speed="36.11" length="39.48" width="3.50" shape="-599.59,-524.13 -597.63,-511.82 -593.65,-485.10"/>
    </edge>
    <edge id=":160_8" function="internal">
        <lane id=":160_8_0" index="0" disallow="pedestrian tram rail_urban rail rail_electric rail_fast ship" speed="12.31" length="34.79" width="3.50" shape="-599.59,-524.13 -599.16,-520.29 -599.13,-517.72 -599.35,-515.15 -599.88,-512.63 -600.75,-510.21 -601.33,-509.06 -602.00,-507.95 -602.76,-506.91 -603.60,-505.94 -604.52,-505.04 -606.56,-503.47 -608.79,-502.18 -611.16,-501.16 -613.61,-500.38 -617.41,-499.55"/>
    </edge>
    <edge id=":160_9" function="internal">
        <lane id=":160_9_0" index="0" disallow="pedestrian tram rail_urban rail rail_electric rail_fast ship" speed="11.31" length="29.22" width="3.50" shape="-617.98,-503.00 -614.66,-503.72 -612.56,-504.40 -610.56,-505.26 -608.70,-506.32 -607.00,-507.64 -606.28,-508.34 -605.60,-509.13 -604.99,-509.96 -604.45,-510.85 -603.99,-511.75 -603.27,-513.76 -602.83,-515.85 -602.64,-518.02 -602.67,-520.22 -603.05,-523.57"/>
    </edge>
    <edge id=":160_10" function="internal">
        <lane id=":160_10_0" index="0" disallow="pedestrian tram rail_urban rail rail_electric rail_fast ship" speed="36.11" length="39.30" width="3.50" shape="-617.98,-503.00 -606.76,-504.91 -579.29,-509.87"/>
    </edge>
    <edge id=":160_11" function="internal">
        <lane id=":160_11_0" index="0" disallow="pedestrian tram rail_urban rail rail_electric rail_fast ship" speed="12.19" length="34.86" width="3.50" shape="-617.98,-503.00 -613.97,-503.46 -611.29,-503.49 -608.62,-503.24 -606.01,-502.66 -604.74,-502.22 -603.52,-501.69 -602.34,-501.04 -601.23,-500.30 -600.19,-499.45 -599.23,-498.52 -598.35,-497.51 -597.56,-496.43 -596.23,-494.10 -595.20,-491.63 -594.42,-489.07 -593.65,-485.10"/>
    </edge>
    <edge id=":161_0" function="internal">
        <lane id=":161_0_0" index="0" disallow="pedestrian tram rail_urban rail rail_electric rail_fast ship" speed="11.11" length="28.87" width="3.50" shape="-513.09,-556.95 -513.76,-560.38 -514.43,-562.54 -515.30,-564.59 -516.43,-566.50 -517.06,-567.34 -517.77,-568.14 -518.54,-568.86 -519.37,-569.52 -520.26,-570.09 -521.20,-570.58 -522.19,-571.00 -523.19,-571.32 -525.37,-571.78 -527.59,-571.95 -529.85,-571.90 -533.30,-571.47"/>
    </edge>
    <edge id=":161_1" function="internal">
        <lane id=":161_1_0" index="0" disallow="pedestrian tram rail_urban rail rail_electric rail_fast ship" speed="36.11" length="38.93" width="3.50" shape="-513.09,-556.95 -515.89,-576.23 -518.69,-595.48"/>
    </edge>
    <edge id=":161_2" function="internal">
        <lane id=":161_2_0" index="0" disallow="pedestrian tram rail_urban rail rail_electric rail_fast ship" speed="36.11" length="38.92" width="3.50" shape="-515.23,-595.99 -512.43,-576.74 -509.63,-557.48"/>
    </edge>
    <edge id=":161_3" function="internal">
        <lane id=":161_3_0" index="0" disallow="pedestrian tram rail_urban rail rail_electric rail_fast ship" speed="12.39" length="34.63" width="3.50" shape="-515.22,-595.99 -514.88,-592.28 -514.89,-589.74 -515.17,-587.20 -515.75,-584.67 -516.67,-582.26 -517.30,-581.05 -518.00,-579.93 -518.80,-578.87 -519.68,-577.88 -520.65,-576.95 -522.70,-575.38 -524.94,-574.09 -527.27,-573.08 -529.68,-572.29 -533.30,-571.47"/>
    </edge>
    <edge id=":161_4" function="internal">
        <lane id=":161_4_0" index="0" disallow="pedestrian tram rail_urban rail rail_electric rail_fast ship" speed="11.40" length="29.16" width="3.50" shape="-533.91,-574.92 -530.75,-575.63 -528.69,-576.30 -526.71,-577.16 -524.84,-578.24 -523.12,-579.55 -522.34,-580.30 -521.62,-581.10 -520.97,-581.96 -520.39,-582.88 -519.89,-583.83 -519.12,-585.85 -518.63,-587.95 -518.40,-590.10 -518.38,-592.26 -518.69,-595.48"/>
    </edge>
    <edge id=":161_5" function="internal">
        <lane id=":161_5_0" index="0" disallow="pedestrian tram rail_urban rail rail_electric rail_fast ship" speed="12.12" length="34.55" width="3.50" shape="-533.91,-574.92 -529.95,-575.41 -527.29,-575.47 -524.64,-575.26 -522.04,-574.72 -520.78,-574.30 -519.55,-573.79 -518.38,-573.17 -517.26,-572.45 -516.22,-571.63 -515.25,-570.72 -514.37,-569.73 -513.57,-568.66 -512.22,-566.37 -511.18,-563.93 -510.40,-561.39 -509.63,-557.48"/>
    </edge>
    <edge id=":162_0" function="internal">
        <lane id=":162_0_0" index="0" disallow="pedestrian tram rail_urban rail rail_electric rail_fast ship" speed="11.09" length="28.76" width="3.50" shape="-613.77,-589.39 -614.47,-592.64 -615.15,-594.74 -616.03,-596.77 -617.16,-598.67 -617.82,-599.56 -618.56,-600.38 -619.36,-601.15 -620.22,-601.83 -621.15,-602.44 -622.13,-602.95 -623.15,-603.38 -624.20,-603.73 -626.36,-604.17 -628.57,-604.34 -630.78,-604.26 -634.07,-603.81"/>
    </edge>
    <edge id=":162_1" function="internal">
        <lane id=":162_1_0" index="0" disallow="pedestrian tram rail_urban rail rail_electric rail_fast ship" speed="36.11" length="31.73" width="3.50" shape="-613.77,-589.40 -619.81,-620.55"/>
    </edge>
    <edge id=":162_2" function="internal">
        <lane id=":162_2_0" index="0" disallow="pedestrian tram rail_urban rail rail_electric rail_fast ship" speed="12.26" length="34.71" width="3.50" shape="-613.77,-589.39 -614.21,-593.38 -614.24,-596.05 -614.00,-598.70 -613.44,-601.31 -613.02,-602.58 -612.51,-603.81 -611.89,-605.00 -611.17,-606.12 -610.36,-607.18 -609.45,-608.16 -608.47,-609.06 -607.41,-609.88 -605.13,-611.27 -602.70,-612.36 -600.16,-613.19 -596.25,-614.04"/>
    </edge>
    <edge id=":162_3" function="internal">