<routes>
	<vehicle depart="0.1" departLane="0" departPos="39.67056299861356" departSpeed="0.0" id="321" type="bicycle">
		<route edges="778 147"/>
	</vehicle>
	<vehicle depart="0.1" departLane="0" departPos="107.94311530394768" departSpeed="0.0041226647" id="324" type="bicycle">
		<route edges="40 25"/>
	</vehicle>
	<vehicle depart="0.1" departLane="0" departPos="36.210435137276846" departSpeed="6.9199694" id="374" type="bicycle">
		<route edges="146 143"/>
	</vehicle>
	<vehicle depart="0.1" departLane="0" departPos="24.155140975332994" departSpeed="6.8695786" id="384" type="bicycle">
		<route edges="345 140"/>
	</vehicle>
	<vehicle depart="0.1" departLane="0" departPos="35.487591694514514" departSpeed="0.0" id="340" type="bus">
		<route edges="778 147"/>
	</vehicle>
	<vehicle depart="0.1" departLane="0" departPos="60.08929894150588" departSpeed="7.8490611" id="393" type="bus">
		<route edges="26 141 144 147 330"/>
	</vehicle>
	<vehicle depart="0.1" departLane="0" departPos="39.59260537538233" departSpeed="6.6141242" id="396" type="bus">
		<route edges="329 146 143"/>
	</vehicle>
	<vehicle depart="0.1" departLane="0" departPos="16.162326603416854" departSpeed="0.0" id="32" type="passenger">
		<route edges="140 41"/>
	</vehicle>
	<vehicle depart="0.1" departLane="0" departPos="45.30083856350529" departSpeed="0.0" id="34" type="passenger">
		<route edges="778 147"/>
	</vehicle>
	<vehicle depart="0.1" departLane="0" departPos="189.09273957449457" departSpeed="0.0" id="37" type="passenger">
		<route edges="146 143"/>
	</vehicle>
	<vehicle depart="0.1" departLane="0" departPos="32.69821930123163" departSpeed="0.0" id="38" type="passenger">
		<route edges="965 341"/>
	</vehicle>
	<vehicle depart="0.1" departLane="0" departPos="9.822318358142873" departSpeed="0.0" id="39" type="passenger">
		<route edges="140 41"/>
	</vehicle>
	<vehicle depart="0.1" departLane="0" departPos="178.99887470125583" departSpeed="0.0" id="314" type="passenger">
		<route edges="345 140"/>
	</vehicle>
	<vehicle depart="0.1" departLane="0" departPos="2.5" departSpeed="0.0" id="315" type="passenger">
		<route edges=":50_2 140"/>
	</vehicle>
	<vehicle depart="0.1" departLane="0" departPos="171.49730038653806" departSpeed="0.0" id="322" type="passenger">
		<route edges="345 140"/>
	</vehicle>
	<vehicle depart="0.1" departLane="0" departPos="25.673845867024035" departSpeed="7.051094e-05" id="323" type="passenger">
		<route edges="965 341"/>
	</vehicle>
	<vehicle depart="0.1" departLane="0" departPos="164.00070112856739" departSpeed="7.5098209e-05" id="325" type="passenger">
		<route edges="345 140"/>
	</vehicle>
	<vehicle depart="0.1" departLane="0" departPos="18.703371785527082" departSpeed="0.00076204155" id="333" type="passenger">
		<route edges="965 341"/>
	</vehicle>
	<vehicle depart="0.1" departLane="0" departPos="182.23845135676416" departSpeed="0.0" id="335" type="passenger">
		<route edges="146 143"/>
	</vehicle>
	<vehicle depart="0.1" departLane="0" departPos="156.496538301747" departSpeed="0.00091707309" id="336" type="passenger">
		<route edges="345 140"/>
	</vehicle>
	<vehicle depart="0.1" departLane="0" departPos="175.2633173165556" departSpeed="1.7151086e-05" id="337" type="passenger">
		<route edges="146 143"/>
	</vehicle>
	<vehicle depart="0.1" departLane="0" departPos="113.47598426699714" departSpeed="1.4738937e-05" id="338" type="passenger">
		<route edges="40 25"/>
	</vehicle>
	<vehicle depart="0.1" departLane="0" departPos="167.88760546276802" departSpeed="0.00023013469" id="343" type="passenger">
		<route edges="146 143"/>
	</vehicle>
	<vehicle depart="0.1" departLane="0" departPos="149.33725973722528" departSpeed="0.0077683475" id="346" type="passenger">
		<route edges="345 140"/>
	</vehicle>
	<vehicle depart="0.1" departLane="0" departPos="146.18978690093596" departSpeed="24.915802" id="347" type="passenger">
		<route edges="344 341"/>
	</vehicle>
	<vehicle depart="0.1" departLane="0" departPos="160.62062935680356" departSpeed="0.0017160082" id="350" type="passenger">
		<route edges="146 143"/>
	</vehicle>
	<vehicle depart="0.1" departLane="0" departPos="153.68124368694316" departSpeed="0.0099599892" id="351" type="passenger">
		<route edges="146 143"/>
	</vehicle>
	<vehicle depart="0.1" departLane="0" departPos="21.111179948260187" departSpeed="0.0" id="353" type="passenger">
		<route edges="778 147"/>
	</vehicle>
	<vehicle depart="0.1" departLane="0" departPos="142.53907852411282" departSpeed="0.047000075" id="354" type="passenger">
		<route edges="345 140"/>
	</vehicle>
	<vehicle depart="0.1" departLane="0" departPos="146.475572535814" departSpeed="0.044435556" id="355" type="passenger">
		<route edges="146 143"/>
	</vehicle>
	<vehicle depart="0.1" departLane="0" departPos="103.20272648959076" departSpeed="21.404376" id="356" type="passenger">
		<route edges="344 966"/>
	</vehicle>
	<vehicle depart="0.1" departLane="0" departPos="138.9601144893679" departSpeed="0.15459563" id="357" type="passenger">
		<route edges="146 143"/>
	</vehicle>
	<vehicle depart="0.1" departLane="0" departPos="106.1074064760152" departSpeed="0.00073310174" id="358" type="passenger">
		<route edges="40 25"/>
	</vehicle>
	<vehicle depart="0.1" departLane="0" departPos="135.61479849242826" departSpeed="0.22489835" id="360" type="passenger">
		<route edges="345 140"/>
	</vehicle>
	<vehicle depart="0.1" departLane="0" departPos="131.4441474251892" departSpeed="0.45972195" id="361" type="passenger">
		<route edges="146 143"/>
	</vehicle>
	<vehicle depart="0.1" departLane="0" departPos="121.80389187763906" departSpeed="7.5030435" id="363" type="passenger">
		<route edges="41 44"/>
	</vehicle>
	<vehicle depart="0.1" departLane="0" departPos="14.276429646981779" departSpeed="0.0" id="364" type="passenger">
		<route edges="778 147"/>
	</vehicle>
	<vehicle depart="0.1" departLane="0" departPos="123.52607206834368" departSpeed="1.1087075" id="365" type="passenger">
		<route edges="146 143"/>
	</vehicle>
	<vehicle depart="0.1" departLane="0" departPos="127.69469692085438" departSpeed="0.81445363" id="367" type="passenger">
		<route edges="345 140"/>
	</vehicle>
	<vehicle depart="0.1" departLane="0" departPos="98.45862189593126" departSpeed="0.22230307" id="370" type="passenger">
		<route edges="40 25"/>
	</vehicle>
	<vehicle depart="0.1" departLane="0" departPos="114.2046071306668" departSpeed="2.0073945" id="371" type="passenger">
		<route edges="146 143"/>
	</vehicle>
	<vehicle depart="0.1" departLane="0" departPos="103.43782962408639" departSpeed="3.0932857" id="372" type="passenger">
		<route edges="146 143"/>
	</vehicle>
	<vehicle depart="0.1" departLane="0" departPos="45.28280254749566" departSpeed="18.410702" id="375" type="passenger">
		<route edges="147 330"/>
	</vehicle>
	<vehicle depart="0.1" departLane="0" departPos="90.37456360756823" departSpeed="0.87673734" id="376" type="passenger">
		<route edges="40 25"/>
	</vehicle>
	<vehicle depart="0.1" departLane="0" departPos="7.592200227042348" departSpeed="4.5316359e-05" id="377" type="passenger">
		<route edges="778 147"/>
	</vehicle>
	<vehicle depart="0.1" departLane="0" departPos="90.79888953539091" departSpeed="4.8323678" id="378" type="passenger">
		<route edges="146 143"/>
	</vehicle>
	<vehicle depart="0.1" departLane="0" departPos="39.79728960581883" departSpeed="13.379639" id="380" type="passenger">
		<route edges="41 44"/>
	</vehicle>
	<vehicle depart="0.1" departLane="0" departPos="81.26470824389497" departSpeed="1.7796727" id="381" type="passenger">
		<route edges="40 25"/>
	</vehicle>
	<vehicle depart="0.1" departLane="0" departPos="74.8933715742397" departSpeed="6.8889357" id="383" type="passenger">
		<route edges="146 143"/>
	</vehicle>
	<vehicle depart="0.1" departLane="0" departPos="20.885166243583217" departSpeed="11.430952" id="385" type="passenger">
		<route edges="41 44"/>
	</vehicle>
	<vehicle depart="0.1" departLane="0" departPos="70.59356761521376" departSpeed="2.7865151" id="386" type="passenger">
		<route edges="40 25"/>
	</vehicle>
	<vehicle depart="0.1" departLane="0" departPos="56.56608462236585" departSpeed="8.7971345" id="387" type="passenger">
		<route edges="146 143"/>
	</vehicle>
	<vehicle depart="0.1" departLane="0" departPos="2.5" departSpeed="8.7041883" id="388" type="passenger">
		<route edges="41 44"/>
	</vehicle>
	<vehicle depart="0.1" departLane="0" departPos="34.84586537887148" departSpeed="11.187396" id="390" type="passenger">
		<route edges="146 143"/>
	</vehicle>
	<vehicle depart="0.1" departLane="0" departPos="8.253903114781334" departSpeed="14.139211" id="391" type="passenger">
		<route edges="146 143"/>
	</vehicle>
	<vehicle depart="0.1" departLane="0" departPos="2.5" departSpeed="10.331711" id="392" type="passenger">
		<route edges="345 140"/>
	</vehicle>
	<vehicle depart="0.1" departLane="0" departPos="38.55311514599009" departSpeed="7.3028686" id="394" type="passenger">
		<route edges="26 41 44"/>
	</vehicle>
	<vehicle depart="0.1" departLane="0" departPos="2.5" departSpeed="9.5979921" id="395" type="passenger">
		<route edges=":54_5 345 140"/>
	</vehicle>
	<vehicle depart="0.1" departLane="0" departPos="24.821498615142346" departSpeed="6.7587016" id="398" type="passenger">
		<route edges="26 141 144 147 330"/>
	</vehicle>
	<vehicle depart="0.1" departLane="0" departPos="11.893644821177256" departSpeed="5.1340821" id="3100" type="passenger">
		<route edges="26 141 144"/>
	</vehicle>
	<vehicle depart="0.1" departLane="0" departPos="1.25" departSpeed="5.3841023" id="349" type="motorcycle">
		<route edges=":50_0 344 966"/>
	</vehicle>
	<vehicle depart="0.1" departLane="0" departPos="104.07832932913172" departSpeed="0.11045514" id="366" type="motorcycle">
		<route edges="40 25"/>
	</vehicle>
	<vehicle depart="0.1" departLane="0" departPos="123.03466208710591" departSpeed="0.0" id="30" type="truck">
		<route edges="40 25"/>
	</vehicle>
	<vehicle depart="0.1" departLane="0" departPos="20.255487440038603" departSpeed="11.186171" id="389" type="truck">
		<route edges="345 140"/>
	</vehicle>
	<vehicle depart="0.1" departLane="0" departPos="20.209782649552896" departSpeed="5.2936931" id="399" type="truck">
		<route edges="342 966"/>
	</vehicle>
</routes>
