<!-- generated on Tue Feb  9 22:12:42 2021 by Eclipse SUMO netconvert Version 1.8.0
<configuration xmlns:xsi="http://www.w3.org/2001/XMLSchema-instance" xsi:noNamespaceSchemaLocation="http://sumo.dlr.de/xsd/netconvertConfiguration.xsd">

    <input>
        <node-files value="./converted_scenarios/scenario-factory/DEU_Guetersloh-9_6_I-1-1/DEU_Guetersloh-9_6_I-1-1.nod.xml"/>
        <edge-files value="./converted_scenarios/scenario-factory/DEU_Guetersloh-9_6_I-1-1/DEU_Guetersloh-9_6_I-1-1.edg.xml"/>
        <connection-files value="./converted_scenarios/scenario-factory/DEU_Guetersloh-9_6_I-1-1/DEU_Guetersloh-9_6_I-1-1.con.xml"/>
        <tllogic-files value="./converted_scenarios/scenario-factory/DEU_Guetersloh-9_6_I-1-1/DEU_Guetersloh-9_6_I-1-1.tll.xml"/>
        <type-files value="/home/zen/commonroad-interactive-benchmarks/install/commonroad-map-tool/crmapconverter/sumo_map/templates/DEU.typ.xml"/>
    </input>

    <output>
        <output-file value="./converted_scenarios/scenario-factory/DEU_Guetersloh-9_6_I-1-1/DEU_Guetersloh-9_6_I-1-1.net.xml"/>
    </output>

    <processing>
        <geometry.remove.keep-edges.explicit value="true"/>
        <geometry.avoid-overlap value="true"/>
        <offset.disable-normalization value="true"/>
    </processing>

    <junctions>
        <no-turnarounds value="true"/>
        <junctions.internal-link-detail value="20"/>
    </junctions>

    <report>
        <aggregate-warnings value="5"/>
    </report>

    <random_number>
        <seed value="1234"/>
    </random_number>

</configuration>
--><net xmlns:xsi="http://www.w3.org/2001/XMLSchema-instance" version="1.6" junctionCornerDetail="5" junctionLinkDetail="20" limitTurnSpeed="5.50" xsi:noNamespaceSchemaLocation="http://sumo.dlr.de/xsd/net_file.xsd">

    <location netOffset="0.00,0.00" convBoundary="129.91,153.95,499.49,452.13" origBoundary="129.91,153.95,499.49,452.13" projParameter="!"/>

    <type id="highway.bridleway" priority="1" speed="2.78" allow="pedestrian" oneway="1" width="2.00"/>
    <type id="highway.bus_guideway" priority="1" speed="27.78" allow="bus" oneway="1"/>
    <type id="highway.cycleway" priority="1" speed="8.33" allow="bicycle" oneway="0" width="1.00"/>
    <type id="highway.footway" priority="1" speed="2.78" allow="pedestrian" oneway="1" width="2.00"/>
    <type id="highway.ford" priority="1" speed="2.78" allow="army" oneway="0"/>
    <type id="highway.living_street" priority="2" speed="2.78" disallow="tram rail_urban rail rail_electric rail_fast ship" oneway="0"/>
    <type id="highway.motorway" priority="14" speed="39.44" allow="private emergency authority army vip passenger hov taxi bus coach delivery truck trailer motorcycle evehicle custom1 custom2" oneway="1"/>
    <type id="highway.motorway_link" priority="9" speed="22.22" allow="private emergency authority army vip passenger hov taxi bus coach delivery truck trailer motorcycle evehicle custom1 custom2" oneway="1"/>
    <type id="highway.path" priority="1" speed="2.78" allow="pedestrian bicycle" oneway="0" width="2.00"/>
    <type id="highway.pedestrian" priority="1" speed="2.78" allow="pedestrian" oneway="1" width="2.00"/>
    <type id="highway.primary" priority="12" speed="27.78" disallow="pedestrian tram rail_urban rail rail_electric rail_fast ship" oneway="0"/>
    <type id="highway.primary_link" priority="7" speed="22.22" disallow="pedestrian tram rail_urban rail rail_electric rail_fast ship" oneway="0"/>
    <type id="highway.raceway" priority="15" speed="83.33" allow="vip" oneway="0"/>
    <type id="highway.residential" priority="3" speed="13.89" disallow="pedestrian tram rail_urban rail rail_electric rail_fast ship" oneway="0"/>
    <type id="highway.secondary" priority="11" speed="27.78" disallow="pedestrian tram rail_urban rail rail_electric rail_fast ship" oneway="0"/>
    <type id="highway.secondary_link" priority="6" speed="22.22" disallow="pedestrian tram rail_urban rail rail_electric rail_fast ship" oneway="0"/>
    <type id="highway.service" priority="1" speed="5.56" allow="pedestrian delivery bicycle" oneway="0"/>
    <type id="highway.stairs" priority="1" speed="1.39" allow="pedestrian" oneway="1" width="2.00"/>
    <type id="highway.step" priority="1" speed="1.39" allow="pedestrian" oneway="1" width="2.00"/>
    <type id="highway.steps" priority="1" speed="1.39" allow="pedestrian" oneway="1" width="2.00"/>
    <type id="highway.tertiary" priority="10" speed="22.22" disallow="pedestrian tram rail_urban rail rail_electric rail_fast ship" oneway="0"/>
    <type id="highway.tertiary_link" priority="5" speed="22.22" disallow="pedestrian tram rail_urban rail rail_electric rail_fast ship" oneway="0"/>
    <type id="highway.track" priority="1" speed="5.56" allow="pedestrian motorcycle moped bicycle" oneway="0"/>
    <type id="highway.trunk" priority="13" speed="27.78" disallow="pedestrian bicycle tram rail_urban rail rail_electric rail_fast ship" oneway="0"/>
    <type id="highway.trunk_link" priority="8" speed="22.22" disallow="pedestrian bicycle tram rail_urban rail rail_electric rail_fast ship" oneway="0"/>
    <type id="highway.unclassified" priority="4" speed="13.89" disallow="pedestrian tram rail_urban rail rail_electric rail_fast ship" oneway="0"/>
    <type id="highway.unsurfaced" priority="1" speed="8.33" disallow="tram rail_urban rail rail_electric rail_fast ship" oneway="0"/>
    <type id="railway.highspeed" priority="21" speed="69.44" allow="rail_fast" oneway="1"/>
    <type id="railway.light_rail" priority="19" speed="27.78" allow="rail_urban" oneway="1"/>
    <type id="railway.preserved" priority="16" speed="27.78" allow="rail" oneway="1"/>
    <type id="railway.rail" priority="20" speed="44.44" allow="rail" oneway="1"/>
    <type id="railway.subway" priority="18" speed="27.78" allow="rail_urban" oneway="1"/>
    <type id="railway.tram" priority="17" speed="13.89" allow="tram" oneway="1"/>

    <edge id=":79_0" function="internal">
        <lane id=":79_0_0" index="0" disallow="pedestrian tram rail_urban rail rail_electric rail_fast ship" speed="36.11" length="37.75" width="3.50" shape="286.43,317.63 276.33,316.21 266.18,315.15 255.99,314.46 248.86,314.21"/>
    </edge>
    <edge id=":79_1" function="internal">
        <lane id=":79_1_0" index="0" disallow="pedestrian tram rail_urban rail rail_electric rail_fast ship" speed="13.81" length="35.36" width="3.50" shape="286.43,317.63 284.06,317.15 281.72,316.47 279.43,315.55 277.25,314.39 275.21,312.97 273.34,311.33 271.69,309.48 270.26,307.47 269.04,305.34 268.03,303.11 266.88,299.71 266.07,296.22 265.54,292.69"/>
    </edge>
    <edge id=":79_2" function="internal">
        <lane id=":79_2_0" index="0" disallow="pedestrian tram rail_urban rail rail_electric rail_fast ship" speed="12.90" length="30.76" width="3.50" shape="269.02,292.31 269.49,295.46 270.20,298.56 271.21,301.58 272.08,303.52 273.11,305.37 274.33,307.11 275.73,308.71 277.31,310.12 279.04,311.35 280.91,312.36 282.87,313.16 284.91,313.76 286.98,314.17"/>
    </edge>
    <edge id=":79_3" function="internal">
        <lane id=":79_3_0" index="0" disallow="pedestrian tram rail_urban rail rail_electric rail_fast ship" speed="11.88" length="35.34" width="3.50" shape="269.02,292.31 269.27,296.38 269.16,299.10 268.77,301.79 268.44,303.11 268.02,304.40 267.48,305.65 266.84,306.85 266.08,307.97 265.21,309.02 264.23,309.96 263.16,310.80 262.02,311.54 260.81,312.17 259.56,312.70 256.96,313.48 254.28,313.95 251.57,314.18 248.86,314.21"/>
    </edge>
    <edge id=":79_4" function="internal">
        <lane id=":79_4_0" index="0" disallow="pedestrian tram rail_urban rail rail_electric rail_fast ship" speed="10.85" length="29.29" width="3.50" shape="248.89,310.71 251.29,310.69 253.61,310.49 255.87,310.10 258.06,309.44 259.05,309.02 260.02,308.52 260.92,307.94 261.76,307.28 262.52,306.54 263.20,305.73 263.79,304.85 264.30,303.91 264.73,302.91 265.07,301.86 265.34,300.81 265.67,298.53 265.76,296.24 265.54,292.69"/>
    </edge>
    <edge id=":79_5" function="internal">
        <lane id=":79_5_0" index="0" disallow="pedestrian tram rail_urban rail rail_electric rail_fast ship" speed="36.11" length="38.27" width="3.50" shape="248.89,310.71 256.17,310.97 266.48,311.66 276.75,312.74 286.98,314.17"/>
    </edge>
    <edge id=":80_0" function="internal">
        <lane id=":80_0_0" index="0" disallow="pedestrian tram rail_urban rail rail_electric rail_fast ship" speed="36.11" length="32.58" width="3.50" shape="332.42,325.16 325.18,323.90 300.28,319.81"/>
    </edge>
    <edge id=":80_1" function="internal">
        <lane id=":80_1_0" index="0" disallow="pedestrian tram rail_urban rail rail_electric rail_fast ship" speed="11.22" length="30.89" width="3.50" shape="332.42,325.16 331.09,324.88 328.59,324.07 327.30,323.46 326.10,322.74 324.97,321.88 323.95,320.88 323.05,319.77 322.30,318.56 321.70,317.28 321.24,315.97 320.91,314.64 320.69,313.28 320.54,310.67 320.67,308.06 321.23,304.29 322.12,300.61"/>
    </edge>
    <edge id=":80_2" function="internal">
        <lane id=":80_2_0" index="0" disallow="pedestrian tram rail_urban rail rail_electric rail_fast ship" speed="10.14" length="24.98" width="3.50" shape="325.49,301.54 324.72,304.71 324.21,307.93 324.08,310.10 324.16,312.27 324.30,313.34 324.53,314.40 324.85,315.44 325.27,316.44 325.80,317.39 326.44,318.26 327.19,319.05 328.03,319.74 328.95,320.32 329.92,320.80 331.97,321.49 333.04,321.72"/>
    </edge>
    <edge id=":80_3" function="internal">
        <lane id=":80_3_0" index="0" disallow="pedestrian tram rail_urban rail rail_electric rail_fast ship" speed="12.85" length="34.81" width="3.50" shape="325.49,301.54 324.30,305.23 322.75,308.77 321.48,311.01 319.99,313.12 318.27,315.04 316.31,316.70 314.12,318.07 311.76,319.09 309.27,319.77 306.71,320.12 304.14,320.17 301.57,319.98 300.28,319.81"/>
    </edge>
    <edge id=":80_4" function="internal">
        <lane id=":80_4_0" index="0" disallow="pedestrian tram rail_urban rail rail_electric rail_fast ship" speed="11.89" length="29.67" width="3.50" shape="300.82,316.35 301.92,316.50 304.16,316.67 306.36,316.61 308.51,316.31 310.57,315.74 312.52,314.88 314.32,313.74 315.94,312.34 317.38,310.72 318.63,308.92 319.71,306.99 321.07,303.86 322.12,300.61"/>
    </edge>
    <edge id=":80_5" function="internal">
        <lane id=":80_5_0" index="0" disallow="pedestrian tram rail_urban rail rail_electric rail_fast ship" speed="36.11" length="32.66" width="3.50" shape="300.82,316.35 325.77,320.45 333.04,321.72"/>
    </edge>
    <edge id=":81_0" function="internal">
        <lane id=":81_0_0" index="0" disallow="pedestrian tram rail_urban rail rail_electric rail_fast ship" speed="8.86" length="21.48" width="3.50" shape="362.41,330.32 359.22,329.86 356.01,329.58 353.86,329.53 351.71,329.65 350.65,329.80 349.60,330.03 348.57,330.35 347.60,330.79 346.71,331.39 345.96,332.16 345.42,333.09 345.11,334.12 345.01,335.19 345.08,336.26"/>
    </edge>
    <edge id=":81_1" function="internal">
        <lane id=":81_1_0" index="0" disallow="pedestrian tram rail_urban rail rail_electric rail_fast ship" speed="36.11" length="30.21" width="3.50" shape="362.41,330.32 347.54,327.77 332.64,325.20"/>
    </edge>
    <edge id=":81_2" function="internal">
        <lane id=":81_2_0" index="0" disallow="pedestrian tram rail_urban rail rail_electric rail_fast ship" speed="36.11" length="30.17" width="3.50" shape="333.25,321.76 348.14,324.32 362.98,326.87"/>
    </edge>
    <edge id=":81_3" function="internal">
        <lane id=":81_3_0" index="0" disallow="pedestrian tram rail_urban rail rail_electric rail_fast ship" speed="10.75" length="20.24" width="3.50" shape="333.25,321.76 334.60,322.05 335.88,322.46 337.12,322.98 338.30,323.64 339.40,324.41 340.41,325.31 341.31,326.30 342.11,327.39 342.80,328.55 343.38,329.76 344.28,332.30 344.88,334.93 345.08,336.26"/>
    </edge>
    <edge id=":81_4" function="internal">
        <lane id=":81_4_0" index="0" disallow="pedestrian tram rail_urban rail rail_electric rail_fast ship" speed="9.51" length="15.77" width="3.50" shape="341.61,336.70 341.45,335.62 340.96,333.43 340.24,331.35 339.80,330.42 339.28,329.51 338.69,328.68 338.02,327.92 337.28,327.24 336.47,326.65 335.60,326.16 334.67,325.75 333.69,325.44 332.64,325.20"/>
    </edge>
    <edge id=":81_5" function="internal">
        <lane id=":81_5_0" index="0" disallow="pedestrian tram rail_urban rail rail_electric rail_fast ship" speed="10.08" length="28.11" width="3.50" shape="341.61,336.71 341.50,335.28 341.58,333.78 341.91,332.26 342.56,330.78 343.51,329.47 344.69,328.40 345.99,327.60 347.33,327.02 348.69,326.61 350.07,326.33 352.71,326.07 355.35,326.05 359.20,326.34 362.98,326.87"/>
    </edge>
    <edge id=":82_0" function="internal">
        <lane id=":82_0_0" index="0" disallow="pedestrian tram rail_urban rail rail_electric rail_fast ship" speed="12.32" length="30.09" width="3.49" shape="238.85,314.10 236.71,314.19 234.58,314.49 232.50,315.03 230.50,315.83 228.63,316.89 226.93,318.20 225.42,319.73 224.11,321.43 222.99,323.27 222.05,325.20 220.93,328.22 220.10,331.34 219.68,333.45"/>
    </edge>
    <edge id=":82_1" function="internal">
        <lane id=":82_1_0" index="0" disallow="pedestrian tram rail_urban rail rail_electric rail_fast ship" speed="36.11" length="38.94" width="3.50" shape="238.85,314.10 219.40,314.20 199.91,314.29"/>
    </edge>
    <edge id=":82_2" function="internal">
        <lane id=":82_2_0" index="0" disallow="pedestrian tram rail_urban rail rail_electric rail_fast ship" speed="36.11" length="38.94" width="3.50" shape="199.90,310.79 219.39,310.70 238.84,310.60"/>
    </edge>
    <edge id=":82_3" function="internal">
        <lane id=":82_3_0" index="0" disallow="pedestrian tram rail_urban rail rail_electric rail_fast ship" speed="11.71" length="36.20" width="3.49" shape="199.90,310.79 204.09,310.96 206.85,311.33 209.55,311.98 210.87,312.43 212.15,312.98 213.38,313.62 214.55,314.38 215.63,315.25 216.62,316.24 217.49,317.32 218.24,318.50 218.85,319.74 219.35,321.05 219.72,322.39 220.16,325.13 220.25,327.91 220.07,330.69 219.68,333.45"/>
    </edge>
    <edge id=":82_4" function="internal">
        <lane id=":82_4_0" index="0" disallow="pedestrian tram rail_urban rail rail_electric rail_fast ship" speed="10.68" length="29.91" width="3.50" shape="216.23,332.84 216.57,330.46 216.72,328.08 216.65,325.74 216.28,323.45 215.98,322.40 215.59,321.37 215.11,320.40 214.53,319.49 213.85,318.65 213.09,317.89 212.24,317.22 211.31,316.62 210.33,316.10 209.28,315.66 208.22,315.30 205.92,314.75 203.58,314.44 199.91,314.29"/>
    </edge>
    <edge id=":82_5" function="internal">
        <lane id=":82_5_0" index="0" disallow="pedestrian tram rail_urban rail rail_electric rail_fast ship" speed="13.25" length="35.00" width="3.50" shape="216.23,332.84 216.71,330.46 217.65,326.95 218.95,323.53 220.05,321.29 221.38,319.16 222.95,317.17 224.76,315.38 226.82,313.84 229.06,312.60 231.44,311.67 233.89,311.05 236.38,310.70 238.84,310.60"/>
    </edge>
    <edge id=":83_0" function="internal">
        <lane id=":83_0_0" index="0" disallow="pedestrian tram rail_urban rail rail_electric rail_fast ship" speed="9.58" length="17.42" width="3.50" shape="256.87,236.09 256.14,233.38 255.11,230.77 253.75,228.32 252.42,226.52 250.87,224.91 249.12,223.50 247.17,222.30"/>
    </edge>
    <edge id=":83_1" function="internal">
        <lane id=":83_1_0" index="0" disallow="pedestrian tram rail_urban rail rail_electric rail_fast ship" speed="36.11" length="37.77" width="3.50" shape="256.87,236.09 256.41,234.06 253.39,221.85 247.35,199.54"/>
    </edge>
    <edge id=":83_2" function="internal">
        <lane id=":83_2_0" index="0" disallow="pedestrian tram rail_urban rail rail_electric rail_fast ship" speed="36.11" length="37.95" width="3.50" shape="250.73,198.61 256.78,221.00 259.83,233.28 260.29,235.33"/>
    </edge>
    <edge id=":83_3" function="internal">
        <lane id=":83_3_0" index="0" disallow="pedestrian tram rail_urban rail rail_electric rail_fast ship" speed="8.47" length="19.21" width="3.50" shape="250.73,198.61 251.56,202.30 251.88,205.43 251.81,207.94 251.50,209.80 250.93,211.59 250.05,213.27 248.89,214.75 247.48,216.00 247.19,216.19"/>
    </edge>
    <edge id=":84_0" function="internal">
        <lane id=":84_0_0" index="0" disallow="pedestrian tram rail_urban rail rail_electric rail_fast ship" speed="36.11" length="36.71" width="3.50" shape="417.52,339.14 406.03,337.49 381.25,333.49"/>
    </edge>
    <edge id=":84_1" function="internal">
        <lane id=":84_1_0" index="0" disallow="pedestrian tram rail_urban rail rail_electric rail_fast ship" speed="9.02" length="19.36" width="3.50" shape="417.52,339.14 414.54,338.62 411.71,337.79 409.55,336.85 407.53,335.62 406.17,334.48 404.98,333.18 403.98,331.72 403.18,330.14 402.69,328.63"/>
    </edge>
    <edge id=":84_2" function="internal">
        <lane id=":84_2_0" index="0" disallow="pedestrian tram rail_urban rail rail_electric rail_fast ship" speed="8.46" length="15.61" width="3.50" shape="381.81,330.03 385.30,330.44 388.22,330.45 390.55,330.18 392.82,329.61 394.97,328.69 396.45,327.75 396.76,327.50"/>
    </edge>
    <edge id=":84_3" function="internal">
        <lane id=":84_3_0" index="0" disallow="pedestrian tram rail_urban rail rail_electric rail_fast ship" speed="36.11" length="36.53" width="3.50" shape="381.81,330.03 406.53,334.03 417.90,335.65"/>
    </edge>
    <edge id=":85_0" function="internal">
        <lane id=":85_0_0" index="0" disallow="pedestrian tram rail_urban rail rail_electric rail_fast ship" speed="11.60" length="27.96" width="3.50" shape="358.56,358.13 355.77,356.43 353.85,355.46 351.86,354.64 349.81,354.02 347.69,353.62 345.55,353.51 343.41,353.71 341.33,354.25 339.35,355.09 337.52,356.21 335.84,357.55 334.31,359.06 333.61,359.85"/>
    </edge>
    <edge id=":85_1" function="internal">
        <lane id=":85_1_0" index="0" disallow="pedestrian tram rail_urban rail rail_electric rail_fast ship" speed="16.09" length="27.89" width="3.50" shape="358.56,358.13 354.74,355.41 351.16,352.46 348.66,350.04 346.38,347.41 344.40,344.54 343.31,342.50 342.44,340.35 341.83,338.11 341.64,336.96"/>
    </edge>
    <edge id=":85_2" function="internal">
        <lane id=":85_2_0" index="0" disallow="pedestrian tram rail_urban rail rail_electric rail_fast ship" speed="15.07" length="24.87" width="3.50" shape="345.11,336.51 345.27,337.44 345.79,339.36 346.56,341.20 347.53,342.96 349.32,345.50 351.39,347.84 353.68,350.02 356.98,352.72 360.46,355.20"/>
    </edge>
    <edge id=":85_3" function="internal">
        <lane id=":85_3_0" index="0" disallow="pedestrian tram rail_urban rail rail_electric rail_fast ship" speed="16.38" length="26.65" width="3.50" shape="345.11,336.51 345.20,337.80 345.14,339.11 344.73,341.50 344.01,343.78 343.10,345.95 341.50,348.98 339.69,351.87 337.08,355.52 333.61,359.85"/>
    </edge>
    <edge id=":85_4" function="internal">
        <lane id=":85_4_0" index="0" disallow="pedestrian tram rail_urban rail rail_electric rail_fast ship" speed="15.34" length="23.77" width="3.50" shape="330.93,357.60 334.17,353.58 336.59,350.23 338.27,347.62 339.75,344.90 340.59,343.01 341.25,341.05 341.65,339.03 341.71,337.99 341.64,336.96"/>
    </edge>
    <edge id=":85_5" function="internal">
        <lane id=":85_5_0" index="0" disallow="pedestrian tram rail_urban rail rail_electric rail_fast ship" speed="12.58" length="33.08" width="3.50" shape="330.93,357.60 331.76,356.65 333.54,354.90 335.53,353.30 337.72,351.95 340.11,350.90 342.64,350.23 345.24,349.95 347.83,350.06 350.36,350.51 352.79,351.23 355.11,352.17 357.34,353.29 360.46,355.20"/>
    </edge>
    <edge id=":86_0" function="internal">
        <lane id=":86_0_0" index="0" disallow="pedestrian tram rail_urban rail rail_electric rail_fast ship" speed="10.83" length="29.78" width="3.50" shape="435.29,399.34 432.12,398.02 429.92,397.35 427.68,396.91 426.54,396.80 425.39,396.77 424.25,396.83 423.11,397.00 422.00,397.27 420.93,397.66 419.90,398.17 418.92,398.77 418.02,399.48 417.19,400.26 416.42,401.11 415.09,402.98 414.00,404.99 413.10,407.10 412.37,409.27"/>
    </edge>
    <edge id=":86_1" function="internal">
        <lane id=":86_1_0" index="0" disallow="pedestrian tram rail_urban rail rail_electric rail_fast ship" speed="36.11" length="39.16" width="3.50" shape="435.29,399.34 419.51,391.75 400.14,382.07"/>
    </edge>
    <edge id=":86_2" function="internal">
        <lane id=":86_2_0" index="0" disallow="pedestrian tram rail_urban rail rail_electric rail_fast ship" speed="36.11" length="38.99" width="3.50" shape="401.76,378.97 421.05,388.61 436.76,396.16"/>
    </edge>
    <edge id=":86_3" function="internal">
        <lane id=":86_3_0" index="0" disallow="pedestrian tram rail_urban rail rail_electric rail_fast ship" speed="13.38" length="35.45" width="3.50" shape="401.76,378.97 403.89,380.16 405.91,381.54 407.79,383.10 409.48,384.87 410.95,386.83 412.15,388.95 413.07,391.22 413.69,393.58 414.05,396.00 414.16,398.45 413.92,402.11 413.30,405.72 412.37,409.27"/>
    </edge>
    <edge id=":86_4" function="internal">
        <lane id=":86_4_0" index="0" disallow="pedestrian tram rail_urban rail rail_electric rail_fast ship" speed="12.45" length="30.57" width="3.50" shape="409.02,408.26 409.85,405.09 410.41,401.89 410.63,398.67 410.55,396.58 410.26,394.51 409.75,392.51 408.99,390.60 408.00,388.81 406.79,387.16 405.36,385.66 403.77,384.32 402.02,383.13 400.14,382.07"/>
    </edge>
    <edge id=":86_5" function="internal">
        <lane id=":86_5_0" index="0" disallow="pedestrian tram rail_urban rail rail_electric rail_fast ship" speed="11.86" length="35.92" width="3.50" shape="409.02,408.26 409.87,405.74 410.92,403.27 412.22,400.88 413.81,398.65 414.76,397.57 415.80,396.60 416.93,395.72 418.16,394.95 419.46,394.31 420.83,393.81 422.23,393.46 423.65,393.25 425.06,393.17 426.46,393.21 427.87,393.35 430.52,393.87 433.12,394.66 436.76,396.16"/>
    </edge>
    <edge id=":87_0" function="internal">
        <lane id=":87_0_0" index="0" disallow="pedestrian tram rail_urban rail rail_electric rail_fast ship" speed="8.61" length="26.67" width="3.50" shape="190.42,403.82 164.96,411.75"/>
    </edge>
    <edge id=":87_1" function="internal">
        <lane id=":87_1_0" index="0" disallow="pedestrian tram rail_urban rail rail_electric rail_fast ship" speed="11.30" length="40.11" width="3.50" shape="190.42,403.82 186.18,401.94 183.45,400.50 180.83,398.86 178.39,396.97 177.28,395.90 176.26,394.74 175.36,393.48 174.63,392.12 174.11,390.67 173.82,389.15 173.79,387.61 174.00,386.08 174.41,384.59 175.00,383.16 175.73,381.80 176.56,380.50 178.47,378.07 180.60,375.83 181.69,374.81"/>
    </edge>
    <edge id=":87_2" function="internal">
        <lane id=":87_2_0" index="0" disallow="pedestrian tram rail_urban rail rail_electric rail_fast ship" speed="10.21" length="32.52" width="3.50" shape="183.95,377.49 183.12,378.27 181.29,380.18 179.69,382.24 179.04,383.29 178.47,384.38 178.03,385.49 177.74,386.61 177.61,387.74 177.66,388.85 177.89,389.94 178.31,390.99 178.88,392.00 179.60,392.96 180.43,393.88 181.33,394.72 183.41,396.31 185.65,397.70 188.01,398.93 191.73,400.58"/>
    </edge>
    <edge id=":87_3" function="internal">
        <lane id=":87_3_0" index="0" disallow="pedestrian tram rail_urban rail rail_electric rail_fast ship" speed="36.11" length="30.06" width="3.49" shape="183.94,377.48 183.29,378.11 182.55,378.94 181.72,379.97 180.83,381.17 179.88,382.51 178.89,383.96 177.87,385.51 176.83,387.13 175.78,388.79 174.74,390.48 173.71,392.16 172.71,393.81 171.75,395.41 170.84,396.94 169.99,398.36 169.22,399.66 168.54,400.81 167.95,401.79 167.48,402.57"/>
    </edge>
    <edge id=":87_4" function="internal">
        <lane id=":87_4_0" index="0" disallow="pedestrian tram rail_urban rail rail_electric rail_fast ship" speed="36.11" length="31.13" width="3.50" shape="164.50,400.73 171.37,389.59 177.07,380.85 180.17,376.54 181.69,374.81"/>
    </edge>
    <edge id=":87_5" function="internal">
        <lane id=":87_5_0" index="0" disallow="pedestrian tram rail_urban rail rail_electric rail_fast ship" speed="11.73" length="27.70" width="3.50" shape="165.40,401.28 167.03,400.06 169.28,398.86 171.67,398.01 174.13,397.51 176.61,397.30 179.06,397.36 181.49,397.63 184.99,398.34 188.41,399.35 191.73,400.58"/>
    </edge>
    <edge id=":89_0" function="internal">
        <lane id=":89_0_0" index="0" disallow="pedestrian tram rail_urban rail rail_electric rail_fast ship" speed="7.79" length="14.48" width="3.48" shape="425.11,267.98 420.67,267.52 417.39,266.87 415.28,266.14 414.30,265.61 413.45,264.90 413.12,264.45 412.90,263.94 412.81,263.39 412.85,262.84"/>
    </edge>
    <edge id=":89_1" function="internal">
        <lane id=":89_1_0" index="0" disallow="pedestrian tram rail_urban rail rail_electric rail_fast ship" speed="36.11" length="7.37" width="3.48" shape="411.47,270.08 412.85,262.84"/>
    </edge>
    <edge id=":90_0" function="internal">
        <lane id=":90_0_0" index="0" disallow="pedestrian tram rail_urban rail rail_electric rail_fast ship" speed="5.49" length="6.17" width="3.50" shape="412.90,262.59 412.95,262.02 412.90,261.45 412.73,260.90 412.12,259.94 411.27,259.17 409.79,258.31 409.37,258.14"/>
    </edge>
    <edge id=":90_1" function="internal">
        <lane id=":90_1_0" index="0" disallow="pedestrian tram rail_urban rail rail_electric rail_fast ship" speed="7.61" length="12.63" width="3.49" shape="412.90,262.59 413.29,261.51 413.62,261.04 414.50,260.31 415.55,259.85 417.24,259.51 419.54,259.45 422.97,259.82 424.10,260.01"/>
    </edge>

    <edge id="69007" from="90" to="89" priority="3" type="highway.residential" spreadType="center" length="14.82" shape="414.65,258.97 417.37,270.83">
        <lane id="69007_0" index="0" disallow="pedestrian tram rail_urban rail rail_electric rail_fast ship" speed="36.11" length="14.82" width="3.49" customShape="1" shape="424.10,260.01 424.23,260.03 424.35,260.06 426.68,260.66 428.31,261.43 429.21,262.22 429.55,262.71 429.78,263.27 429.87,263.86 429.86,264.46 429.84,264.59 429.82,264.72 429.52,265.93 429.24,266.49 428.86,266.98 428.38,267.38 427.82,267.68 426.61,267.98 425.36,268.00 425.23,267.99 425.11,267.98"/>
    </edge>
    <edge id="69261" from="80" to="6" priority="3" type="highway.residential" spreadType="center" length="70.01" shape="317.33,313.75 340.63,233.10">
        <lane id="69261_0" index="0" disallow="pedestrian tram rail_urban rail rail_electric rail_fast ship" speed="36.11" length="70.01" width="3.50" customShape="1" shape="322.12,300.61 329.67,273.29 335.65,250.70 337.88,242.03 340.63,233.10"/>
    </edge>
    <edge id="69262" from="24" to="80" priority="3" type="highway.residential" spreadType="center" length="70.00" shape="343.99,234.04 320.70,314.72">
        <lane id="69262_0" index="0" disallow="pedestrian tram rail_urban rail rail_electric rail_fast ship" speed="36.11" length="70.00" width="3.50" customShape="1" shape="343.99,234.04 341.45,242.27 339.18,251.00 333.14,273.89 325.49,301.54"/>
    </edge>
    <edge id="69301" from="84" to="50" priority="3" type="highway.residential" spreadType="center" length="70.00" shape="400.27,329.26 487.71,335.17">
        <lane id="69301_0" index="0" disallow="pedestrian tram rail_urban rail rail_electric rail_fast ship" speed="36.11" length="70.00" width="3.50" customShape="1" shape="417.90,335.65 431.38,337.12 438.90,337.63 445.93,337.72 456.48,337.46 469.01,336.75 487.71,335.17"/>
    </edge>
    <edge id="69302" from="66" to="84" priority="3" type="highway.residential" spreadType="center" length="70.01" shape="487.26,338.72 400.03,332.75">
        <lane id="69302_0" index="0" disallow="pedestrian tram rail_urban rail rail_electric rail_fast ship" speed="36.11" length="70.01" width="3.50" customShape="1" shape="487.26,338.72 469.17,340.24 456.52,340.97 445.86,341.22 438.71,341.13 431.07,340.60 417.44,339.12"/>
    </edge>
    <edge id="69304" from="81" to="84" priority="3" type="highway.residential" spreadType="center" length="19.11" shape="346.38,327.77 400.29,329.27">
        <lane id="69304_0" index="0" disallow="pedestrian tram rail_urban rail rail_electric rail_fast ship" speed="36.11" length="19.11" width="3.50" customShape="1" shape="362.98,326.87 372.40,328.45 381.83,330.04"/>
    </edge>
    <edge id="69305" from="84" to="81" priority="3" type="highway.residential" spreadType="center" length="19.11" shape="400.20,332.76 346.28,331.27">
        <lane id="69305_0" index="0" disallow="pedestrian tram rail_urban rail rail_electric rail_fast ship" speed="36.11" length="19.11" width="3.50" customShape="1" shape="381.25,333.49 371.82,331.90 362.40,330.32"/>
    </edge>
    <edge id="69346" from="84" to="89" priority="3" type="highway.residential" spreadType="center" length="59.15">
        <lane id="69346_0" index="0" disallow="pedestrian tram rail_urban rail rail_electric rail_fast ship" speed="36.11" length="59.15" width="3.50" customShape="1" shape="400.36,328.18 405.79,299.79 411.48,270.08"/>
    </edge>
    <edge id="69348" from="89" to="90" priority="3" type="highway.residential" spreadType="center" length="0.26" shape="413.97,271.60 411.29,259.74">
        <lane id="69348_0" index="0" disallow="pedestrian tram rail_urban rail rail_electric rail_fast ship" speed="36.11" length="0.26" width="3.48" customShape="1" shape="412.85,262.84 412.87,262.71 412.90,262.59"/>
    </edge>
    <edge id="69350" from="90" to="59" priority="3" type="highway.residential" spreadType="center" length="21.10">
        <lane id="69350_0" index="0" disallow="pedestrian tram rail_urban rail rail_electric rail_fast ship" speed="36.11" length="21.10" width="3.50" customShape="1" shape="409.49,257.40 395.36,255.13 388.66,254.05"/>
    </edge>
    <edge id="69356" from="32" to="85" priority="3" type="highway.residential" spreadType="center" length="70.00" shape="297.75,418.43 343.61,349.71">