<routes>
	<vehicle depart="0.1" departLane="0" departPos="72.49974456097493" departSpeed="0.078911651" id="31" type="passenger">
		<route edges="69262 69561"/>
	</vehicle>
	<vehicle depart="0.1" departLane="0" departPos="4.6509090562887" departSpeed="5.003147" id="33" type="passenger">
		<route edges="69565 69620"/>
	</vehicle>
	<vehicle depart="0.1" departLane="0" departPos="2.5" departSpeed="0.94957973" id="328" type="passenger">
		<route edges=":80_5 69561"/>
	</vehicle>
	<vehicle depart="0.1" departLane="0" departPos="57.59838994649563" departSpeed="0.0" id="338" type="passenger">
		<route edges="69553 69564"/>
	</vehicle>
	<vehicle depart="0.1" departLane="0" departPos="2.5" departSpeed="14.608987" id="347" type="passenger">
		<route edges=":79_5 69564"/>
	</vehicle>
	<vehicle depart="0.1" departLane="0" departPos="19.921944261238124" departSpeed="1.8805284" id="34" type="motorcycle">
		<route edges=":80_2 69561 69814"/>
	</vehicle>
	<vehicle depart="0.1" departLane="0" departPos="13.496589744243629" departSpeed="0.312834" id="325" type="motorcycle">
		<route edges=":81_3 69814"/>
	</vehicle>
	<vehicle depart="0.1" departLane="0" departPos="14.543975596711832" departSpeed="2.5887548" id="331" type="motorcycle">
		<route edges=":85_1 69815"/>
	</vehicle>
	<vehicle depart="0.1" departLane="0" departPos="24.640666787423292" departSpeed="14.769589" id="359" type="motorcycle">
		<route edges=":81_1 69562 69565"/>
	</vehicle>
	<vehicle depart="0.1" departLane="0" departPos="56.19903383492609" departSpeed="0.52360289" id="30" type="truck">
		<route edges="69262 69561"/>
	</vehicle>
</routes>
