<routes>
	<vehicle depart="0.1" departLane="0" departPos="30.060122703727117" departSpeed="5.8306579" id="1" type="passenger">
		<route edges="50201 50213 50197"/>
	</vehicle>
	<vehicle depart="0.1" departLane="0" departPos="100.51485128410958" departSpeed="2.4465589" id="2" type="passenger">
		<route edges="50195 50211 50199"/>
	</vehicle>
	<vehicle depart="0.1" departLane="0" departPos="137.71836237200557" departSpeed="2.1148896" id="4" type="passenger">
		<route edges="50205 50207 50197"/>
	</vehicle>
	<vehicle depart="0.1" departLane="0" departPos="145.7183952679451" departSpeed="6.6035643" id="5" type="passenger">
		<route edges="50205 50217 50199"/>
	</vehicle>
	<vehicle depart="0.1" departLane="0" departPos="22.05672626278609" departSpeed="3.645471" id="7" type="passenger">
		<route edges="50201 50213 50197"/>
	</vehicle>
</routes>
