<routes>
	<vehicle depart="0.1" departLane="0" departPos="28.179110407772573" departSpeed="0.46782027" id="37" type="bicycle">
		<route edges=":62_4 20386"/>
	</vehicle>
	<vehicle depart="0.1" departLane="0" departPos="13.469128250901408" departSpeed="1.6712878" id="368" type="bicycle">
		<route edges="20387 20626"/>
	</vehicle>
	<vehicle depart="0.1" departLane="0" departPos="24.40866499082808" departSpeed="0.031126314" id="32" type="passenger">
		<route edges=":62_4 20386"/>
	</vehicle>
	<vehicle depart="0.1" departLane="0" departPos="8.139758299172003" departSpeed="0.98145185" id="315" type="passenger">
		<route edges=":62_4 20386"/>
	</vehicle>
	<vehicle depart="0.1" departLane="0" departPos="12.012087710877848" departSpeed="0.54831106" id="317" type="passenger">
		<route edges=":62_0 20386"/>
	</vehicle>
	<vehicle depart="0.1" departLane="0" departPos="19.183138159950595" departSpeed="0.6031549" id="319" type="passenger">
		<route edges="20386 20495"/>
	</vehicle>
	<vehicle depart="0.1" departLane="0" departPos="12.011093257783594" departSpeed="3.1398478" id="324" type="passenger">
		<route edges=":59_3 20387"/>
	</vehicle>
	<vehicle depart="0.1" departLane="0" departPos="22.702631194834677" departSpeed="6.2769439" id="376" type="passenger">
		<route edges=":59_3 20387 20626"/>
	</vehicle>
	<vehicle depart="0.1" departLane="0" departPos="16.929892309633935" departSpeed="0.23089882" id="350" type="motorcycle">
		<route edges="20387 20626"/>
	</vehicle>
	<vehicle depart="0.1" departLane="0" departPos="3.75" departSpeed="0.28235375" id="332" type="truck">
		<route edges="20386 20495"/>
	</vehicle>
</routes>
