<routes>
	<vehicle depart="0.1" departLane="0" departPos="79.50172548941747" departSpeed="3.9020715" id="314" type="passenger">
		<route edges="52362 52434"/>
	</vehicle>
	<vehicle depart="0.1" departLane="0" departPos="29.975981995086556" departSpeed="22.790846" id="324" type="passenger">
		<route edges=":107_0 52438 52441 52468"/>
	</vehicle>
	<vehicle depart="0.1" departLane="0" departPos="25.902432126826813" departSpeed="16.176516" id="336" type="passenger">
		<route edges="52435 52438 52441"/>
	</vehicle>
</routes>
