<!-- generated on Tue Feb  9 22:10:50 2021 by Eclipse SUMO netconvert Version 1.8.0
<configuration xmlns:xsi="http://www.w3.org/2001/XMLSchema-instance" xsi:noNamespaceSchemaLocation="http://sumo.dlr.de/xsd/netconvertConfiguration.xsd">

    <input>
        <node-files value="./converted_scenarios/scenario-factory/ESP_Toledo-2_1_I-1-1/ESP_Toledo-2_1_I-1-1.nod.xml"/>
        <edge-files value="./converted_scenarios/scenario-factory/ESP_Toledo-2_1_I-1-1/ESP_Toledo-2_1_I-1-1.edg.xml"/>
        <connection-files value="./converted_scenarios/scenario-factory/ESP_Toledo-2_1_I-1-1/ESP_Toledo-2_1_I-1-1.con.xml"/>
        <tllogic-files value="./converted_scenarios/scenario-factory/ESP_Toledo-2_1_I-1-1/ESP_Toledo-2_1_I-1-1.tll.xml"/>
        <type-files value="/home/zen/commonroad-interactive-benchmarks/install/commonroad-map-tool/crmapconverter/sumo_map/templates/DEU.typ.xml"/>
    </input>

    <output>
        <output-file value="./converted_scenarios/scenario-factory/ESP_Toledo-2_1_I-1-1/ESP_Toledo-2_1_I-1-1.net.xml"/>
    </output>

    <processing>
        <geometry.remove.keep-edges.explicit value="true"/>
        <geometry.avoid-overlap value="true"/>
        <offset.disable-normalization value="true"/>
    </processing>

    <junctions>
        <no-turnarounds value="true"/>
        <junctions.internal-link-detail value="20"/>
    </junctions>

    <report>
        <aggregate-warnings value="5"/>
    </report>

    <random_number>
        <seed value="1234"/>
    </random_number>

</configuration>
--><net xmlns:xsi="http://www.w3.org/2001/XMLSchema-instance" version="1.6" junctionCornerDetail="5" junctionLinkDetail="20" limitTurnSpeed="5.50" xsi:noNamespaceSchemaLocation="http://sumo.dlr.de/xsd/net_file.xsd">

    <location netOffset="0.00,0.00" convBoundary="-808.82,-766.56,-506.74,-315.35" origBoundary="-808.82,-766.56,-506.74,-315.35" projParameter="!"/>

    <type id="highway.bridleway" priority="1" speed="2.78" allow="pedestrian" oneway="1" width="2.00"/>
    <type id="highway.bus_guideway" priority="1" speed="27.78" allow="bus" oneway="1"/>
    <type id="highway.cycleway" priority="1" speed="8.33" allow="bicycle" oneway="0" width="1.00"/>
    <type id="highway.footway" priority="1" speed="2.78" allow="pedestrian" oneway="1" width="2.00"/>
    <type id="highway.ford" priority="1" speed="2.78" allow="army" oneway="0"/>
    <type id="highway.living_street" priority="2" speed="2.78" disallow="tram rail_urban rail rail_electric rail_fast ship" oneway="0"/>
    <type id="highway.motorway" priority="14" speed="39.44" allow="private emergency authority army vip passenger hov taxi bus coach delivery truck trailer motorcycle evehicle custom1 custom2" oneway="1"/>
    <type id="highway.motorway_link" priority="9" speed="22.22" allow="private emergency authority army vip passenger hov taxi bus coach delivery truck trailer motorcycle evehicle custom1 custom2" oneway="1"/>
    <type id="highway.path" priority="1" speed="2.78" allow="pedestrian bicycle" oneway="0" width="2.00"/>
    <type id="highway.pedestrian" priority="1" speed="2.78" allow="pedestrian" oneway="1" width="2.00"/>
    <type id="highway.primary" priority="12" speed="27.78" disallow="pedestrian tram rail_urban rail rail_electric rail_fast ship" oneway="0"/>
    <type id="highway.primary_link" priority="7" speed="22.22" disallow="pedestrian tram rail_urban rail rail_electric rail_fast ship" oneway="0"/>
    <type id="highway.raceway" priority="15" speed="83.33" allow="vip" oneway="0"/>
    <type id="highway.residential" priority="3" speed="13.89" disallow="pedestrian tram rail_urban rail rail_electric rail_fast ship" oneway="0"/>
    <type id="highway.secondary" priority="11" speed="27.78" disallow="pedestrian tram rail_urban rail rail_electric rail_fast ship" oneway="0"/>
    <type id="highway.secondary_link" priority="6" speed="22.22" disallow="pedestrian tram rail_urban rail rail_electric rail_fast ship" oneway="0"/>
    <type id="highway.service" priority="1" speed="5.56" allow="pedestrian delivery bicycle" oneway="0"/>
    <type id="highway.stairs" priority="1" speed="1.39" allow="pedestrian" oneway="1" width="2.00"/>
    <type id="highway.step" priority="1" speed="1.39" allow="pedestrian" oneway="1" width="2.00"/>
    <type id="highway.steps" priority="1" speed="1.39" allow="pedestrian" oneway="1" width="2.00"/>
    <type id="highway.tertiary" priority="10" speed="22.22" disallow="pedestrian tram rail_urban rail rail_electric rail_fast ship" oneway="0"/>
    <type id="highway.tertiary_link" priority="5" speed="22.22" disallow="pedestrian tram rail_urban rail rail_electric rail_fast ship" oneway="0"/>
    <type id="highway.track" priority="1" speed="5.56" allow="pedestrian motorcycle moped bicycle" oneway="0"/>
    <type id="highway.trunk" priority="13" speed="27.78" disallow="pedestrian bicycle tram rail_urban rail rail_electric rail_fast ship" oneway="0"/>
    <type id="highway.trunk_link" priority="8" speed="22.22" disallow="pedestrian bicycle tram rail_urban rail rail_electric rail_fast ship" oneway="0"/>
    <type id="highway.unclassified" priority="4" speed="13.89" disallow="pedestrian tram rail_urban rail rail_electric rail_fast ship" oneway="0"/>
    <type id="highway.unsurfaced" priority="1" speed="8.33" disallow="tram rail_urban rail rail_electric rail_fast ship" oneway="0"/>
    <type id="railway.highspeed" priority="21" speed="69.44" allow="rail_fast" oneway="1"/>
    <type id="railway.light_rail" priority="19" speed="27.78" allow="rail_urban" oneway="1"/>
    <type id="railway.preserved" priority="16" speed="27.78" allow="rail" oneway="1"/>
    <type id="railway.rail" priority="20" speed="44.44" allow="rail" oneway="1"/>
    <type id="railway.subway" priority="18" speed="27.78" allow="rail_urban" oneway="1"/>
    <type id="railway.tram" priority="17" speed="13.89" allow="tram" oneway="1"/>

    <edge id=":105_0" function="internal">
        <lane id=":105_0_0" index="0" disallow="pedestrian tram rail_urban rail rail_electric rail_fast ship" speed="36.11" length="40.75" width="3.50" shape="-684.36,-484.05 -690.09,-495.23 -695.93,-507.49 -701.87,-520.83"/>
    </edge>
    <edge id=":105_1" function="internal">
        <lane id=":105_1_0" index="0" disallow="pedestrian tram rail_urban rail rail_electric rail_fast ship" speed="11.53" length="37.68" width="3.50" shape="-684.37,-484.05 -686.14,-487.81 -687.10,-490.46 -687.78,-493.20 -687.99,-494.66 -688.08,-496.14 -688.04,-497.63 -687.83,-499.14 -687.45,-500.62 -686.87,-502.06 -686.11,-503.41 -685.19,-504.64 -684.15,-505.75 -683.01,-506.72 -681.80,-507.57 -680.53,-508.32 -677.96,-509.50 -675.29,-510.41 -671.28,-511.36"/>
    </edge>
    <edge id=":105_2" function="internal">
        <lane id=":105_2_0" index="0" disallow="pedestrian tram rail_urban rail rail_electric rail_fast ship" speed="10.47" length="30.87" width="3.50" shape="-670.62,-507.92 -674.09,-507.10 -676.34,-506.34 -678.49,-505.34 -679.52,-504.74 -680.49,-504.06 -681.39,-503.29 -682.21,-502.43 -682.91,-501.48 -683.50,-500.44 -683.94,-499.34 -684.24,-498.19 -684.40,-497.02 -684.43,-495.83 -684.36,-494.64 -684.19,-493.47 -683.61,-491.17 -682.81,-488.93 -681.29,-485.71"/>
    </edge>
    <edge id=":105_3" function="internal">
        <lane id=":105_3_0" index="0" disallow="pedestrian tram rail_urban rail rail_electric rail_fast ship" speed="13.85" length="37.01" width="3.50" shape="-670.62,-507.92 -674.28,-507.35 -677.97,-507.05 -681.67,-507.07 -684.13,-507.30 -686.56,-507.73 -688.93,-508.40 -691.22,-509.32 -693.39,-510.50 -695.39,-511.94 -697.21,-513.62 -698.80,-515.50 -700.18,-517.54 -701.36,-519.71 -701.87,-520.83"/>
    </edge>
    <edge id=":105_4" function="internal">
        <lane id=":105_4_0" index="0" disallow="pedestrian tram rail_urban rail rail_electric rail_fast ship" speed="12.96" length="32.26" width="3.50" shape="-698.66,-522.23 -698.22,-521.26 -697.19,-519.36 -696.00,-517.61 -694.62,-516.02 -693.08,-514.61 -691.36,-513.41 -689.51,-512.43 -687.54,-511.67 -685.48,-511.11 -683.36,-510.75 -681.20,-510.56 -677.89,-510.56 -674.58,-510.84 -671.28,-511.36"/>
    </edge>
    <edge id=":105_5" function="internal">
        <lane id=":105_5_0" index="0" disallow="pedestrian tram rail_urban rail rail_electric rail_fast ship" speed="36.11" length="40.45" width="3.50" shape="-698.66,-522.23 -692.75,-508.96 -686.95,-496.79 -681.29,-485.71"/>
    </edge>
    <edge id=":106_0" function="internal">
        <lane id=":106_0_0" index="0" disallow="pedestrian tram rail_urban rail rail_electric rail_fast ship" speed="36.11" length="39.61" width="3.50" shape="-710.78,-541.53 -715.30,-552.07 -726.16,-578.03"/>
    </edge>
    <edge id=":106_1" function="internal">
        <lane id=":106_1_0" index="0" disallow="pedestrian tram rail_urban rail rail_electric rail_fast ship" speed="11.60" length="36.37" width="3.50" shape="-710.78,-541.53 -711.76,-544.02 -712.58,-546.59 -713.16,-549.27 -713.43,-552.01 -713.42,-553.46 -713.27,-554.89 -712.99,-556.32 -712.54,-557.72 -711.94,-559.08 -711.18,-560.35 -710.28,-561.52 -709.27,-562.58 -708.17,-563.51 -707.00,-564.33 -705.76,-565.06 -703.27,-566.20 -700.67,-567.07 -696.78,-567.96"/>
    </edge>
    <edge id=":106_2" function="internal">
        <lane id=":106_2_0" index="0" disallow="pedestrian tram rail_urban rail rail_electric rail_fast ship" speed="10.56" length="29.87" width="3.50" shape="-696.16,-564.52 -699.52,-563.75 -701.70,-563.02 -703.79,-562.06 -704.78,-561.48 -705.72,-560.82 -706.59,-560.07 -707.39,-559.24 -708.08,-558.33 -708.67,-557.34 -709.14,-556.29 -709.48,-555.20 -709.70,-554.07 -709.82,-552.93 -709.83,-551.78 -709.60,-549.49 -709.11,-547.25 -708.41,-545.06 -707.57,-542.92"/>
    </edge>
    <edge id=":106_3" function="internal">
        <lane id=":106_3_0" index="0" disallow="pedestrian tram rail_urban rail rail_electric rail_fast ship" speed="13.64" length="36.10" width="3.50" shape="-696.16,-564.52 -699.86,-564.00 -703.59,-563.77 -707.32,-563.92 -709.78,-564.26 -712.21,-564.83 -714.55,-565.66 -716.79,-566.76 -718.87,-568.13 -720.76,-569.75 -722.43,-571.59 -723.89,-573.61 -725.13,-575.77 -726.16,-578.03"/>
    </edge>
    <edge id=":106_4" function="internal">
        <lane id=":106_4_0" index="0" disallow="pedestrian tram rail_urban rail rail_electric rail_fast ship" speed="12.74" length="31.34" width="3.50" shape="-722.94,-579.39 -722.02,-577.39 -720.95,-575.53 -719.70,-573.81 -718.26,-572.25 -716.66,-570.90 -714.89,-569.76 -712.98,-568.85 -710.97,-568.16 -708.87,-567.68 -706.73,-567.40 -703.42,-567.28 -700.09,-567.49 -696.78,-567.96"/>
    </edge>
    <edge id=":106_5" function="internal">
        <lane id=":106_5_0" index="0" disallow="pedestrian tram rail_urban rail rail_electric rail_fast ship" speed="36.11" length="39.58" width="3.50" shape="-722.94,-579.39 -712.08,-553.44 -707.57,-542.92"/>
    </edge>
    <edge id=":107_0" function="internal">
        <lane id=":107_0_0" index="0" disallow="pedestrian tram rail_urban rail rail_electric rail_fast ship" speed="36.11" length="42.79" width="3.50" shape="-646.19,-427.56 -656.33,-440.85 -664.30,-451.82 -670.76,-461.29 -671.34,-462.17"/>
    </edge>
    <edge id=":107_1" function="internal">
        <lane id=":107_1_0" index="0" disallow="pedestrian tram rail_urban rail rail_electric rail_fast ship" speed="11.41" length="40.51" width="3.50" shape="-646.19,-427.56 -648.93,-431.38 -650.52,-434.06 -651.84,-436.88 -652.37,-438.34 -652.77,-439.84 -653.02,-441.38 -653.09,-442.93 -652.93,-444.48 -652.54,-445.98 -651.90,-447.40 -651.04,-448.70 -650.00,-449.86 -648.83,-450.88 -647.56,-451.77 -646.21,-452.55 -643.38,-453.84 -640.43,-454.83 -635.87,-455.93"/>
    </edge>
    <edge id=":107_2" function="internal">
        <lane id=":107_2_0" index="0" disallow="pedestrian tram rail_urban rail rail_electric rail_fast ship" speed="10.34" length="32.96" width="3.50" shape="-635.18,-452.49 -639.15,-451.54 -641.66,-450.70 -644.05,-449.61 -645.12,-448.99 -646.13,-448.28 -647.04,-447.49 -647.82,-446.63 -648.44,-445.68 -648.90,-444.66 -649.18,-443.58 -649.29,-442.44 -649.23,-441.27 -649.04,-440.08 -648.71,-438.87 -648.29,-437.70 -647.17,-435.32 -645.82,-433.04 -643.43,-429.71"/>
    </edge>
    <edge id=":107_3" function="internal">
        <lane id=":107_3_0" index="0" disallow="pedestrian tram rail_urban rail rail_electric rail_fast ship" speed="15.43" length="39.90" width="3.50" shape="-635.18,-452.49 -639.84,-451.71 -644.50,-451.24 -648.02,-451.14 -651.53,-451.29 -655.02,-451.75 -658.44,-452.58 -660.65,-453.36 -662.78,-454.34 -664.80,-455.53 -666.68,-456.92 -668.41,-458.51 -669.96,-460.26 -671.34,-462.17"/>
    </edge>
    <edge id=":107_4" function="internal">
        <lane id=":107_4_0" index="0" disallow="pedestrian tram rail_urban rail rail_electric rail_fast ship" speed="14.62" length="35.74" width="3.50" shape="-668.42,-464.10 -667.21,-462.42 -665.85,-460.90 -664.34,-459.54 -662.69,-458.35 -660.91,-457.34 -659.04,-456.50 -657.09,-455.84 -654.02,-455.14 -650.87,-454.75 -647.68,-454.64 -644.47,-454.75 -640.16,-455.20 -635.87,-455.93"/>
    </edge>
    <edge id=":107_5" function="internal">
        <lane id=":107_5_0" index="0" disallow="pedestrian tram rail_urban rail rail_electric rail_fast ship" speed="36.11" length="42.52" width="3.50" shape="-668.42,-464.10 -667.84,-463.22 -661.43,-453.81 -653.52,-442.92 -643.43,-429.71"/>
    </edge>
    <edge id=":108_0" function="internal">
        <lane id=":108_0_0" index="0" disallow="pedestrian tram rail_urban rail rail_electric rail_fast ship" speed="11.16" length="28.46" width="3.50" shape="-544.14,-513.87 -544.92,-517.06 -545.65,-519.12 -546.58,-521.10 -547.76,-522.95 -548.45,-523.80 -549.20,-524.60 -550.01,-525.33 -550.88,-525.99 -551.81,-526.57 -552.79,-527.06 -553.81,-527.47 -555.92,-528.05 -558.09,-528.34 -560.27,-528.38 -562.46,-528.21 -564.62,-527.88"/>
    </edge>
    <edge id=":108_1" function="internal">
        <lane id=":108_1_0" index="0" disallow="pedestrian tram rail_urban rail rail_electric rail_fast ship" speed="36.11" length="38.68" width="3.50" shape="-544.14,-513.87 -549.78,-544.69 -551.05,-551.93"/>
    </edge>
    <edge id=":108_2" function="internal">
        <lane id=":108_2_0" index="0" disallow="pedestrian tram rail_urban rail rail_electric rail_fast ship" speed="36.11" length="38.60" width="3.50" shape="-547.60,-552.53 -546.33,-545.31 -540.71,-514.55"/>
    </edge>
    <edge id=":108_3" function="internal">
        <lane id=":108_3_0" index="0" disallow="pedestrian tram rail_urban rail rail_electric rail_fast ship" speed="12.26" length="34.26" width="3.50" shape="-547.60,-552.53 -547.12,-548.57 -547.07,-545.94 -547.29,-543.32 -547.83,-540.74 -548.24,-539.49 -548.74,-538.27 -549.34,-537.10 -550.04,-535.99 -550.84,-534.94 -551.72,-533.96 -552.68,-533.06 -554.79,-531.49 -557.10,-530.22 -559.53,-529.22 -562.05,-528.45 -564.62,-527.88"/>
    </edge>
    <edge id=":108_4" function="internal">
        <lane id=":108_4_0" index="0" disallow="pedestrian tram rail_urban rail rail_electric rail_fast ship" speed="11.26" length="28.73" width="3.50" shape="-565.27,-531.32 -563.03,-531.82 -560.86,-532.48 -558.79,-533.33 -556.87,-534.38 -555.10,-535.69 -554.35,-536.40 -553.64,-537.19 -553.00,-538.03 -552.44,-538.93 -551.96,-539.87 -551.55,-540.86 -551.22,-541.86 -550.77,-544.02 -550.59,-546.23 -550.63,-548.47 -551.05,-551.93"/>
    </edge>
    <edge id=":108_5" function="internal">
        <lane id=":108_5_0" index="0" disallow="pedestrian tram rail_urban rail rail_electric rail_fast ship" speed="12.16" length="34.01" width="3.50" shape="-565.27,-531.32 -562.77,-531.70 -560.22,-531.89 -557.63,-531.85 -555.03,-531.50 -552.49,-530.81 -551.21,-530.29 -550.00,-529.68 -548.85,-528.97 -547.77,-528.15 -546.76,-527.25 -545.84,-526.26 -544.98,-525.20 -543.58,-522.99 -542.46,-520.64 -541.60,-518.20 -540.71,-514.55"/>
    </edge>
    <edge id=":109_0" function="internal">
        <lane id=":109_0_0" index="0" disallow="pedestrian tram rail_urban rail rail_electric rail_fast ship" speed="11.20" length="28.77" width="3.50" shape="-554.48,-571.65 -554.95,-573.91 -555.58,-576.09 -556.41,-578.17 -557.45,-580.11 -558.75,-581.88 -559.45,-582.63 -560.24,-583.35 -561.08,-583.98 -561.98,-584.54 -562.92,-585.02 -563.91,-585.43 -564.91,-585.75 -567.08,-586.19 -569.30,-586.36 -571.55,-586.31 -575.01,-585.88"/>
    </edge>
    <edge id=":109_1" function="internal">
        <lane id=":109_1_0" index="0" disallow="pedestrian tram rail_urban rail rail_electric rail_fast ship" speed="36.11" length="38.88" width="3.50" shape="-554.48,-571.65 -557.78,-590.80 -561.09,-609.96"/>
    </edge>
    <edge id=":109_2" function="internal">
        <lane id=":109_2_0" index="0" disallow="pedestrian tram rail_urban rail rail_electric rail_fast ship" speed="36.11" length="38.86" width="3.50" shape="-557.64,-610.55 -554.34,-591.39 -551.03,-572.26"/>
    </edge>
    <edge id=":109_3" function="internal">
        <lane id=":109_3_0" index="0" disallow="pedestrian tram rail_urban rail rail_electric rail_fast ship" speed="12.27" length="34.58" width="3.50" shape="-557.64,-610.55 -557.17,-606.56 -557.13,-603.91 -557.36,-601.26 -557.91,-598.67 -558.33,-597.41 -558.85,-596.18 -559.46,-595.01 -560.18,-593.89 -560.99,-592.84 -561.89,-591.86 -562.87,-590.96 -565.02,-589.41 -567.36,-588.16 -569.83,-587.18 -572.38,-586.43 -575.01,-585.88"/>
    </edge>
    <edge id=":109_4" function="internal">
        <lane id=":109_4_0" index="0" disallow="pedestrian tram rail_urban rail rail_electric rail_fast ship" speed="11.28" length="29.01" width="3.50" shape="-575.61,-589.33 -573.32,-589.81 -571.12,-590.45 -569.02,-591.28 -567.06,-592.32 -565.27,-593.62 -564.50,-594.33 -563.78,-595.12 -563.12,-595.96 -562.55,-596.86 -562.05,-597.81 -561.64,-598.80 -561.30,-599.80 -560.83,-601.99 -560.64,-604.22 -560.68,-606.48 -561.09,-609.96"/>
    </edge>
    <edge id=":109_5" function="internal">
        <lane id=":109_5_0" index="0" disallow="pedestrian tram rail_urban rail rail_electric rail_fast ship" speed="12.20" length="34.35" width="3.50" shape="-575.61,-589.33 -571.65,-589.82 -569.01,-589.88 -566.38,-589.67 -563.80,-589.14 -562.54,-588.74 -561.32,-588.24 -560.14,-587.64 -559.02,-586.94 -557.97,-586.15 -556.99,-585.26 -556.09,-584.29 -554.53,-582.16 -553.28,-579.84 -552.31,-577.38 -551.57,-574.85 -551.03,-572.26"/>
    </edge>
    <edge id=":110_0" function="internal">
        <lane id=":110_0_0" index="0" disallow="pedestrian tram rail_urban rail rail_electric rail_fast ship" speed="36.11" length="38.73" width="3.50" shape="-735.10,-599.84 -739.84,-611.13 -745.66,-624.17 -750.96,-635.17"/>
    </edge>
    <edge id=":110_1" function="internal">
        <lane id=":110_1_0" index="0" disallow="pedestrian tram rail_urban rail rail_electric rail_fast ship" speed="11.67" length="36.50" width="3.50" shape="-735.10,-599.84 -736.04,-602.35 -736.81,-604.95 -737.34,-607.65 -737.57,-610.41 -737.52,-611.86 -737.35,-613.30 -737.04,-614.73 -736.58,-616.13 -735.95,-617.48 -735.17,-618.75 -734.26,-619.91 -733.23,-620.96 -732.12,-621.89 -730.94,-622.70 -729.69,-623.43 -727.19,-624.56 -724.57,-625.42 -720.67,-626.29"/>
    </edge>
    <edge id=":110_2" function="internal">
        <lane id=":110_2_0" index="0" disallow="pedestrian tram rail_urban rail rail_electric rail_fast ship" speed="10.63" length="30.05" width="3.50" shape="-720.08,-622.84 -723.44,-622.09 -725.64,-621.37 -727.75,-620.41 -728.75,-619.83 -729.70,-619.17 -730.59,-618.43 -731.39,-617.60 -732.11,-616.69 -732.71,-615.71 -733.20,-614.66 -733.56,-613.56 -733.80,-612.43 -733.94,-611.28 -733.97,-610.12 -733.78,-607.82 -733.33,-605.55 -732.67,-603.33 -731.86,-601.16"/>
    </edge>
    <edge id=":110_3" function="internal">
        <lane id=":110_3_0" index="0" disallow="pedestrian tram rail_urban rail rail_electric rail_fast ship" speed="14.26" length="35.94" width="3.50" shape="-720.08,-622.84 -723.52,-622.36 -727.02,-622.12 -730.56,-622.18 -734.09,-622.60 -736.45,-623.13 -738.75,-623.88 -740.98,-624.86 -743.10,-626.09 -745.06,-627.56 -746.84,-629.24 -748.42,-631.09 -749.80,-633.08 -750.96,-635.17"/>
    </edge>
    <edge id=":110_4" function="internal">
        <lane id=":110_4_0" index="0" disallow="pedestrian tram rail_urban rail rail_electric rail_fast ship" speed="13.38" length="31.52" width="3.50" shape="-747.86,-636.79 -746.82,-634.93 -745.62,-633.20 -744.25,-631.61 -742.71,-630.18 -741.01,-628.95 -739.18,-627.91 -737.25,-627.08 -735.25,-626.46 -733.19,-626.02 -730.06,-625.67 -726.91,-625.63 -723.76,-625.86 -720.67,-626.29"/>
    </edge>
    <edge id=":110_5" function="internal">
        <lane id=":110_5_0" index="0" disallow="pedestrian tram rail_urban rail rail_electric rail_fast ship" speed="36.11" length="39.07" width="3.50" shape="-747.86,-636.79 -742.49,-625.66 -736.63,-612.53 -731.86,-601.16"/>
    </edge>
    <edge id=":111_0" function="internal">
        <lane id=":111_0_0" index="0" disallow="pedestrian tram rail_urban rail rail_electric rail_fast ship" speed="36.11" length="41.54" width="3.50" shape="-605.78,-374.05 -612.34,-383.39 -622.25,-396.73 -630.49,-407.43"/>
    </edge>
    <edge id=":111_1" function="internal">
        <lane id=":111_1_0" index="0" disallow="pedestrian tram rail_urban rail rail_electric rail_fast ship" speed="11.43" length="39.02" width="3.50" shape="-605.78,-374.05 -607.30,-376.43 -608.69,-378.93 -609.89,-381.57 -610.81,-384.35 -611.13,-385.86 -611.32,-387.39 -611.34,-388.96 -611.17,-390.54 -610.77,-392.11 -610.13,-393.61 -609.29,-395.00 -608.27,-396.24 -607.13,-397.31 -605.89,-398.25 -604.60,-399.04 -603.26,-399.74 -600.57,-400.83 -597.80,-401.65 -595.02,-402.27"/>
    </edge>
    <edge id=":111_2" function="internal">
        <lane id=":111_2_0" index="0" disallow="pedestrian tram rail_urban rail rail_electric rail_fast ship" speed="10.36" length="31.76" width="3.50" shape="-594.36,-398.84 -596.75,-398.30 -599.09,-397.60 -601.35,-396.68 -602.44,-396.12 -603.48,-395.47 -604.45,-394.73 -605.33,-393.89 -606.10,-392.94 -606.73,-391.90 -607.20,-390.77 -607.49,-389.58 -607.61,-388.36 -607.59,-387.14 -607.43,-385.93 -607.17,-384.74 -606.40,-382.42 -605.38,-380.19 -604.19,-378.06 -602.88,-376.01"/>
    </edge>
    <edge id=":111_3" function="internal">
        <lane id=":111_3_0" index="0" disallow="pedestrian tram rail_urban rail rail_electric rail_fast ship" speed="16.20" length="39.17" width="3.50" shape="-594.36,-398.84 -598.91,-398.09 -603.49,-397.64 -608.10,-397.54 -611.55,-397.75 -614.97,-398.26 -618.32,-399.11 -621.54,-400.35 -623.59,-401.41 -625.53,-402.65 -627.33,-404.08 -628.99,-405.68 -630.49,-407.43"/>
    </edge>
    <edge id=":111_4" function="internal">
        <lane id=":111_4_0" index="0" disallow="pedestrian tram rail_urban rail rail_electric rail_fast ship" speed="15.40" length="35.34" width="3.50" shape="-627.75,-409.60 -626.42,-408.05 -624.96,-406.66 -623.37,-405.42 -621.66,-404.34 -619.86,-403.44 -616.97,-402.37 -613.96,-401.64 -610.86,-401.21 -607.73,-401.04 -603.48,-401.15 -599.24,-401.58 -595.02,-402.27"/>
    </edge>
    <edge id=":111_5" function="internal">
        <lane id=":111_5_0" index="0" disallow="pedestrian tram rail_urban rail rail_electric rail_fast ship" speed="36.11" length="41.80" width="3.50" shape="-627.75,-409.60 -619.45,-398.83 -609.49,-385.42 -602.88,-376.01"/>
    </edge>
    <edge id=":112_0" function="internal">
        <lane id=":112_0_0" index="0" disallow="pedestrian tram rail_urban rail rail_electric rail_fast ship" speed="11.11" length="28.63" width="3.50" shape="-533.17,-454.70 -533.95,-458.07 -534.67,-460.18 -535.60,-462.18 -536.79,-464.04 -537.44,-464.84 -538.17,-465.61 -538.95,-466.31 -539.80,-466.93 -540.69,-467.47 -541.64,-467.93 -542.63,-468.32 -543.63,-468.62 -545.80,-469.02 -548.01,-469.14 -550.24,-469.04 -553.68,-468.54"/>
    </edge>
    <edge id=":112_1" function="internal">
        <lane id=":112_1_0" index="0" disallow="pedestrian tram rail_urban rail rail_electric rail_fast ship" speed="36.11" length="38.65" width="3.50" shape="-533.17,-454.70 -539.55,-489.61 -540.13,-492.72"/>
    </edge>
    <edge id=":112_2" function="internal">
        <lane id=":112_2_0" index="0" disallow="pedestrian tram rail_urban rail rail_electric rail_fast ship" speed="36.11" length="38.66" width="3.50" shape="-536.70,-493.37 -536.11,-490.25 -529.73,-455.34"/>
    </edge>
    <edge id=":112_3" function="internal">
        <lane id=":112_3_0" index="0" disallow="pedestrian tram rail_urban rail rail_electric rail_fast ship" speed="12.26" length="34.46" width="3.50" shape="-536.69,-493.37 -536.16,-489.40 -536.08,-486.76 -536.27,-484.12 -536.80,-481.53 -537.20,-480.27 -537.70,-479.05 -538.31,-477.87 -539.01,-476.75 -539.81,-475.69 -540.69,-474.71 -541.66,-473.81 -543.78,-472.23 -546.10,-470.95 -548.54,-469.94 -551.07,-469.15 -553.68,-468.54"/>
    </edge>
    <edge id=":112_4" function="internal">
        <lane id=":112_4_0" index="0" disallow="pedestrian tram rail_urban rail rail_electric rail_fast ship" speed="11.27" length="28.90" width="3.50" shape="-554.35,-471.98 -552.07,-472.50 -549.89,-473.18 -547.81,-474.04 -545.87,-475.11 -544.10,-476.43 -543.34,-477.14 -542.63,-477.93 -541.98,-478.78 -541.42,-479.68 -540.93,-480.63 -540.53,-481.62 -540.20,-482.62 -539.76,-484.79 -539.60,-487.01 -539.66,-489.26 -540.13,-492.72"/>
    </edge>
    <edge id=":112_5" function="internal">
        <lane id=":112_5_0" index="0" disallow="pedestrian tram rail_urban rail rail_electric rail_fast ship" speed="12.11" length="34.25" width="3.50" shape="-554.35,-471.98 -550.41,-472.55 -547.78,-472.66 -545.15,-472.51 -542.57,-472.03 -541.31,-471.66 -540.08,-471.18 -538.90,-470.60 -537.77,-469.92 -536.71,-469.14 -535.73,-468.26 -534.82,-467.31 -534.00,-466.28 -532.59,-464.06 -531.48,-461.68 -530.62,-459.19 -529.73,-455.34"/>
    </edge>
    <edge id=":113_0" function="internal">
        <lane id=":113_0_0" index="0" disallow="pedestrian tram rail_urban rail rail_electric rail_fast ship" speed="36.11" length="38.23" width="3.50" shape="-760.21,-652.04 -764.68,-659.00 -769.44,-665.76 -775.10,-673.14 -781.05,-680.28 -783.09,-682.61"/>
    </edge>
    <edge id=":113_1" function="internal">
        <lane id=":113_1_0" index="0" disallow="pedestrian tram rail_urban rail rail_electric rail_fast ship" speed="11.50" length="37.44" width="3.50" shape="-760.21,-652.04 -762.32,-655.82 -763.52,-658.43 -764.49,-661.14 -765.16,-663.94 -765.34,-665.36 -765.40,-666.80 -765.31,-668.24 -765.07,-669.65 -764.65,-671.03 -764.06,-672.34 -763.31,-673.57 -762.41,-674.69 -761.40,-675.71 -760.28,-676.62 -759.10,-677.43 -756.56,-678.79 -753.89,-679.86 -751.11,-680.71"/>
    </edge>
    <edge id=":113_2" function="internal">
        <lane id=":113_2_0" index="0" disallow="pedestrian tram rail_urban rail rail_electric rail_fast ship" speed="10.45" length="30.69" width="3.50" shape="-750.22,-677.33 -752.60,-676.60 -754.86,-675.70 -756.97,-674.54 -757.90,-673.90 -758.78,-673.17 -759.56,-672.37 -760.23,-671.51 -760.78,-670.58 -761.21,-669.58 -761.51,-668.54 -761.68,-667.45 -761.73,-666.33 -761.67,-665.18 -761.52,-664.05 -760.95,-661.70 -760.11,-659.41 -759.07,-657.17 -757.22,-653.87"/>
    </edge>
    <edge id=":113_3" function="internal">
        <lane id=":113_3_0" index="0" disallow="pedestrian tram rail_urban rail rail_electric rail_fast ship" speed="15.47" length="35.12" width="3.50" shape="-750.22,-677.33 -754.80,-676.26 -759.42,-675.52 -762.92,-675.24 -766.43,-675.25 -769.92,-675.62 -772.21,-676.10 -774.45,-676.78 -776.60,-677.69 -778.65,-678.83 -780.55,-680.19 -782.29,-681.76 -783.09,-682.61"/>
    </edge>
    <edge id=":113_4" function="internal">
        <lane id=":113_4_0" index="0" disallow="pedestrian tram rail_urban rail rail_electric rail_fast ship" speed="14.61" length="31.27" width="3.50" shape="-780.48,-684.94 -779.80,-684.22 -778.29,-682.86 -776.65,-681.71 -774.88,-680.75 -773.00,-679.99 -771.04,-679.42 -769.03,-679.03 -765.90,-678.74 -762.74,-678.75 -759.57,-679.03 -755.33,-679.72 -751.11,-680.71"/>
    </edge>
    <edge id=":113_5" function="internal">
        <lane id=":113_5_0" index="0" disallow="pedestrian tram rail_urban rail rail_electric rail_fast ship" speed="36.11" length="38.86" width="3.50" shape="-780.48,-684.94 -778.39,-682.56 -772.36,-675.31 -766.61,-667.82 -761.77,-660.95 -757.22,-653.87"/>
    </edge>
    <edge id=":114_0" function="internal">
        <lane id=":114_0_0" index="0" disallow="pedestrian tram rail_urban rail rail_electric rail_fast ship" speed="36.11" length="38.81" width="3.50" shape="-638.76,-636.61 -657.93,-633.39 -677.03,-630.17"/>
    </edge>
    <edge id=":114_1" function="internal">
        <lane id=":114_1_0" index="0" disallow="pedestrian tram rail_urban rail rail_electric rail_fast ship" speed="12.37" length="34.51" width="3.50" shape="-638.76,-636.61 -642.60,-636.18 -645.15,-636.15 -647.70,-636.39 -650.19,-636.94 -652.58,-637.83 -653.72,-638.41 -654.80,-639.09 -655.83,-639.84 -657.68,-641.60 -659.26,-643.61 -660.56,-645.81 -661.61,-648.13 -662.44,-650.55 -663.36,-654.27"/>
    </edge>
    <edge id=":114_2" function="internal">
        <lane id=":114_2_0" index="0" disallow="pedestrian tram rail_urban rail rail_electric rail_fast ship" speed="11.38" length="29.04" width="3.50" shape="-659.93,-654.94 -659.12,-651.68 -658.41,-649.61 -657.52,-647.63 -656.43,-645.78 -655.14,-644.12 -653.61,-642.67 -652.81,-642.08 -651.93,-641.53 -651.04,-641.07 -649.06,-640.32 -646.99,-639.87 -644.85,-639.67 -642.68,-639.68 -639.33,-640.06"/>
    </edge>
    <edge id=":114_3" function="internal">
        <lane id=":114_3_0" index="0" disallow="pedestrian tram rail_urban rail rail_electric rail_fast ship" speed="12.15" length="34.62" width="3.50" shape="-659.93,-654.94 -659.38,-651.12 -659.28,-648.49 -659.45,-645.85 -659.95,-643.24 -660.36,-641.90 -660.88,-640.63 -661.50,-639.40 -662.24,-638.23 -663.08,-637.13 -664.01,-636.11 -665.02,-635.18 -666.13,-634.33 -668.39,-632.94 -670.81,-631.84 -673.30,-631.01 -677.03,-630.17"/>
    </edge>