<!-- generated on Tue Feb  9 22:17:24 2021 by Eclipse SUMO netconvert Version 1.8.0
<configuration xmlns:xsi="http://www.w3.org/2001/XMLSchema-instance" xsi:noNamespaceSchemaLocation="http://sumo.dlr.de/xsd/netconvertConfiguration.xsd">

    <input>
        <node-files value="./converted_scenarios/scenario-factory/DEU_Moabit-4_1_I-1-1/DEU_Moabit-4_1_I-1-1.nod.xml"/>
        <edge-files value="./converted_scenarios/scenario-factory/DEU_Moabit-4_1_I-1-1/DEU_Moabit-4_1_I-1-1.edg.xml"/>
        <connection-files value="./converted_scenarios/scenario-factory/DEU_Moabit-4_1_I-1-1/DEU_Moabit-4_1_I-1-1.con.xml"/>
        <tllogic-files value="./converted_scenarios/scenario-factory/DEU_Moabit-4_1_I-1-1/DEU_Moabit-4_1_I-1-1.tll.xml"/>
        <type-files value="/home/zen/commonroad-interactive-benchmarks/install/commonroad-map-tool/crmapconverter/sumo_map/templates/DEU.typ.xml"/>
    </input>

    <output>
        <output-file value="./converted_scenarios/scenario-factory/DEU_Moabit-4_1_I-1-1/DEU_Moabit-4_1_I-1-1.net.xml"/>
    </output>

    <processing>
        <geometry.remove.keep-edges.explicit value="true"/>
        <geometry.avoid-overlap value="true"/>
        <offset.disable-normalization value="true"/>
    </processing>

    <junctions>
        <no-turnarounds value="true"/>
        <junctions.internal-link-detail value="20"/>
    </junctions>

    <report>
        <aggregate-warnings value="5"/>
    </report>

    <random_number>
        <seed value="1234"/>
    </random_number>

</configuration>
--><net xmlns:xsi="http://www.w3.org/2001/XMLSchema-instance" version="1.6" junctionCornerDetail="5" junctionLinkDetail="20" limitTurnSpeed="5.50" xsi:noNamespaceSchemaLocation="http://sumo.dlr.de/xsd/net_file.xsd">

    <location netOffset="0.00,0.00" convBoundary="-706.31,-75.12,-521.90,92.45" origBoundary="-706.31,-75.12,-521.90,92.45" projParameter="!"/>

    <type id="highway.bridleway" priority="1" speed="2.78" allow="pedestrian" oneway="1" width="2.00"/>
    <type id="highway.bus_guideway" priority="1" speed="27.78" allow="bus" oneway="1"/>
    <type id="highway.cycleway" priority="1" speed="8.33" allow="bicycle" oneway="0" width="1.00"/>
    <type id="highway.footway" priority="1" speed="2.78" allow="pedestrian" oneway="1" width="2.00"/>
    <type id="highway.ford" priority="1" speed="2.78" allow="army" oneway="0"/>
    <type id="highway.living_street" priority="2" speed="2.78" disallow="tram rail_urban rail rail_electric rail_fast ship" oneway="0"/>
    <type id="highway.motorway" priority="14" speed="39.44" allow="private emergency authority army vip passenger hov taxi bus coach delivery truck trailer motorcycle evehicle custom1 custom2" oneway="1"/>
    <type id="highway.motorway_link" priority="9" speed="22.22" allow="private emergency authority army vip passenger hov taxi bus coach delivery truck trailer motorcycle evehicle custom1 custom2" oneway="1"/>
    <type id="highway.path" priority="1" speed="2.78" allow="pedestrian bicycle" oneway="0" width="2.00"/>
    <type id="highway.pedestrian" priority="1" speed="2.78" allow="pedestrian" oneway="1" width="2.00"/>
    <type id="highway.primary" priority="12" speed="27.78" disallow="pedestrian tram rail_urban rail rail_electric rail_fast ship" oneway="0"/>
    <type id="highway.primary_link" priority="7" speed="22.22" disallow="pedestrian tram rail_urban rail rail_electric rail_fast ship" oneway="0"/>
    <type id="highway.raceway" priority="15" speed="83.33" allow="vip" oneway="0"/>
    <type id="highway.residential" priority="3" speed="13.89" disallow="pedestrian tram rail_urban rail rail_electric rail_fast ship" oneway="0"/>
    <type id="highway.secondary" priority="11" speed="27.78" disallow="pedestrian tram rail_urban rail rail_electric rail_fast ship" oneway="0"/>
    <type id="highway.secondary_link" priority="6" speed="22.22" disallow="pedestrian tram rail_urban rail rail_electric rail_fast ship" oneway="0"/>
    <type id="highway.service" priority="1" speed="5.56" allow="pedestrian delivery bicycle" oneway="0"/>
    <type id="highway.stairs" priority="1" speed="1.39" allow="pedestrian" oneway="1" width="2.00"/>
    <type id="highway.step" priority="1" speed="1.39" allow="pedestrian" oneway="1" width="2.00"/>
    <type id="highway.steps" priority="1" speed="1.39" allow="pedestrian" oneway="1" width="2.00"/>
    <type id="highway.tertiary" priority="10" speed="22.22" disallow="pedestrian tram rail_urban rail rail_electric rail_fast ship" oneway="0"/>
    <type id="highway.tertiary_link" priority="5" speed="22.22" disallow="pedestrian tram rail_urban rail rail_electric rail_fast ship" oneway="0"/>
    <type id="highway.track" priority="1" speed="5.56" allow="pedestrian motorcycle moped bicycle" oneway="0"/>
    <type id="highway.trunk" priority="13" speed="27.78" disallow="pedestrian bicycle tram rail_urban rail rail_electric rail_fast ship" oneway="0"/>
    <type id="highway.trunk_link" priority="8" speed="22.22" disallow="pedestrian bicycle tram rail_urban rail rail_electric rail_fast ship" oneway="0"/>
    <type id="highway.unclassified" priority="4" speed="13.89" disallow="pedestrian tram rail_urban rail rail_electric rail_fast ship" oneway="0"/>
    <type id="highway.unsurfaced" priority="1" speed="8.33" disallow="tram rail_urban rail rail_electric rail_fast ship" oneway="0"/>
    <type id="railway.highspeed" priority="21" speed="69.44" allow="rail_fast" oneway="1"/>
    <type id="railway.light_rail" priority="19" speed="27.78" allow="rail_urban" oneway="1"/>
    <type id="railway.preserved" priority="16" speed="27.78" allow="rail" oneway="1"/>
    <type id="railway.rail" priority="20" speed="44.44" allow="rail" oneway="1"/>
    <type id="railway.subway" priority="18" speed="27.78" allow="rail_urban" oneway="1"/>
    <type id="railway.tram" priority="17" speed="13.89" allow="tram" oneway="1"/>

    <edge id=":11_0" function="internal">
        <lane id=":11_0_0" index="0" disallow="pedestrian tram rail_urban rail rail_electric rail_fast ship" speed="36.11" length="4.32" width="3.50" shape="-699.49,9.46 -695.17,9.51"/>
    </edge>
    <edge id=":11_1" function="internal">
        <lane id=":11_1_0" index="0" disallow="pedestrian tram rail_urban rail rail_electric rail_fast ship" speed="36.11" length="3.60" width="3.50" shape="-699.54,12.96 -695.94,13.01"/>
        <lane id=":11_1_1" index="1" disallow="pedestrian tram rail_urban rail rail_electric rail_fast ship" speed="36.11" length="2.88" width="3.50" shape="-699.59,16.46 -696.71,16.50"/>
    </edge>
    <edge id=":25_0" function="internal">
        <lane id=":25_0_0" index="0" disallow="pedestrian tram rail_urban rail rail_electric rail_fast ship" speed="36.11" length="2.99" width="3.50" shape="-695.64,40.56 -695.03,37.63"/>
    </edge>
    <edge id=":28_0" function="internal">
        <lane id=":28_0_0" index="0" disallow="pedestrian tram rail_urban rail rail_electric rail_fast ship" speed="36.11" length="3.00" width="3.50" shape="-681.94,-7.41 -682.57,-4.48"/>
    </edge>
    <edge id=":3_0" function="internal">
        <lane id=":3_0_0" index="0" disallow="pedestrian tram rail_urban rail rail_electric rail_fast ship" speed="36.11" length="3.00" width="3.50" shape="-560.79,18.81 -563.79,18.76"/>
    </edge>
    <edge id=":37_0" function="internal">
        <lane id=":37_0_0" index="0" disallow="pedestrian tram rail_urban rail rail_electric rail_fast ship" speed="36.11" length="3.00" width="3.50" shape="-661.76,20.58 -664.76,20.53"/>
        <lane id=":37_0_1" index="1" disallow="pedestrian tram rail_urban rail rail_electric rail_fast ship" speed="36.11" length="3.00" width="3.50" shape="-661.70,17.08 -664.70,17.03"/>
        <lane id=":37_0_2" index="2" disallow="pedestrian tram rail_urban rail rail_electric rail_fast ship" speed="36.11" length="3.00" width="3.50" shape="-661.64,13.58 -664.64,13.53"/>
    </edge>
    <edge id=":38_0" function="internal">
        <lane id=":38_0_0" index="0" disallow="pedestrian tram rail_urban rail rail_electric rail_fast ship" speed="36.11" length="3.00" width="3.50" shape="-563.73,15.26 -560.73,15.31"/>
    </edge>
    <edge id=":39_0" function="internal">
        <lane id=":39_0_0" index="0" disallow="pedestrian tram rail_urban rail rail_electric rail_fast ship" speed="8.30" length="13.07" width="3.50" shape="-679.69,20.28 -683.74,20.37 -684.89,20.67 -685.97,21.17 -686.92,21.89 -687.71,22.79 -688.54,24.36 -689.19,26.75"/>
    </edge>
    <edge id=":39_1" function="internal">
        <lane id=":39_1_0" index="0" disallow="pedestrian tram rail_urban rail rail_electric rail_fast ship" speed="36.11" length="18.36" width="3.46" shape="-679.62,16.78 -683.45,16.86 -685.47,17.39 -690.29,19.38 -692.31,19.92 -697.44,19.99"/>
    </edge>
    <edge id=":39_2" function="internal">
        <lane id=":39_2_0" index="0" disallow="pedestrian tram rail_urban rail rail_electric rail_fast ship" speed="8.04" length="16.35" width="3.50" shape="-679.55,13.28 -683.70,13.00 -685.61,12.21 -687.18,10.68 -688.01,8.77 -688.23,6.92 -688.14,5.20 -687.74,2.97"/>
    </edge>
    <edge id=":39_3" function="internal">
        <lane id=":39_3_0" index="0" disallow="pedestrian tram rail_urban rail rail_electric rail_fast ship" speed="6.46" length="10.09" width="3.49" shape="-684.32,3.69 -684.62,5.32 -684.71,6.35 -684.64,7.37 -684.34,8.35 -683.70,9.14 -682.79,9.60 -679.48,9.78"/>
    </edge>
    <edge id=":39_4" function="internal">
        <lane id=":39_4_0" index="0" disallow="pedestrian tram rail_urban rail rail_electric rail_fast ship" speed="36.11" length="23.57" width="3.50" shape="-684.32,3.69 -686.75,15.19 -689.19,26.75"/>
    </edge>
    <edge id=":39_5" function="internal">
        <lane id=":39_5_0" index="0" disallow="pedestrian tram rail_urban rail rail_electric rail_fast ship" speed="11.05" length="23.71" width="3.46" shape="-684.32,3.69 -685.62,9.04 -686.82,12.64 -687.93,15.12 -689.03,16.98 -690.06,18.25 -691.30,19.28 -692.27,19.77 -693.32,20.01 -697.44,19.99"/>
    </edge>
    <edge id=":39_6" function="internal">
        <lane id=":39_6_0" index="0" disallow="pedestrian tram rail_urban rail rail_electric rail_fast ship" speed="7.67" length="11.03" width="3.50" shape="-694.97,9.51 -692.57,9.45 -691.47,9.12 -690.49,8.54 -689.67,7.74 -688.76,6.29 -688.15,4.69 -687.74,2.97"/>
    </edge>
    <edge id=":39_7" function="internal">
        <lane id=":39_7_0" index="0" disallow="pedestrian tram rail_urban rail rail_electric rail_fast ship" speed="36.11" length="16.80" width="3.49" shape="-695.74,13.01 -692.20,12.92 -690.18,12.38 -685.35,10.39 -683.33,9.86 -679.48,9.78"/>
    </edge>
    <edge id=":39_8" function="internal">
        <lane id=":39_8_0" index="0" disallow="pedestrian tram rail_urban rail rail_electric rail_fast ship" speed="7.92" length="15.79" width="3.50" shape="-696.51,16.50 -691.89,16.91 -690.08,18.15 -689.06,19.89 -688.69,21.58 -688.66,23.16 -688.80,24.65 -689.19,26.75"/>
    </edge>
    <edge id=":39_9" function="internal">
        <lane id=":39_9_0" index="0" disallow="pedestrian tram rail_urban rail rail_electric rail_fast ship" speed="6.58" length="10.49" width="3.46" shape="-692.62,26.05 -692.31,24.48 -692.19,23.60 -692.14,22.70 -692.20,21.81 -692.44,20.95 -693.01,20.28 -697.44,19.99"/>
    </edge>
    <edge id=":39_10" function="internal">
        <lane id=":39_10_0" index="0" disallow="pedestrian tram rail_urban rail rail_electric rail_fast ship" speed="36.11" length="23.59" width="3.50" shape="-692.62,26.05 -690.17,14.47 -687.74,2.97"/>
    </edge>
    <edge id=":39_11" function="internal">
        <lane id=":39_11_0" index="0" disallow="pedestrian tram rail_urban rail rail_electric rail_fast ship" speed="10.94" length="23.39" width="3.49" shape="-692.62,26.05 -691.42,21.08 -690.37,17.94 -689.25,15.42 -688.12,13.53 -687.09,12.23 -685.88,11.11 -684.45,10.27 -682.87,9.81 -679.48,9.78"/>
    </edge>
    <edge id=":4_0" function="internal">
        <lane id=":4_0_0" index="0" disallow="pedestrian tram rail_urban rail rail_electric rail_fast ship" speed="36.11" length="0.22" width="3.50" shape="-649.19,10.30 -648.97,10.31"/>
    </edge>
    <edge id=":40_0" function="internal">
        <lane id=":40_0_0" index="0" disallow="pedestrian tram rail_urban rail rail_electric rail_fast ship" speed="9.22" length="14.93" width="3.50" shape="-531.33,29.18 -531.92,27.27 -532.66,25.42 -533.59,23.66 -534.14,22.83 -534.76,22.06 -535.45,21.34 -536.22,20.70 -537.05,20.16 -537.95,19.73 -538.89,19.42 -539.87,19.23 -540.86,19.16"/>
    </edge>
    <edge id=":40_1" function="internal">
        <lane id=":40_1_0" index="0" disallow="pedestrian tram rail_urban rail rail_electric rail_fast ship" speed="36.11" length="16.67" width="3.50" shape="-524.19,19.36 -534.02,19.25 -540.86,19.16"/>
    </edge>
    <edge id=":40_2" function="internal">
        <lane id=":40_2_0" index="0" disallow="pedestrian tram rail_urban rail rail_electric rail_fast ship" speed="36.11" length="16.63" width="3.49" shape="-540.79,15.66 -533.97,15.75 -524.16,15.86"/>
    </edge>
    <edge id=":40_3" function="internal">
        <lane id=":40_3_0" index="0" disallow="pedestrian tram rail_urban rail rail_electric rail_fast ship" speed="10.50" length="19.42" width="3.50" shape="-540.79,15.66 -539.48,15.75 -538.15,15.99 -536.85,16.38 -535.61,16.94 -534.44,17.64 -533.37,18.47 -532.42,19.39 -531.58,20.39 -530.82,21.47 -529.62,23.65 -528.68,25.93 -527.96,28.24"/>
    </edge>
    <edge id=":41_0" function="internal">
        <lane id=":41_0_0" index="0" disallow="pedestrian tram rail_urban rail rail_electric rail_fast ship" speed="36.11" length="8.11" width="3.50" shape="-629.70,18.72 -637.73,19.89"/>
        <lane id=":41_0_1" index="1" disallow="pedestrian tram rail_urban rail rail_electric rail_fast ship" speed="36.11" length="8.01" width="3.50" shape="-629.68,17.63 -633.66,17.57 -637.69,17.50"/>
        <lane id=":41_0_2" index="2" disallow="pedestrian tram rail_urban rail rail_electric rail_fast ship" speed="36.11" length="8.13" width="3.50" shape="-629.66,16.54 -637.66,15.10"/>
    </edge>
    <edge id=":5_0" function="internal">
        <lane id=":5_0_0" index="0" disallow="pedestrian tram rail_urban rail rail_electric rail_fast ship" speed="36.11" length="2.95" width="3.50" shape="-619.55,14.26 -616.60,14.36"/>
    </edge>
    <edge id=":6_0" function="internal">
        <lane id=":6_0_0" index="0" disallow="pedestrian tram rail_urban rail rail_electric rail_fast ship" speed="36.11" length="3.00" width="3.50" shape="-664.58,10.03 -661.58,10.09"/>
    </edge>
    <edge id=":7_0" function="internal">
        <lane id=":7_0_0" index="0" disallow="pedestrian tram rail_urban rail rail_electric rail_fast ship" speed="36.11" length="3.00" width="3.50" shape="-685.99,-5.21 -685.36,-8.14"/>
    </edge>
    <edge id=":9_0" function="internal">
        <lane id=":9_0_0" index="0" disallow="pedestrian tram rail_urban rail rail_electric rail_fast ship" speed="36.11" length="3.00" width="3.50" shape="-691.61,38.34 -692.22,41.28"/>
    </edge>

    <edge id="107133" from="39" to="35" priority="3" type="highway.residential" spreadType="center" length="5.94">
        <lane id="107133_0" index="0" disallow="pedestrian tram rail_urban rail rail_electric rail_fast ship" speed="36.11" length="5.94" width="3.46" customShape="1" shape="-697.44,19.99 -698.13,19.98 -698.26,19.98 -698.38,19.98 -703.38,19.91"/>
    </edge>
    <edge id="107135" from="24" to="11" priority="3" type="highway.residential" spreadType="center" length="3.75">
        <lane id="107135_0" index="0" disallow="pedestrian tram rail_urban rail rail_electric rail_fast ship" speed="36.11" length="3.75" width="3.50" customShape="1" shape="-703.29,12.91 -699.54,12.96"/>
        <lane id="107135_1" index="1" disallow="pedestrian tram rail_urban rail rail_electric rail_fast ship" speed="36.11" length="3.75" width="3.50" customShape="1" shape="-703.34,16.41 -699.59,16.46"/>
    </edge>
    <edge id="107284" from="28" to="39" priority="3" type="highway.residential" spreadType="center" length="8.36" shape="-682.25,-5.94 -686.45,14.91">
        <lane id="107284_0" index="0" disallow="pedestrian tram rail_urban rail rail_electric rail_fast ship" speed="36.11" length="8.36" width="3.50" customShape="1" shape="-682.57,-4.48 -682.89,-2.96 -683.53,0.02 -683.56,0.15 -683.58,0.28 -683.99,2.17 -684.32,3.69"/>
    </edge>
    <edge id="107290" from="30" to="28" priority="3" type="highway.residential" spreadType="center" length="68.50">
        <lane id="107290_0" index="0" disallow="pedestrian tram rail_urban rail rail_electric rail_fast ship" speed="36.11" length="68.50" width="3.50" customShape="1" shape="-667.56,-74.38 -681.94,-7.41"/>
    </edge>
    <edge id="107291" from="7" to="8" priority="3" type="highway.residential" spreadType="center" length="68.51">
        <lane id="107291_0" index="0" disallow="pedestrian tram rail_urban rail rail_electric rail_fast ship" speed="36.11" length="68.51" width="3.50" customShape="1" shape="-685.36,-8.14 -670.98,-75.12"/>
    </edge>
    <edge id="108237" from="9" to="10" priority="3" type="highway.residential" spreadType="center" length="52.27">
        <lane id="108237_0" index="0" disallow="pedestrian tram rail_urban rail rail_electric rail_fast ship" speed="36.11" length="52.27" width="3.50" customShape="1" shape="-692.22,41.28 -697.40,66.13 -702.88,92.45"/>
    </edge>
    <edge id="108238" from="27" to="25" priority="3" type="highway.residential" spreadType="center" length="52.30">
        <lane id="108238_0" index="0" disallow="pedestrian tram rail_urban rail rail_electric rail_fast ship" speed="36.11" length="52.30" width="3.50" customShape="1" shape="-706.31,91.76 -700.82,65.42 -695.64,40.56"/>
    </edge>
    <edge id="108244" from="25" to="39" priority="3" type="highway.residential" spreadType="center" length="11.83" shape="-695.34,39.09 -689.81,13.94">
        <lane id="108244_0" index="0" disallow="pedestrian tram rail_urban rail rail_electric rail_fast ship" speed="36.11" length="11.83" width="3.50" customShape="1" shape="-695.03,37.63 -694.54,35.25 -693.73,31.40 -693.71,31.27 -693.68,31.14 -693.10,28.38 -692.62,26.05"/>
    </edge>
    <edge id="108352" from="40" to="17" priority="3" type="highway.residential" spreadType="center" length="5.26" shape="-530.95,20.46 -526.57,33.31">
        <lane id="108352_0" index="0" disallow="pedestrian tram rail_urban rail rail_electric rail_fast ship" speed="36.11" length="5.26" width="3.50" customShape="1" shape="-527.96,28.24 -527.92,28.37 -527.89,28.49 -526.57,33.31"/>
    </edge>
    <edge id="108353" from="19" to="40" priority="3" type="highway.residential" spreadType="center" length="5.25" shape="-529.95,34.23 -534.23,21.57">
        <lane id="108353_0" index="0" disallow="pedestrian tram rail_urban rail rail_electric rail_fast ship" speed="36.11" length="5.25" width="3.50" customShape="1" shape="-529.95,34.23 -531.26,29.41 -531.30,29.29 -531.33,29.17"/>
    </edge>
    <edge id="108511" from="11" to="39" priority="3" type="highway.residential" spreadType="center" length="0.20">
        <lane id="108511_0" index="0" disallow="pedestrian tram rail_urban rail rail_electric rail_fast ship" speed="36.11" length="0.20" width="3.50" customShape="1" shape="-695.17,9.51 -694.97,9.51"/>
        <lane id="108511_1" index="1" disallow="pedestrian tram rail_urban rail rail_electric rail_fast ship" speed="36.11" length="0.20" width="3.50" customShape="1" shape="-695.94,13.01 -695.74,13.01"/>
        <lane id="108511_2" index="2" disallow="pedestrian tram rail_urban rail rail_electric rail_fast ship" speed="36.11" length="0.20" width="3.50" customShape="1" shape="-696.71,16.50 -696.51,16.50"/>
    </edge>
    <edge id="108700" from="3" to="41" priority="3" type="highway.residential" spreadType="center" length="65.90">
        <lane id="108700_0" index="0" disallow="pedestrian tram rail_urban rail rail_electric rail_fast ship" speed="36.11" length="65.90" width="3.50" customShape="1" shape="-563.79,18.76 -590.21,18.31 -629.68,17.64"/>
    </edge>
    <edge id="108701" from="5" to="38" priority="3" type="highway.residential" spreadType="center" length="52.88">
        <lane id="108701_0" index="0" disallow="pedestrian tram rail_urban rail rail_electric rail_fast ship" speed="36.11" length="52.88" width="3.50" customShape="1" shape="-616.60,14.36 -590.15,14.81 -563.73,15.26"/>
    </edge>
    <edge id="108704" from="38" to="40" priority="3" type="highway.residential" spreadType="center" length="19.96" shape="-562.23,15.28 -532.17,19.52">
        <lane id="108704_0" index="0" disallow="pedestrian tram rail_urban rail rail_electric rail_fast ship" speed="36.11" length="19.96" width="3.50" customShape="1" shape="-560.73,15.31 -551.64,15.47 -541.05,15.65 -540.93,15.66 -540.77,15.66"/>
    </edge>
    <edge id="108706" from="21" to="40" priority="3" type="highway.residential" spreadType="center" length="2.27" shape="-521.92,19.37 -532.22,22.95">
        <lane id="108706_0" index="0" disallow="pedestrian tram rail_urban rail rail_electric rail_fast ship" speed="36.11" length="2.27" width="3.48" customShape="1" shape="-521.92,19.37 -524.19,19.36"/>
    </edge>
    <edge id="108707" from="40" to="18" priority="3" type="highway.residential" spreadType="center" length="2.26" shape="-533.30,19.67 -521.90,15.87">
        <lane id="108707_0" index="0" disallow="pedestrian tram rail_urban rail rail_electric rail_fast ship" speed="36.11" length="2.26" width="3.49" customShape="1" shape="-524.16,15.86 -521.90,15.87"/>
    </edge>
    <edge id="108780" from="37" to="39" priority="3" type="highway.residential" spreadType="center" length="14.91" shape="-663.20,17.06 -688.69,19.65">
        <lane id="108780_0" index="0" disallow="pedestrian tram rail_urban rail rail_electric rail_fast ship" speed="36.11" length="14.93" width="3.50" customShape="1" shape="-664.76,20.53 -668.78,20.46 -674.31,20.37 -674.44,20.37 -674.57,20.37 -678.13,20.30 -679.69,20.28"/>
        <lane id="108780_1" index="1" disallow="pedestrian tram rail_urban rail rail_electric rail_fast ship" speed="36.11" length="14.92" width="3.50" customShape="1" shape="-664.70,17.03 -668.73,16.96 -674.25,16.87 -674.38,16.87 -674.51,16.87 -678.07,16.80 -679.62,16.78"/>
        <lane id="108780_2" index="2" disallow="pedestrian tram rail_urban rail rail_electric rail_fast ship" speed="36.11" length="14.91" width="3.50" customShape="1" shape="-664.64,13.53 -668.67,13.46 -674.20,13.37 -674.32,13.37 -674.45,13.37 -678.01,13.30 -679.55,13.28"/>
    </edge>
    <edge id="108790" from="41" to="37" priority="3" type="highway.residential" spreadType="center" length="23.99">
        <lane id="108790_0" index="0" disallow="pedestrian tram rail_urban rail rail_electric rail_fast ship" speed="36.11" length="24.02" width="3.50" customShape="1" shape="-637.74,21.00 -656.26,20.68 -661.76,20.58"/>
        <lane id="108790_1" index="1" disallow="pedestrian tram rail_urban rail rail_electric rail_fast ship" speed="36.11" length="24.01" width="3.50" customShape="1" shape="-637.69,17.50 -656.20,17.18 -661.70,17.08"/>
        <lane id="108790_2" index="2" disallow="pedestrian tram rail_urban rail rail_electric rail_fast ship" speed="36.11" length="23.99" width="3.50" customShape="1" shape="-637.65,14.00 -656.14,13.68 -661.64,13.58"/>
    </edge>
    <edge id="108793" from="6" to="4" priority="3" type="highway.residential" spreadType="center" length="12.39">
        <lane id="108793_0" index="0" disallow="pedestrian tram rail_urban rail rail_electric rail_fast ship" speed="36.11" length="12.39" width="3.50" customShape="1" shape="-661.58,10.09 -656.08,10.18 -649.19,10.30"/>
    </edge>
    <edge id="109542" from="13" to="11" priority="3" type="highway.residential" spreadType="center" length="3.50">
        <lane id="109542_0" index="0" disallow="pedestrian tram rail_urban rail rail_electric rail_fast ship" speed="36.11" length="3.50" width="3.50" customShape="1" shape="-702.99,9.41 -699.49,9.46"/>
    </edge>
    <edge id="110246" from="40" to="3" priority="3" type="highway.residential" spreadType="center" length="19.93" shape="-532.66,22.98 -562.29,18.78">
        <lane id="110246_0" index="0" disallow="pedestrian tram rail_urban rail rail_electric rail_fast ship" speed="36.11" length="19.93" width="3.50" customShape="1" shape="-540.86,19.16 -540.99,19.16 -541.12,19.15 -551.70,18.97 -560.79,18.81"/>
    </edge>
    <edge id="110396" from="39" to="9" priority="3" type="highway.residential" spreadType="center" length="11.84" shape="-686.40,14.68 -691.91,39.81">
        <lane id="110396_0" index="0" disallow="pedestrian tram rail_urban rail rail_electric rail_fast ship" speed="36.11" length="11.84" width="3.50" customShape="1" shape="-689.19,26.75 -689.68,29.09 -690.25,31.86 -690.28,31.99 -690.31,32.11 -691.11,35.96 -691.61,38.34"/>
    </edge>
    <edge id="110618" from="4" to="5" priority="3" type="highway.residential" spreadType="center" length="29.72">
        <lane id="110618_0" index="0" disallow="pedestrian tram rail_urban rail rail_electric rail_fast ship" speed="36.11" length="29.72" width="3.50" customShape="1" shape="-648.97,10.31 -644.91,10.53 -639.74,11.20 -626.38,13.59 -621.20,14.19 -619.55,14.26"/>
    </edge>
    <edge id="110649" from="39" to="6" priority="3" type="highway.residential" spreadType="center" length="14.90" shape="-688.43,12.71 -663.08,10.06">
        <lane id="110649_0" index="0" disallow="pedestrian tram rail_urban rail rail_electric rail_fast ship" speed="36.11" length="14.90" width="3.49" customShape="1" shape="-679.48,9.78 -677.95,9.81 -674.39,9.87 -674.26,9.87 -674.14,9.87 -668.61,9.97 -664.58,10.03"/>
    </edge>
    <edge id="110898" from="39" to="7" priority="3" type="highway.residential" spreadType="center" length="8.37" shape="-689.87,14.22 -685.67,-6.68">
        <lane id="110898_0" index="0" disallow="pedestrian tram rail_urban rail rail_electric rail_fast ship" speed="36.11" length="8.37" width="3.50" customShape="1" shape="-687.74,2.97 -687.41,1.44 -687.01,-0.46 -686.98,-0.58 -686.95,-0.71 -686.31,-3.69 -685.99,-5.21"/>
    </edge>

    <junction id="10" type="dead_end" x="-702.88" y="92.45" incLanes="108237_0" intLanes="" shape="-701.17,92.81 -704.60,92.10" rightOfWay="edgePriority"/>
    <junction id="11" type="priority" x="-696.69" y="13.00" incLanes="109542_0 107135_0 107135_1" intLanes=":11_0_0 :11_1_0 :11_1_1" shape="-696.63,18.25 -692.44,7.83 -699.47,7.71 -699.52,11.21 -699.61,18.21" rightOfWay="edgePriority">
        <request index="0" response="000" foes="000" cont="0"/>
        <request index="1" response="000" foes="000" cont="0"/>
        <request index="2" response="000" foes="000" cont="0"/>
    </junction>
    <junction id="13" type="dead_end" x="-702.99" y="9.41" incLanes="" intLanes="" shape="-703.02,11.16 -702.97,7.66" rightOfWay="edgePriority"/>
    <junction id="17" type="dead_end" x="-526.57" y="33.31" incLanes="108352_0" intLanes="" shape="-524.88,32.85 -528.26,33.77" rightOfWay="edgePriority"/>
    <junction id="18" type="dead_end" x="-521.90" y="15.87" incLanes="108707_0" intLanes="" shape="-521.88,14.13 -521.91,17.62" rightOfWay="edgePriority"/>
    <junction id="19" type="dead_end" x="-529.95" y="34.23" incLanes="" intLanes="" shape="-528.26,33.77 -531.64,34.69" rightOfWay="edgePriority"/>
    <junction id="21" type="dead_end" x="-521.92" y="19.37" incLanes="" intLanes="" shape="-521.91,17.63 -521.93,21.11" rightOfWay="edgePriority"/>
    <junction id="24" type="dead_end" x="-703.31" y="14.66" incLanes="" intLanes="" shape="-703.36,18.16 -703.27,11.16" rightOfWay="edgePriority"/>
    <junction id="25" type="priority" x="-695.34" y="39.09" incLanes="108238_0" intLanes=":25_0_0" shape="-693.32,37.98 -696.74,37.27 -697.36,40.21 -693.93,40.92" rightOfWay="edgePriority">
        <request index="0" response="0" foes="0" cont="0"/>
    </junction>
    <junction id="27" type="dead_end" x="-706.31" y="91.76" incLanes="" intLanes="" shape="-704.60,92.12 -708.03,91.41" rightOfWay="edgePriority"/>
    <junction id="28" type="priority" x="-682.25" y="-5.94" incLanes="107290_0" intLanes=":28_0_0" shape="-680.23,-7.04 -683.65,-7.78 -684.28,-4.84 -680.86,-4.11" rightOfWay="edgePriority">
        <request index="0" response="0" foes="0" cont="0"/>
    </junction>
    <junction id="3" type="priority" x="-562.29" y="18.78" incLanes="110246_0" intLanes=":3_0_0" shape="-560.82,20.56 -560.76,17.06 -563.76,17.01 -563.82,20.51" rightOfWay="edgePriority">
        <request index="0" response="0" foes="0" cont="0"/>
    </junction>
    <junction id="30" type="dead_end" x="-667.56" y="-74.38" incLanes="" intLanes="" shape="-669.27,-74.75 -665.85,-74.02" rightOfWay="edgePriority"/>
    <junction id="35" type="dead_end" x="-703.38" y="19.91" incLanes="107133_0" intLanes="" shape="-703.40,21.64 -703.36,18.18" rightOfWay="edgePriority"/>
    <junction id="37" type="priority" x="-663.20" y="17.06" incLanes="108790_0 108790_1 108790_2" intLanes=":37_0_0 :37_0_1 :37_0_2" shape="-661.79,22.33 -661.61,11.84 -664.61,11.78 -664.79,22.28" rightOfWay="edgePriority">
        <request index="0" response="000" foes="000" cont="0"/>
        <request index="1" response="000" foes="000" cont="0"/>
        <request index="2" response="000" foes="000" cont="0"/>
    </junction>
    <junction id="38" type="priority" x="-562.23" y="15.28" incLanes="108701_0" intLanes=":38_0_0" shape="-560.76,17.06 -560.70,13.56 -563.70,13.51 -563.76,17.01" rightOfWay="edgePriority">
        <request index="0" response="0" foes="0" cont="0"/>
    </junction>