<routes>
	<vehicle depart="0.1" departLane="0" departPos="11.322881370129364" departSpeed="5.1364089" id="341" type="passenger">
		<route edges=":40_0 110246 108700"/>
	</vehicle>
</routes>
