<!-- generated on Tue Feb  9 22:10:54 2021 by Eclipse SUMO netconvert Version 1.8.0
<configuration xmlns:xsi="http://www.w3.org/2001/XMLSchema-instance" xsi:noNamespaceSchemaLocation="http://sumo.dlr.de/xsd/netconvertConfiguration.xsd">

    <input>
        <node-files value="./converted_scenarios/scenario-factory/DEU_Moabit-6_1_I-1-1/DEU_Moabit-6_1_I-1-1.nod.xml"/>
        <edge-files value="./converted_scenarios/scenario-factory/DEU_Moabit-6_1_I-1-1/DEU_Moabit-6_1_I-1-1.edg.xml"/>
        <connection-files value="./converted_scenarios/scenario-factory/DEU_Moabit-6_1_I-1-1/DEU_Moabit-6_1_I-1-1.con.xml"/>
        <tllogic-files value="./converted_scenarios/scenario-factory/DEU_Moabit-6_1_I-1-1/DEU_Moabit-6_1_I-1-1.tll.xml"/>
        <type-files value="/home/zen/commonroad-interactive-benchmarks/install/commonroad-map-tool/crmapconverter/sumo_map/templates/DEU.typ.xml"/>
    </input>

    <output>
        <output-file value="./converted_scenarios/scenario-factory/DEU_Moabit-6_1_I-1-1/DEU_Moabit-6_1_I-1-1.net.xml"/>
    </output>

    <processing>
        <geometry.remove.keep-edges.explicit value="true"/>
        <geometry.avoid-overlap value="true"/>
        <offset.disable-normalization value="true"/>
    </processing>

    <junctions>
        <no-turnarounds value="true"/>
        <junctions.internal-link-detail value="20"/>
    </junctions>

    <report>
        <aggregate-warnings value="5"/>
    </report>

    <random_number>
        <seed value="1234"/>
    </random_number>

</configuration>
--><net xmlns:xsi="http://www.w3.org/2001/XMLSchema-instance" version="1.6" junctionCornerDetail="5" junctionLinkDetail="20" limitTurnSpeed="5.50" xsi:noNamespaceSchemaLocation="http://sumo.dlr.de/xsd/net_file.xsd">

    <location netOffset="0.00,0.00" convBoundary="-618.14,14.33,-435.43,152.46" origBoundary="-618.14,14.33,-435.43,152.46" projParameter="!"/>

    <type id="highway.bridleway" priority="1" speed="2.78" allow="pedestrian" oneway="1" width="2.00"/>
    <type id="highway.bus_guideway" priority="1" speed="27.78" allow="bus" oneway="1"/>
    <type id="highway.cycleway" priority="1" speed="8.33" allow="bicycle" oneway="0" width="1.00"/>
    <type id="highway.footway" priority="1" speed="2.78" allow="pedestrian" oneway="1" width="2.00"/>
    <type id="highway.ford" priority="1" speed="2.78" allow="army" oneway="0"/>
    <type id="highway.living_street" priority="2" speed="2.78" disallow="tram rail_urban rail rail_electric rail_fast ship" oneway="0"/>
    <type id="highway.motorway" priority="14" speed="39.44" allow="private emergency authority army vip passenger hov taxi bus coach delivery truck trailer motorcycle evehicle custom1 custom2" oneway="1"/>
    <type id="highway.motorway_link" priority="9" speed="22.22" allow="private emergency authority army vip passenger hov taxi bus coach delivery truck trailer motorcycle evehicle custom1 custom2" oneway="1"/>
    <type id="highway.path" priority="1" speed="2.78" allow="pedestrian bicycle" oneway="0" width="2.00"/>
    <type id="highway.pedestrian" priority="1" speed="2.78" allow="pedestrian" oneway="1" width="2.00"/>
    <type id="highway.primary" priority="12" speed="27.78" disallow="pedestrian tram rail_urban rail rail_electric rail_fast ship" oneway="0"/>
    <type id="highway.primary_link" priority="7" speed="22.22" disallow="pedestrian tram rail_urban rail rail_electric rail_fast ship" oneway="0"/>
    <type id="highway.raceway" priority="15" speed="83.33" allow="vip" oneway="0"/>
    <type id="highway.residential" priority="3" speed="13.89" disallow="pedestrian tram rail_urban rail rail_electric rail_fast ship" oneway="0"/>
    <type id="highway.secondary" priority="11" speed="27.78" disallow="pedestrian tram rail_urban rail rail_electric rail_fast ship" oneway="0"/>
    <type id="highway.secondary_link" priority="6" speed="22.22" disallow="pedestrian tram rail_urban rail rail_electric rail_fast ship" oneway="0"/>
    <type id="highway.service" priority="1" speed="5.56" allow="pedestrian delivery bicycle" oneway="0"/>
    <type id="highway.stairs" priority="1" speed="1.39" allow="pedestrian" oneway="1" width="2.00"/>
    <type id="highway.step" priority="1" speed="1.39" allow="pedestrian" oneway="1" width="2.00"/>
    <type id="highway.steps" priority="1" speed="1.39" allow="pedestrian" oneway="1" width="2.00"/>
    <type id="highway.tertiary" priority="10" speed="22.22" disallow="pedestrian tram rail_urban rail rail_electric rail_fast ship" oneway="0"/>
    <type id="highway.tertiary_link" priority="5" speed="22.22" disallow="pedestrian tram rail_urban rail rail_electric rail_fast ship" oneway="0"/>
    <type id="highway.track" priority="1" speed="5.56" allow="pedestrian motorcycle moped bicycle" oneway="0"/>
    <type id="highway.trunk" priority="13" speed="27.78" disallow="pedestrian bicycle tram rail_urban rail rail_electric rail_fast ship" oneway="0"/>
    <type id="highway.trunk_link" priority="8" speed="22.22" disallow="pedestrian bicycle tram rail_urban rail rail_electric rail_fast ship" oneway="0"/>
    <type id="highway.unclassified" priority="4" speed="13.89" disallow="pedestrian tram rail_urban rail rail_electric rail_fast ship" oneway="0"/>
    <type id="highway.unsurfaced" priority="1" speed="8.33" disallow="tram rail_urban rail rail_electric rail_fast ship" oneway="0"/>
    <type id="railway.highspeed" priority="21" speed="69.44" allow="rail_fast" oneway="1"/>
    <type id="railway.light_rail" priority="19" speed="27.78" allow="rail_urban" oneway="1"/>
    <type id="railway.preserved" priority="16" speed="27.78" allow="rail" oneway="1"/>
    <type id="railway.rail" priority="20" speed="44.44" allow="rail" oneway="1"/>
    <type id="railway.subway" priority="18" speed="27.78" allow="rail_urban" oneway="1"/>
    <type id="railway.tram" priority="17" speed="13.89" allow="tram" oneway="1"/>

    <edge id=":10_0" function="internal">
        <lane id=":10_0_0" index="0" disallow="pedestrian tram rail_urban rail rail_electric rail_fast ship" speed="36.11" length="3.00" width="3.50" shape="-560.79,18.81 -563.79,18.76"/>
    </edge>
    <edge id=":13_0" function="internal">
        <lane id=":13_0_0" index="0" disallow="pedestrian tram rail_urban rail rail_electric rail_fast ship" speed="36.11" length="3.00" width="3.50" shape="-506.91,16.02 -503.91,16.07"/>
    </edge>
    <edge id=":16_0" function="internal">
        <lane id=":16_0_0" index="0" disallow="pedestrian tram rail_urban rail rail_electric rail_fast ship" speed="36.11" length="3.00" width="3.50" shape="-563.73,15.26 -560.73,15.31"/>
    </edge>
    <edge id=":19_0" function="internal">
        <lane id=":19_0_0" index="0" disallow="pedestrian tram rail_urban rail rail_electric rail_fast ship" speed="36.11" length="2.99" width="3.48" shape="-503.97,19.57 -506.96,19.52"/>
    </edge>
    <edge id=":26_0" function="internal">
        <lane id=":26_0_0" index="0" disallow="pedestrian tram rail_urban rail rail_electric rail_fast ship" speed="36.11" length="3.00" width="3.50" shape="-528.53,39.46 -529.32,36.57"/>
    </edge>
    <edge id=":27_0" function="internal">
        <lane id=":27_0_0" index="0" disallow="pedestrian tram rail_urban rail rail_electric rail_fast ship" speed="11.27" length="29.05" width="3.50" shape="-516.06,84.96 -516.76,82.73 -517.61,80.60 -518.63,78.59 -519.86,76.73 -521.33,75.07 -522.12,74.38 -522.97,73.73 -523.87,73.16 -524.83,72.68 -525.82,72.28 -526.85,71.96 -527.88,71.73 -530.10,71.47 -532.35,71.50 -534.59,71.75 -538.03,72.50"/>
    </edge>
    <edge id=":27_1" function="internal">
        <lane id=":27_1_0" index="0" disallow="pedestrian tram rail_urban rail rail_electric rail_fast ship" speed="36.11" length="38.67" width="3.50" shape="-516.06,84.96 -521.17,66.32 -526.29,47.67"/>
    </edge>
    <edge id=":27_2" function="internal">
        <lane id=":27_2_0" index="0" disallow="pedestrian tram rail_urban rail rail_electric rail_fast ship" speed="36.11" length="38.63" width="3.50" shape="-522.91,46.75 -517.80,65.39 -512.69,84.00"/>
    </edge>
    <edge id=":27_3" function="internal">
        <lane id=":27_3_0" index="0" disallow="pedestrian tram rail_urban rail rail_electric rail_fast ship" speed="12.20" length="34.27" width="3.50" shape="-522.91,46.75 -522.07,50.64 -521.79,53.26 -521.79,55.89 -522.13,58.49 -522.44,59.77 -522.86,61.02 -523.38,62.23 -524.01,63.38 -524.74,64.48 -525.55,65.51 -526.45,66.47 -528.46,68.17 -530.67,69.59 -533.03,70.76 -535.48,71.72 -538.03,72.50"/>
    </edge>
    <edge id=":27_4" function="internal">
        <lane id=":27_4_0" index="0" disallow="pedestrian tram rail_urban rail rail_electric rail_fast ship" speed="11.19" length="28.68" width="3.50" shape="-538.95,69.12 -536.73,68.44 -534.61,67.62 -532.60,66.62 -530.75,65.44 -529.07,64.02 -528.36,63.26 -527.70,62.44 -527.12,61.56 -526.62,60.64 -526.20,59.67 -525.86,58.66 -525.61,57.66 -525.32,55.48 -525.32,53.27 -525.55,51.06 -526.29,47.67"/>
    </edge>
    <edge id=":27_5" function="internal">
        <lane id=":27_5_0" index="0" disallow="pedestrian tram rail_urban rail rail_electric rail_fast ship" speed="12.26" length="34.59" width="3.50" shape="-538.95,69.12 -535.02,68.27 -532.38,67.97 -529.72,67.94 -527.08,68.24 -525.78,68.54 -524.51,68.93 -523.28,69.43 -522.10,70.03 -520.97,70.74 -519.91,71.54 -518.92,72.43 -517.16,74.42 -515.69,76.63 -514.47,79.00 -513.49,81.47 -512.69,84.00"/>
    </edge>
    <edge id=":28_0" function="internal">
        <lane id=":28_0_0" index="0" disallow="pedestrian tram rail_urban rail rail_electric rail_fast ship" speed="9.22" length="14.93" width="3.50" shape="-531.33,29.18 -531.92,27.27 -532.66,25.42 -533.59,23.66 -534.14,22.83 -534.76,22.06 -535.45,21.34 -536.22,20.70 -537.05,20.16 -537.95,19.73 -538.89,19.42 -539.87,19.23 -540.86,19.16"/>
    </edge>
    <edge id=":28_1" function="internal">
        <lane id=":28_1_0" index="0" disallow="pedestrian tram rail_urban rail rail_electric rail_fast ship" speed="8.54" length="19.60" width="3.49" shape="-531.33,29.18 -532.08,25.93 -532.34,24.29 -532.47,22.63 -532.45,20.97 -532.16,19.33 -531.48,17.83 -530.32,16.66 -528.80,16.01 -524.14,15.86"/>
    </edge>
    <edge id=":28_2" function="internal">
        <lane id=":28_2_0" index="0" disallow="pedestrian tram rail_urban rail rail_electric rail_fast ship" speed="7.10" length="13.15" width="3.50" shape="-524.17,19.36 -527.67,19.22 -528.32,19.55 -528.72,20.26 -528.91,21.16 -528.96,22.21 -528.91,23.35 -528.76,24.56 -528.55,25.77 -527.96,28.24"/>
    </edge>
    <edge id=":28_3" function="internal">
        <lane id=":28_3_0" index="0" disallow="pedestrian tram rail_urban rail rail_electric rail_fast ship" speed="36.11" length="16.69" width="3.50" shape="-524.17,19.36 -534.02,19.25 -540.86,19.16"/>
    </edge>
    <edge id=":28_4" function="internal">
        <lane id=":28_4_0" index="0" disallow="pedestrian tram rail_urban rail rail_electric rail_fast ship" speed="36.11" length="16.65" width="3.49" shape="-540.79,15.66 -533.97,15.75 -524.14,15.86"/>
    </edge>
    <edge id=":28_5" function="internal">
        <lane id=":28_5_0" index="0" disallow="pedestrian tram rail_urban rail rail_electric rail_fast ship" speed="10.50" length="19.42" width="3.50" shape="-540.79,15.66 -539.48,15.75 -538.15,15.99 -536.85,16.38 -535.61,16.94 -534.44,17.64 -533.37,18.47 -532.42,19.39 -531.58,20.39 -530.82,21.47 -529.62,23.65 -528.68,25.93 -527.96,28.24"/>
    </edge>
    <edge id=":4_0" function="internal">
        <lane id=":4_0_0" index="0" disallow="pedestrian tram rail_urban rail rail_electric rail_fast ship" speed="36.11" length="3.00" width="3.50" shape="-525.94,35.65 -525.15,38.54"/>
    </edge>

    <edge id="107070" from="27" to="8" priority="3" type="highway.residential" spreadType="center" length="70.00" shape="-525.32,69.18 -605.56,90.92">
        <lane id="107070_0" index="0" disallow="pedestrian tram rail_urban rail rail_electric rail_fast ship" speed="36.11" length="70.00" width="3.50" customShape="1" shape="-538.03,72.50 -605.56,90.92"/>
    </edge>
    <edge id="107071" from="12" to="27" priority="3" type="highway.residential" spreadType="center" length="70.00" shape="-606.47,87.54 -526.24,65.81">
        <lane id="107071_0" index="0" disallow="pedestrian tram rail_urban rail rail_electric rail_fast ship" speed="36.11" length="70.00" width="3.50" customShape="1" shape="-606.47,87.54 -538.94,69.12"/>
    </edge>
    <edge id="108343" from="27" to="9" priority="3" type="highway.residential" spreadType="center" length="70.00" shape="-524.18,66.89 -494.17,151.51">
        <lane id="108343_0" index="0" disallow="pedestrian tram rail_urban rail rail_electric rail_fast ship" speed="36.11" length="70.00" width="3.50" customShape="1" shape="-512.69,84.00 -494.17,151.51"/>
    </edge>
    <edge id="108344" from="15" to="27" priority="3" type="highway.residential" spreadType="center" length="70.03" shape="-497.54,152.46 -527.48,68.06">
        <lane id="108344_0" index="0" disallow="pedestrian tram rail_urban rail rail_electric rail_fast ship" speed="36.11" length="70.03" width="3.50" customShape="1" shape="-497.54,152.46 -516.07,84.93"/>
    </edge>
    <edge id="108346" from="4" to="27" priority="3" type="highway.residential" spreadType="center" length="8.54" shape="-525.55,37.09 -524.07,67.52">
        <lane id="108346_0" index="0" disallow="pedestrian tram rail_urban rail rail_electric rail_fast ship" speed="36.11" length="8.54" width="3.50" customShape="1" shape="-525.15,38.54 -524.22,41.94 -522.90,46.78"/>
    </edge>
    <edge id="108347" from="27" to="26" priority="3" type="highway.residential" spreadType="center" length="8.51" shape="-527.56,67.69 -528.92,38.01">
        <lane id="108347_0" index="0" disallow="pedestrian tram rail_urban rail rail_electric rail_fast ship" speed="36.11" length="8.51" width="3.50" customShape="1" shape="-526.29,47.67 -527.60,42.86 -528.53,39.46"/>
    </edge>
    <edge id="108353" from="26" to="28" priority="3" type="highway.residential" spreadType="center" length="7.67" shape="-528.92,38.01 -534.23,21.60">
        <lane id="108353_0" index="0" disallow="pedestrian tram rail_urban rail rail_electric rail_fast ship" speed="36.11" length="7.67" width="3.50" customShape="1" shape="-529.32,36.57 -529.62,35.44 -530.32,32.87 -530.36,32.75 -530.39,32.62 -530.83,31.02 -531.26,29.41 -531.30,29.29 -531.33,29.17"/>
    </edge>
    <edge id="108700" from="10" to="11" priority="3" type="highway.residential" spreadType="center" length="54.36">
        <lane id="108700_0" index="0" disallow="pedestrian tram rail_urban rail rail_electric rail_fast ship" speed="36.11" length="54.36" width="3.50" customShape="1" shape="-563.79,18.76 -590.21,18.31 -618.14,17.83"/>
    </edge>
    <edge id="108701" from="18" to="16" priority="3" type="highway.residential" spreadType="center" length="54.35">
        <lane id="108701_0" index="0" disallow="pedestrian tram rail_urban rail rail_electric rail_fast ship" speed="36.11" length="54.35" width="3.50" customShape="1" shape="-618.07,14.33 -590.15,14.81 -563.73,15.26"/>
    </edge>
    <edge id="108704" from="16" to="28" priority="3" type="highway.residential" spreadType="center" length="19.96" shape="-562.23,15.28 -532.17,19.52">
        <lane id="108704_0" index="0" disallow="pedestrian tram rail_urban rail rail_electric rail_fast ship" speed="36.11" length="19.96" width="3.50" customShape="1" shape="-560.73,15.31 -551.64,15.47 -541.05,15.65 -540.93,15.66 -540.77,15.66"/>
    </edge>
    <edge id="108706" from="19" to="28" priority="3" type="highway.residential" spreadType="center" length="17.21" shape="-505.47,19.54 -532.41,22.97">
        <lane id="108706_0" index="0" disallow="pedestrian tram rail_urban rail rail_electric rail_fast ship" speed="36.11" length="17.21" width="3.48" customShape="1" shape="-506.96,19.52 -511.91,19.47 -518.36,19.40 -518.48,19.40 -518.61,19.40 -522.76,19.37 -524.17,19.36"/>
    </edge>
    <edge id="108712" from="21" to="19" priority="3" type="highway.residential" spreadType="center" length="68.51">
        <lane id="108712_0" index="0" disallow="pedestrian tram rail_urban rail rail_electric rail_fast ship" speed="36.11" length="68.51" width="3.50" customShape="1" shape="-435.48,21.11 -437.96,21.02 -503.97,19.57"/>
    </edge>
    <edge id="108713" from="13" to="14" priority="3" type="highway.residential" spreadType="center" length="68.50">
        <lane id="108713_0" index="0" disallow="pedestrian tram rail_urban rail rail_electric rail_fast ship" speed="36.11" length="68.50" width="3.50" customShape="1" shape="-503.91,16.07 -437.99,17.52 -435.43,17.61"/>
    </edge>
    <edge id="109825" from="28" to="4" priority="3" type="highway.residential" spreadType="center" length="7.68" shape="-530.92,20.53 -525.55,37.09">
        <lane id="109825_0" index="0" disallow="pedestrian tram rail_urban rail rail_electric rail_fast ship" speed="36.11" length="7.68" width="3.50" customShape="1" shape="-527.96,28.24 -527.92,28.37 -527.89,28.49 -527.45,30.10 -527.01,31.70 -526.98,31.83 -526.94,31.95 -526.25,34.52 -525.94,35.65"/>
    </edge>
    <edge id="110110" from="28" to="13" priority="3" type="highway.residential" spreadType="center" length="17.23" shape="-532.85,19.52 -505.41,16.04">
        <lane id="110110_0" index="0" disallow="pedestrian tram rail_urban rail rail_electric rail_fast ship" speed="36.11" length="17.23" width="3.49" customShape="1" shape="-524.14,15.86 -522.74,15.87 -518.58,15.90 -518.46,15.90 -518.33,15.90 -511.87,15.97 -506.91,16.02"/>
    </edge>
    <edge id="110246" from="28" to="10" priority="3" type="highway.residential" spreadType="center" length="19.93" shape="-532.66,22.98 -562.29,18.78">
        <lane id="110246_0" index="0" disallow="pedestrian tram rail_urban rail rail_electric rail_fast ship" speed="36.11" length="19.93" width="3.50" customShape="1" shape="-540.86,19.16 -540.99,19.16 -541.12,19.15 -551.70,18.97 -560.79,18.81"/>
    </edge>

    <junction id="10" type="priority" x="-562.29" y="18.78" incLanes="110246_0" intLanes=":10_0_0" shape="-560.82,20.56 -560.76,17.06 -563.76,17.01 -563.82,20.51" rightOfWay="edgePriority">
        <request index="0" response="0" foes="0" cont="0"/>
    </junction>
    <junction id="11" type="dead_end" x="-618.14" y="17.83" incLanes="108700_0" intLanes="" shape="-618.17,19.58 -618.11,16.08" rightOfWay="edgePriority"/>
    <junction id="12" type="dead_end" x="-606.47" y="87.54" incLanes="" intLanes="" shape="-606.01,89.23 -606.93,85.85" rightOfWay="edgePriority"/>
    <junction id="13" type="priority" x="-505.41" y="16.04" incLanes="110110_0" intLanes=":13_0_0" shape="-503.95,17.82 -503.87,14.32 -506.89,14.28 -506.92,17.77" rightOfWay="edgePriority">
        <request index="0" response="0" foes="0" cont="0"/>
    </junction>
    <junction id="14" type="dead_end" x="-435.43" y="17.61" incLanes="108713_0" intLanes="" shape="-435.37,15.86 -435.49,19.36" rightOfWay="edgePriority"/>
    <junction id="15" type="dead_end" x="-497.54" y="152.46" incLanes="" intLanes="" shape="-495.85,152.00 -499.23,152.92" rightOfWay="edgePriority"/>
    <junction id="16" type="priority" x="-562.23" y="15.28" incLanes="108701_0" intLanes=":16_0_0" shape="-560.76,17.06 -560.70,13.56 -563.70,13.51 -563.76,17.01" rightOfWay="edgePriority">
        <request index="0" response="0" foes="0" cont="0"/>
    </junction>
    <junction id="18" type="dead_end" x="-618.07" y="14.33" incLanes="" intLanes="" shape="-618.10,16.08 -618.04,12.58" rightOfWay="edgePriority"/>
    <junction id="19" type="priority" x="-505.47" y="19.54" incLanes="108712_0" intLanes=":19_0_0" shape="-504.01,21.32 -503.93,17.82 -506.94,17.78 -506.98,21.26" rightOfWay="edgePriority">
        <request index="0" response="0" foes="0" cont="0"/>
    </junction>
    <junction id="21" type="dead_end" x="-435.48" y="21.11" incLanes="" intLanes="" shape="-435.42,19.36 -435.54,22.86" rightOfWay="edgePriority"/>
    <junction id="26" type="priority" x="-528.92" y="38.01" incLanes="108347_0" intLanes=":26_0_0" shape="-530.22,39.92 -526.84,39.00 -527.63,36.11 -531.00,37.03" rightOfWay="edgePriority">
        <request index="0" response="0" foes="0" cont="0"/>
    </junction>
    <junction id="27" type="priority" x="-525.82" y="67.51" incLanes="108344_0 108346_0 107071_0" intLanes=":27_0_0 :27_1_0 :27_2_0 :27_3_0 :27_4_0 :27_5_0" shape="-517.75,85.39 -511.00,83.54 -521.22,46.29 -527.97,48.13 -527.15,52.85 -527.42,56.97 -528.78,60.49 -531.23,63.41 -534.77,65.72 -539.41,67.44 -537.57,74.19 -532.69,73.32 -528.44,73.55 -524.83,74.87 -521.84,77.28 -519.48,80.79">
        <request index="0" response="000000" foes="001000" cont="0"/>
        <request index="1" response="000000" foes="111000" cont="0"/>
        <request index="2" response="000000" foes="100000" cont="0"/>
        <request index="3" response="000011" foes="100011" cont="0"/>
        <request index="4" response="000010" foes="000010" cont="0"/>
        <request index="5" response="001110" foes="001110" cont="0"/>
    </junction>
    <junction id="28" type="priority" x="-532.52" y="21.23" incLanes="108353_0 108706_0 108704_0" intLanes=":28_0_0 :28_1_0 :28_2_0 :28_3_0 :28_4_0 :28_5_0" shape="-533.01,29.65 -526.27,27.77 -526.73,25.73 -526.87,24.05 -526.68,22.75 -526.17,21.83 -525.34,21.28 -524.18,21.10 -524.12,14.11 -540.76,13.91 -540.89,20.91 -537.56,21.92 -536.16,23.14 -534.94,24.84 -533.89,27.01">
        <request index="0" response="001000" foes="001000" cont="0"/>
        <request index="1" response="111000" foes="111000" cont="0"/>
        <request index="2" response="000000" foes="100000" cont="0"/>
        <request index="3" response="000000" foes="100011" cont="0"/>
        <request index="4" response="000000" foes="000010" cont="0"/>
        <request index="5" response="001100" foes="001110" cont="0"/>
    </junction>
    <junction id="4" type="priority" x="-525.55" y="37.09" incLanes="109825_0" intLanes=":4_0_0" shape="-526.84,39.00 -523.46,38.08 -524.25,35.19 -527.63,36.11" rightOfWay="edgePriority">
        <request index="0" response="0" foes="0" cont="0"/>
    </junction>
    <junction id="8" type="dead_end" x="-605.56" y="90.92" incLanes="107070_0" intLanes="" shape="-605.10,92.61 -606.02,89.23" rightOfWay="edgePriority"/>
    <junction id="9" type="dead_end" x="-494.17" y="151.51" incLanes="108343_0" intLanes="" shape="-492.48,151.05 -495.86,151.97" rightOfWay="edgePriority"/>

    <connection from="107071" to="108347" fromLane="0" toLane="0" contPos="-4.00" shape="-538.94,69.12 -536.73,68.44 -534.61,67.62 -532.60,66.62 -530.75,65.44 -529.07,64.02 -528.36,63.26 -527.70,62.44 -527.12,61.56 -526.62,60.64 -526.20,59.67 -525.86,58.66 -525.61,57.66 -525.32,55.48 -525.32,53.27 -525.55,51.06 -526.29,47.67" via=":27_4_0" dir="r" state="m"/>
    <connection from="107071" to="108343" fromLane="0" toLane="0" contPos="-4.00" shape="-538.94,69.12 -535.02,68.27 -532.38,67.97 -529.72,67.94 -527.08,68.24 -525.78,68.54 -524.51,68.93 -523.28,69.43 -522.10,70.03 -520.97,70.74 -519.91,71.54 -518.92,72.43 -517.16,74.42 -515.69,76.63 -514.47,79.00 -513.49,81.47 -512.69,84.00" via=":27_5_0" dir="l" state="m"/>
    <connection from="108344" to="107070" fromLane="0" toLane="0" contPos="-4.00" shape="-516.06,84.96 -516.76,82.73 -517.61,80.60 -518.63,78.59 -519.86,76.73 -521.33,75.07 -522.12,74.38 -522.97,73.73 -523.87,73.16 -524.83,72.68 -525.82,72.28 -526.85,71.96 -527.88,71.73 -530.10,71.47 -532.35,71.50 -534.59,71.75 -538.03,72.50" via=":27_0_0" dir="r" state="M"/>
    <connection from="108344" to="108347" fromLane="0" toLane="0" contPos="-4.00" shape="-516.06,84.96 -521.17,66.32 -526.29,47.67" via=":27_1_0" dir="s" state="M"/>
    <connection from="108346" to="108343" fromLane="0" toLane="0" contPos="-4.00" shape="-522.90,46.78 -517.80,65.39 -512.69,84.00" via=":27_2_0" dir="s" state="M"/>
    <connection from="108346" to="107070" fromLane="0" toLane="0" contPos="-4.00" shape="-522.90,46.78 -522.07,50.64 -521.79,53.26 -521.79,55.89 -522.13,58.49 -522.44,59.77 -522.86,61.02 -523.38,62.23 -524.01,63.38 -524.74,64.48 -525.55,65.51 -526.45,66.47 -528.46,68.17 -530.67,69.59 -533.03,70.76 -535.48,71.72 -538.03,72.50" via=":27_3_0" dir="l" state="m"/>
    <connection from="108347" to="108353" fromLane="0" toLane="0" contPos="-4.00" via=":26_0_0" dir="s" state="M"/>
    <connection from="108353" to="110246" fromLane="0" toLane="0" contPos="-4.00" shape="-531.33,29.17 -531.92,27.27 -532.66,25.42 -533.59,23.66 -534.14,22.83 -534.76,22.06 -535.45,21.34 -536.22,20.70 -537.05,20.16 -537.95,19.73 -538.89,19.42 -539.87,19.23 -540.86,19.16" via=":28_0_0" dir="r" state="m"/>
    <connection from="108353" to="110110" fromLane="0" toLane="0" contPos="-4.00" shape="-531.33,29.17 -532.08,25.93 -532.34,24.29 -532.47,22.63 -532.45,20.97 -532.16,19.33 -531.48,17.83 -530.32,16.66 -528.80,16.01 -527.14,15.84" via=":28_1_0" dir="l" state="m"/>
    <connection from="108701" to="108704" fromLane="0" toLane="0" contPos="-4.00" via=":16_0_0" dir="s" state="M"/>
    <connection from="108704" to="110110" fromLane="0" toLane="0" contPos="-4.00" shape="-540.77,15.66 -533.97,15.75 -527.14,15.84" via=":28_4_0" dir="s" state="M"/>
    <connection from="108704" to="109825" fromLane="0" toLane="0" contPos="-4.00" shape="-540.77,15.66 -539.48,15.75 -538.15,15.99 -536.85,16.38 -535.61,16.94 -534.44,17.64 -533.37,18.47 -532.42,19.39 -531.58,20.39 -530.82,21.47 -529.62,23.65 -528.68,25.93 -527.96,28.24" via=":28_5_0" dir="l" state="m"/>
    <connection from="108706" to="109825" fromLane="0" toLane="0" contPos="-4.00" shape="-527.05,19.32 -527.67,19.22 -528.32,19.55 -528.72,20.26 -528.91,21.16 -528.96,22.21 -528.91,23.35 -528.76,24.56 -528.55,25.77 -527.96,28.24" via=":28_2_0" dir="r" state="M"/>
    <connection from="108706" to="110246" fromLane="0" toLane="0" contPos="-4.00" shape="-527.05,19.32 -534.02,19.25 -540.86,19.16" via=":28_3_0" dir="s" state="M"/>
    <connection from="108712" to="108706" fromLane="0" toLane="0" contPos="-4.00" via=":19_0_0" dir="s" state="M"/>
    <connection from="109825" to="108346" fromLane="0" toLane="0" contPos="-4.00" via=":4_0_0" dir="s" state="M"/>
    <connection from="110110" to="108713" fromLane="0" toLane="0" contPos="-4.00" via=":13_0_0" dir="s" state="M"/>
    <connection from="110246" to="108700" fromLane="0" toLane="0" contPos="-4.00" via=":10_0_0" dir="s" state="M"/>

    <connection from=":10_0" to="108700" fromLane="0" toLane="0" dir="s" state="M"/>
    <connection from=":13_0" to="108713" fromLane="0" toLane="0" dir="s" state="M"/>
    <connection from=":16_0" to="108704" fromLane="0" toLane="0" dir="s" state="M"/>
    <connection from=":19_0" to="108706" fromLane="0" toLane="0" dir="s" state="M"/>
    <connection from=":26_0" to="108353" fromLane="0" toLane="0" dir="s" state="M"/>
    <connection from=":27_0" to="107070" fromLane="0" toLane="0" dir="r" state="M"/>
    <connection from=":27_1" to="108347" fromLane="0" toLane="0" dir="s" state="M"/>
    <connection from=":27_2" to="108343" fromLane="0" toLane="0" dir="s" state="M"/>
    <connection from=":27_3" to="107070" fromLane="0" toLane="0" dir="l" state="M"/>
    <connection from=":27_4" to="108347" fromLane="0" toLane="0" dir="r" state="M"/>
    <connection from=":27_5" to="108343" fromLane="0" toLane="0" dir="l" state="M"/>
    <connection from=":28_0" to="110246" fromLane="0" toLane="0" dir="r" state="M"/>
    <connection from=":28_1" to="110110" fromLane="0" toLane="0" dir="l" state="M"/>
    <connection from=":28_2" to="109825" fromLane="0" toLane="0" dir="r" state="M"/>
    <connection from=":28_3" to="110246" fromLane="0" toLane="0" dir="s" state="M"/>
    <connection from=":28_4" to="110110" fromLane="0" toLane="0" dir="s" state="M"/>
    <connection from=":28_5" to="109825" fromLane="0" toLane="0" dir="l" state="M"/>
    <connection from=":4_0" to="108346" fromLane="0" toLane="0" dir="s" state="M"/>

</net>