<routes>
	<vehicle depart="0.1" departLane="0" departPos="6.4203496248012595" departSpeed="0.48809485" id="37" type="passenger">
		<route edges=":27_4 108347"/>
	</vehicle>
	<vehicle depart="0.1" departLane="0" departPos="5.814447696861615" departSpeed="3.700169" id="311" type="passenger">
		<route edges="108347 108353 110246 108700"/>
	</vehicle>
	<vehicle depart="0.1" departLane="0" departPos="6.698074367165028" departSpeed="12.005486" id="313" type="passenger">
		<route edges="108346 108343"/>
	</vehicle>
	<vehicle depart="0.1" departLane="0" departPos="62.31448133070014" departSpeed="0.65145703" id="317" type="passenger">
		<route edges="107071 108343"/>
	</vehicle>
	<vehicle depart="0.1" departLane="0" departPos="29.097390696686933" departSpeed="2.0288759" id="320" type="passenger">
		<route edges=":27_1 108347 108353"/>
	</vehicle>
	<vehicle depart="0.1" departLane="0" departPos="69.15609474819975" departSpeed="0.0" id="30" type="truck">
		<route edges="108712 108706"/>
	</vehicle>
</routes>
