<routes>
	<vehicle depart="0.1" departLane="0" departPos="39.67053209422504" departSpeed="3.8677279e-05" id="321" type="bicycle">
		<route edges="778 147"/>
	</vehicle>
	<vehicle depart="0.1" departLane="0" departPos="97.25849700040447" departSpeed="5.8554093" id="324" type="bicycle">
		<route edges="40 25"/>
	</vehicle>
	<vehicle depart="0.1" departLane="0" departPos="3.3332139339205535" departSpeed="0.0" id="362" type="bicycle">
		<route edges="43 36"/>
	</vehicle>
	<vehicle depart="0.1" departLane="0" departPos="55.271692939042126" departSpeed="6.9328108" id="374" type="bicycle">
		<route edges="329 146 143"/>
	</vehicle>
	<vehicle depart="0.1" departLane="0" departPos="18.936962340352423" departSpeed="5.6721355" id="384" type="bicycle">
		<route edges="342 345 140"/>
	</vehicle>
	<vehicle depart="0.1" departLane="0" departPos="65.81894486310605" departSpeed="11.292828" id="339" type="bus">
		<route edges="41 36"/>
	</vehicle>
	<vehicle depart="0.1" departLane="0" departPos="35.48707425173769" departSpeed="0.00053848973" id="340" type="bus">
		<route edges="778 147"/>
	</vehicle>
	<vehicle depart="0.1" departLane="0" departPos="16.162326603416854" departSpeed="0.0" id="32" type="passenger">
		<route edges="140 41"/>
	</vehicle>
	<vehicle depart="0.1" departLane="0" departPos="45.30083856350529" departSpeed="0.0" id="34" type="passenger">
		<route edges="778 147"/>
	</vehicle>
	<vehicle depart="0.1" departLane="0" departPos="189.09273957449457" departSpeed="0.0" id="37" type="passenger">
		<route edges="146 143"/>
	</vehicle>
	<vehicle depart="0.1" departLane="0" departPos="32.69821930123163" departSpeed="0.0" id="38" type="passenger">
		<route edges="965 341"/>
	</vehicle>
	<vehicle depart="0.1" departLane="0" departPos="9.822145318582535" departSpeed="0.00022294133" id="39" type="passenger">
		<route edges="140 41"/>
	</vehicle>
	<vehicle depart="0.1" departLane="0" departPos="178.99887470125583" departSpeed="0.0" id="314" type="passenger">
		<route edges="345 140"/>
	</vehicle>
	<vehicle depart="0.1" departLane="0" departPos="2.5" departSpeed="0.0" id="315" type="passenger">
		<route edges=":50_2 140"/>
	</vehicle>
	<vehicle depart="0.1" departLane="0" departPos="171.46743686098904" departSpeed="0.032938425" id="322" type="passenger">
		<route edges="345 140"/>
	</vehicle>
	<vehicle depart="0.1" departLane="0" departPos="25.15695298072723" departSpeed="0.56520223" id="323" type="passenger">
		<route edges="965 341"/>
	</vehicle>
	<vehicle depart="0.1" departLane="0" departPos="163.6812383449906" departSpeed="0.31003177" id="325" type="passenger">
		<route edges="345 140"/>
	</vehicle>
	<vehicle depart="0.1" departLane="0" departPos="17.085595589571724" departSpeed="1.0709059" id="333" type="passenger">
		<route edges="965 341"/>
	</vehicle>
	<vehicle depart="0.1" departLane="0" departPos="182.23288485018347" departSpeed="0.0060033059" id="335" type="passenger">
		<route edges="146 143"/>
	</vehicle>
	<vehicle depart="0.1" departLane="0" departPos="153.44611228830595" departSpeed="2.5603176" id="336" type="passenger">
		<route edges="345 140"/>
	</vehicle>
	<vehicle depart="0.1" departLane="0" departPos="175.16797369160767" departSpeed="0.09376113" id="337" type="passenger">
		<route edges="146 143"/>
	</vehicle>
	<vehicle depart="0.1" departLane="0" departPos="113.36297346691829" departSpeed="0.12078344" id="338" type="passenger">
		<route edges="40 25"/>
	</vehicle>
	<vehicle depart="0.1" departLane="0" departPos="167.17137362492647" departSpeed="0.6464794" id="343" type="passenger">
		<route edges="146 143"/>
	</vehicle>
	<vehicle depart="0.1" departLane="0" departPos="138.99366602487632" departSpeed="5.7092281" id="346" type="passenger">
		<route edges="345 140"/>
	</vehicle>
	<vehicle depart="0.1" departLane="0" departPos="2.5" departSpeed="7.1281585" id="347" type="passenger">
		<route edges="344 966"/>
	</vehicle>
	<vehicle depart="0.1" departLane="0" departPos="157.50233450061032" departSpeed="2.2606364" id="350" type="passenger">
		<route edges="146 143"/>
	</vehicle>
	<vehicle depart="0.1" departLane="0" departPos="145.4263640336354" departSpeed="4.2460371" id="351" type="passenger">
		<route edges="146 143"/>
	</vehicle>
	<vehicle depart="0.1" departLane="0" departPos="9.442840627794181" departSpeed="1.1367114" id="352" type="passenger">
		<route edges="965 341"/>
	</vehicle>
	<vehicle depart="0.1" departLane="0" departPos="21.107425729745735" departSpeed="0.003488512" id="353" type="passenger">
		<route edges="778 147"/>
	</vehicle>
	<vehicle depart="0.1" departLane="0" departPos="119.81747901542073" departSpeed="8.9893407" id="354" type="passenger">
		<route edges="345 140"/>
	</vehicle>
	<vehicle depart="0.1" departLane="0" departPos="130.50879605358531" departSpeed="6.2193025" id="355" type="passenger">
		<route edges="146 143"/>
	</vehicle>
	<vehicle depart="0.1" departLane="0" departPos="113.48249986346295" departSpeed="7.9745821" id="357" type="passenger">
		<route edges="146 143"/>
	</vehicle>
	<vehicle depart="0.1" departLane="0" departPos="102.1951369254517" departSpeed="3.3582655" id="358" type="passenger">
		<route edges="40 25"/>
	</vehicle>
	<vehicle depart="0.1" departLane="0" departPos="95.14348771919703" departSpeed="12.537705" id="360" type="passenger">
		<route edges="345 140"/>
	</vehicle>
	<vehicle depart="0.1" departLane="0" departPos="95.26574621913626" departSpeed="9.3697841" id="361" type="passenger">
		<route edges="146 143"/>
	</vehicle>
	<vehicle depart="0.1" departLane="0" departPos="13.589633246684004" departSpeed="11.03967" id="363" type="passenger">
		<route edges="41 44"/>
	</vehicle>
	<vehicle depart="0.1" departLane="0" departPos="14.258482871028148" departSpeed="0.015167255" id="364" type="passenger">
		<route edges="778 147"/>
	</vehicle>
	<vehicle depart="0.1" departLane="0" departPos="76.5743197376197" departSpeed="10.326364" id="365" type="passenger">
		<route edges="146 143"/>
	</vehicle>
	<vehicle depart="0.1" departLane="0" departPos="66.7665797683221" departSpeed="15.526033" id="367" type="passenger">
		<route edges="345 140"/>
	</vehicle>
	<vehicle depart="0.1" departLane="0" departPos="11.31356625335754" departSpeed="11.498956" id="368" type="passenger">
		<route edges=":49_1 141 144 147 330"/>
	</vehicle>
	<vehicle depart="0.1" departLane="0" departPos="68.4942808615773" departSpeed="8.6873965" id="370" type="passenger">
		<route edges="40 25"/>
	</vehicle>
	<vehicle depart="0.1" departLane="0" departPos="56.15965288328707" departSpeed="11.505858" id="371" type="passenger">
		<route edges="146 143"/>
	</vehicle>
	<vehicle depart="0.1" departLane="0" departPos="36.1503069872625" departSpeed="12.033614" id="372" type="passenger">
		<route edges="146 143"/>
	</vehicle>
	<vehicle depart="0.1" departLane="0" departPos="56.822652551955585" departSpeed="8.8199912" id="375" type="passenger">
		<route edges="26 141 144 147 330"/>
	</vehicle>
	<vehicle depart="0.1" departLane="0" departPos="49.088002651713275" departSpeed="10.104483" id="376" type="passenger">
		<route edges="40 25"/>
	</vehicle>
	<vehicle depart="0.1" departLane="0" departPos="7.530587995284712" departSpeed="0.045186404" id="377" type="passenger">
		<route edges="778 147"/>
	</vehicle>
	<vehicle depart="0.1" departLane="0" departPos="2.5" departSpeed="15.670952" id="378" type="passenger">
		<route edges=":52_1 146 143"/>
	</vehicle>
	<vehicle depart="0.1" departLane="0" departPos="41.591370491674624" departSpeed="8.3714931" id="380" type="passenger">
		<route edges="26 141 144"/>
	</vehicle>
	<vehicle depart="0.1" departLane="0" departPos="27.265971612101715" departSpeed="11.903656" id="381" type="passenger">
		<route edges="40 25"/>
	</vehicle>
	<vehicle depart="0.1" departLane="0" departPos="41.04247770864632" departSpeed="12.057804" id="383" type="passenger">
		<route edges="329 146 143"/>
	</vehicle>
	<vehicle depart="0.1" departLane="0" departPos="27.02216063996749" departSpeed="8.1224177" id="385" type="passenger">
		<route edges="26 141 144"/>
	</vehicle>
	<vehicle depart="0.1" departLane="0" departPos="5.063866478251551" departSpeed="8.6724055" id="386" type="passenger">
		<route edges="40 25"/>
	</vehicle>
	<vehicle depart="0.1" departLane="0" departPos="23.37479384769854" departSpeed="8.9403831" id="387" type="passenger">
		<route edges="329 146 143"/>
	</vehicle>
	<vehicle depart="0.1" departLane="0" departPos="13.735867651200657" departSpeed="6.0130538" id="388" type="passenger">
		<route edges="26 141 144"/>
	</vehicle>
	<vehicle depart="0.1" departLane="0" departPos="10.393158370775275" departSpeed="4.8486188" id="390" type="passenger">
		<route edges="329 146 143"/>
	</vehicle>
	<vehicle depart="0.1" departLane="0" departPos="121.95804681066703" departSpeed="2.9526671" id="349" type="motorcycle">
		<route edges="40 25"/>
	</vehicle>
	<vehicle depart="0.1" departLane="0" departPos="83.47985145683971" departSpeed="7.0403779" id="366" type="motorcycle">
		<route edges="40 25"/>
	</vehicle>
	<vehicle depart="0.1" departLane="0" departPos="123.03474998843153" departSpeed="0.0" id="30" type="truck">
		<route edges="40 25"/>
	</vehicle>
	<vehicle depart="0.1" departLane="0" departPos="37.48361148277479" departSpeed="7.48929" id="379" type="truck">
		<route edges="342 345 140"/>
	</vehicle>
	<vehicle depart="0.1" departLane="0" departPos="11.548818270847837" departSpeed="3.116275" id="389" type="truck">
		<route edges="342 345 140"/>
	</vehicle>
</routes>
