<!-- generated on Wed Feb 10 12:34:15 2021 by Eclipse SUMO netconvert Version 1.8.0
<configuration xmlns:xsi="http://www.w3.org/2001/XMLSchema-instance" xsi:noNamespaceSchemaLocation="http://sumo.dlr.de/xsd/netconvertConfiguration.xsd">

    <input>
        <node-files value="./converted_scenarios/SUMO/DEU_Flensburg-23_1_I-1-1/DEU_Flensburg-23_1_I-1-1.nod.xml"/>
        <edge-files value="./converted_scenarios/SUMO/DEU_Flensburg-23_1_I-1-1/DEU_Flensburg-23_1_I-1-1.edg.xml"/>
        <connection-files value="./converted_scenarios/SUMO/DEU_Flensburg-23_1_I-1-1/DEU_Flensburg-23_1_I-1-1.con.xml"/>
        <tllogic-files value="./converted_scenarios/SUMO/DEU_Flensburg-23_1_I-1-1/DEU_Flensburg-23_1_I-1-1.tll.xml"/>
        <type-files value="/home/zen/commonroad-interactive-benchmarks/install/commonroad-map-tool/crmapconverter/sumo_map/templates/DEU.typ.xml"/>
    </input>

    <output>
        <output-file value="./converted_scenarios/SUMO/DEU_Flensburg-23_1_I-1-1/DEU_Flensburg-23_1_I-1-1.net.xml"/>
    </output>

    <processing>
        <geometry.remove.keep-edges.explicit value="true"/>
        <geometry.avoid-overlap value="true"/>
        <offset.disable-normalization value="true"/>
    </processing>

    <junctions>
        <no-turnarounds value="true"/>
        <junctions.internal-link-detail value="20"/>
    </junctions>

    <report>
        <aggregate-warnings value="5"/>
    </report>

    <random_number>
        <seed value="1234"/>
    </random_number>

</configuration>
--><net xmlns:xsi="http://www.w3.org/2001/XMLSchema-instance" version="1.6" junctionCornerDetail="5" junctionLinkDetail="20" limitTurnSpeed="5.50" xsi:noNamespaceSchemaLocation="http://sumo.dlr.de/xsd/net_file.xsd">

    <location netOffset="0.00,0.00" convBoundary="276.25,-236.18,594.98,58.26" origBoundary="276.25,-236.18,594.98,58.26" projParameter="!"/>

    <type id="highway.bridleway" priority="1" speed="2.78" allow="pedestrian" oneway="1" width="2.00"/>
    <type id="highway.bus_guideway" priority="1" speed="27.78" allow="bus" oneway="1"/>
    <type id="highway.cycleway" priority="1" speed="8.33" allow="bicycle" oneway="0" width="1.00"/>
    <type id="highway.footway" priority="1" speed="2.78" allow="pedestrian" oneway="1" width="2.00"/>
    <type id="highway.ford" priority="1" speed="2.78" allow="army" oneway="0"/>
    <type id="highway.living_street" priority="2" speed="2.78" disallow="tram rail_urban rail rail_electric rail_fast ship" oneway="0"/>
    <type id="highway.motorway" priority="14" speed="39.44" allow="private emergency authority army vip passenger hov taxi bus coach delivery truck trailer motorcycle evehicle custom1 custom2" oneway="1"/>
    <type id="highway.motorway_link" priority="9" speed="22.22" allow="private emergency authority army vip passenger hov taxi bus coach delivery truck trailer motorcycle evehicle custom1 custom2" oneway="1"/>
    <type id="highway.path" priority="1" speed="2.78" allow="pedestrian bicycle" oneway="0" width="2.00"/>
    <type id="highway.pedestrian" priority="1" speed="2.78" allow="pedestrian" oneway="1" width="2.00"/>
    <type id="highway.primary" priority="12" speed="27.78" disallow="pedestrian tram rail_urban rail rail_electric rail_fast ship" oneway="0"/>
    <type id="highway.primary_link" priority="7" speed="22.22" disallow="pedestrian tram rail_urban rail rail_electric rail_fast ship" oneway="0"/>
    <type id="highway.raceway" priority="15" speed="83.33" allow="vip" oneway="0"/>
    <type id="highway.residential" priority="3" speed="13.89" disallow="pedestrian tram rail_urban rail rail_electric rail_fast ship" oneway="0"/>
    <type id="highway.secondary" priority="11" speed="27.78" disallow="pedestrian tram rail_urban rail rail_electric rail_fast ship" oneway="0"/>
    <type id="highway.secondary_link" priority="6" speed="22.22" disallow="pedestrian tram rail_urban rail rail_electric rail_fast ship" oneway="0"/>
    <type id="highway.service" priority="1" speed="5.56" allow="pedestrian delivery bicycle" oneway="0"/>
    <type id="highway.stairs" priority="1" speed="1.39" allow="pedestrian" oneway="1" width="2.00"/>
    <type id="highway.step" priority="1" speed="1.39" allow="pedestrian" oneway="1" width="2.00"/>
    <type id="highway.steps" priority="1" speed="1.39" allow="pedestrian" oneway="1" width="2.00"/>
    <type id="highway.tertiary" priority="10" speed="22.22" disallow="pedestrian tram rail_urban rail rail_electric rail_fast ship" oneway="0"/>
    <type id="highway.tertiary_link" priority="5" speed="22.22" disallow="pedestrian tram rail_urban rail rail_electric rail_fast ship" oneway="0"/>
    <type id="highway.track" priority="1" speed="5.56" allow="pedestrian motorcycle moped bicycle" oneway="0"/>
    <type id="highway.trunk" priority="13" speed="27.78" disallow="pedestrian bicycle tram rail_urban rail rail_electric rail_fast ship" oneway="0"/>
    <type id="highway.trunk_link" priority="8" speed="22.22" disallow="pedestrian bicycle tram rail_urban rail rail_electric rail_fast ship" oneway="0"/>
    <type id="highway.unclassified" priority="4" speed="13.89" disallow="pedestrian tram rail_urban rail rail_electric rail_fast ship" oneway="0"/>
    <type id="highway.unsurfaced" priority="1" speed="8.33" disallow="tram rail_urban rail rail_electric rail_fast ship" oneway="0"/>
    <type id="railway.highspeed" priority="21" speed="69.44" allow="rail_fast" oneway="1"/>
    <type id="railway.light_rail" priority="19" speed="27.78" allow="rail_urban" oneway="1"/>
    <type id="railway.preserved" priority="16" speed="27.78" allow="rail" oneway="1"/>
    <type id="railway.rail" priority="20" speed="44.44" allow="rail" oneway="1"/>
    <type id="railway.subway" priority="18" speed="27.78" allow="rail_urban" oneway="1"/>
    <type id="railway.tram" priority="17" speed="13.89" allow="tram" oneway="1"/>

    <edge id=":49_0" function="internal">
        <lane id=":49_0_0" index="0" disallow="pedestrian tram rail_urban rail rail_electric rail_fast ship" speed="8.04" length="11.85" width="3.50" shape="549.07,-65.50 547.81,-66.16 546.45,-66.58 545.03,-66.70 543.61,-66.51 542.26,-66.05 540.99,-65.38 539.82,-64.56 538.42,-63.34"/>
    </edge>
    <edge id=":49_1" function="internal">
        <lane id=":49_1_0" index="0" disallow="pedestrian tram rail_urban rail rail_electric rail_fast ship" speed="36.11" length="18.48" width="3.50" shape="549.07,-65.50 540.14,-71.31 536.69,-73.81 534.06,-76.22"/>
    </edge>
    <edge id=":49_2" function="internal">
        <lane id=":49_2_0" index="0" disallow="pedestrian tram rail_urban rail rail_electric rail_fast ship" speed="36.11" length="17.78" width="3.50" shape="536.46,-78.77 538.97,-76.46 542.22,-74.12 550.91,-68.48"/>
    </edge>
    <edge id=":49_3" function="internal">
        <lane id=":49_3_0" index="0" disallow="pedestrian tram rail_urban rail rail_electric rail_fast ship" speed="8.88" length="18.19" width="3.50" shape="536.46,-78.77 539.67,-75.51 540.79,-73.80 541.36,-72.43 541.69,-70.95 541.70,-69.42 541.40,-67.93 540.84,-66.55 539.72,-64.81 538.42,-63.34"/>
    </edge>
    <edge id=":49_4" function="internal">
        <lane id=":49_4_0" index="0" disallow="pedestrian tram rail_urban rail rail_electric rail_fast ship" speed="7.45" length="12.47" width="3.50" shape="535.97,-65.84 536.85,-66.83 537.59,-67.98 537.93,-68.82 538.11,-69.71 538.10,-70.62 537.90,-71.51 537.54,-72.35 536.80,-73.49 534.06,-76.22"/>
    </edge>
    <edge id=":49_5" function="internal">
        <lane id=":49_5_0" index="0" disallow="pedestrian tram rail_urban rail rail_electric rail_fast ship" speed="9.39" length="16.52" width="3.50" shape="535.97,-65.84 537.82,-67.44 539.41,-68.53 541.17,-69.42 543.11,-70.02 545.16,-70.23 547.22,-70.01 549.17,-69.39 550.91,-68.48"/>
    </edge>
    <edge id=":50_0" function="internal">
        <lane id=":50_0_0" index="0" disallow="pedestrian tram rail_urban rail rail_electric rail_fast ship" speed="7.73" length="11.07" width="3.50" shape="522.06,-85.91 520.85,-86.58 519.54,-87.03 518.17,-87.17 517.25,-87.08 515.92,-86.70 514.70,-86.05 513.58,-85.23 512.24,-83.96"/>
    </edge>
    <edge id=":50_1" function="internal">
        <lane id=":50_1_0" index="0" disallow="pedestrian tram rail_urban rail rail_electric rail_fast ship" speed="36.11" length="12.78" width="3.49" shape="522.06,-85.91 521.64,-86.18 521.23,-86.45 520.81,-86.72 520.40,-86.99 519.98,-87.26 519.57,-87.53 519.15,-87.80 518.74,-88.07 518.32,-88.34 517.91,-88.61 517.49,-88.88 517.08,-89.15 516.66,-89.42 516.24,-89.70 515.83,-89.97 515.41,-90.24 515.00,-90.51 514.58,-90.78 511.22,-92.66"/>
    </edge>
    <edge id=":50_2" function="internal">
        <lane id=":50_2_0" index="0" disallow="pedestrian tram rail_urban rail rail_electric rail_fast ship" speed="36.11" length="13.03" width="3.50" shape="519.44,-92.16 516.15,-93.91 516.58,-93.63 517.02,-93.35 517.45,-93.07 517.88,-92.79 518.32,-92.50 518.75,-92.22 519.19,-91.94 519.62,-91.66 520.05,-91.38 520.49,-91.10 520.92,-90.82 521.36,-90.53 521.79,-90.25 522.22,-89.97 522.66,-89.69 523.09,-89.41 523.53,-89.13 523.96,-88.85"/>
    </edge>
    <edge id=":50_3" function="internal">
        <lane id=":50_3_0" index="0" disallow="pedestrian tram rail_urban rail rail_electric rail_fast ship" speed="7.53" length="15.09" width="3.50" shape="519.44,-92.16 516.25,-93.84 516.60,-93.32 516.81,-92.74 516.91,-92.14 516.90,-91.52 516.79,-90.89 516.62,-90.28 516.39,-89.68 516.12,-89.10 515.81,-88.54 515.47,-87.99 515.11,-87.45 514.73,-86.93 514.34,-86.41 513.94,-85.91 513.52,-85.41 513.10,-84.92 512.67,-84.44 512.24,-83.96"/>
    </edge>
    <edge id=":50_4" function="internal">
        <lane id=":50_4_0" index="0" disallow="pedestrian tram rail_urban rail rail_electric rail_fast ship" speed="6.21" length="9.79" width="3.49" shape="509.73,-86.40 510.01,-86.68 510.29,-86.97 510.58,-87.26 510.87,-87.55 511.16,-87.84 511.45,-88.13 511.73,-88.42 512.01,-88.70 512.29,-88.97 512.56,-89.24 512.83,-89.53 513.09,-89.83 513.35,-90.18 513.60,-90.53 513.82,-90.78 513.97,-90.85 514.08,-90.86 514.16,-90.92 511.22,-92.66"/>
    </edge>
    <edge id=":50_5" function="internal">
        <lane id=":50_5_0" index="0" disallow="pedestrian tram rail_urban rail rail_electric rail_fast ship" speed="9.16" length="15.91" width="3.50" shape="509.73,-86.40 511.49,-88.06 513.08,-89.19 514.88,-90.09 516.85,-90.62 518.31,-90.72 520.34,-90.46 522.27,-89.78 523.96,-88.85"/>
    </edge>
    <edge id=":51_0" function="internal">
        <lane id=":51_0_0" index="0" disallow="pedestrian tram rail_urban rail rail_electric rail_fast ship" speed="7.02" length="10.73" width="3.50" shape="450.62,22.44 449.07,24.16 448.14,25.62 447.69,26.68 447.48,27.81 447.57,28.96 447.98,30.03 448.63,30.98 449.28,31.65"/>
    </edge>
    <edge id=":51_1" function="internal">
        <lane id=":51_1_0" index="0" disallow="pedestrian tram rail_urban rail rail_electric rail_fast ship" speed="36.11" length="13.10" width="3.40" shape="450.62,22.44 446.66,26.31 441.26,31.60"/>
    </edge>
    <edge id=":51_2" function="internal">
        <lane id=":51_2_0" index="0" disallow="pedestrian tram rail_urban rail rail_electric rail_fast ship" speed="36.11" length="13.09" width="3.50" shape="438.82,29.12 444.21,23.81 448.16,19.95"/>
    </edge>
    <edge id=":51_3" function="internal">
        <lane id=":51_3_0" index="0" disallow="pedestrian tram rail_urban rail rail_electric rail_fast ship" speed="7.64" length="12.69" width="3.50" shape="438.82,29.12 440.71,27.33 441.21,27.16 441.73,27.11 442.26,27.12 442.79,27.19 443.31,27.32 443.81,27.51 444.31,27.73 444.79,27.98 445.25,28.27 445.71,28.57 446.15,28.89 446.59,29.23 447.01,29.57 447.43,29.93 447.83,30.29 448.23,30.66 448.63,31.03 449.28,31.65"/>
    </edge>
    <edge id=":52_0" function="internal">
        <lane id=":52_0_0" index="0" disallow="pedestrian tram rail_urban rail rail_electric rail_fast ship" speed="36.11" length="13.76" width="3.50" shape="334.09,-167.10 329.95,-172.61 325.83,-178.10"/>
    </edge>
    <edge id=":52_1" function="internal">
        <lane id=":52_1_0" index="0" disallow="pedestrian tram rail_urban rail rail_electric rail_fast ship" speed="36.11" length="13.63" width="3.50" shape="328.66,-180.16 332.75,-174.71 336.84,-169.26"/>
    </edge>
    <edge id=":52_2" function="internal">
        <lane id=":52_2_0" index="0" disallow="pedestrian tram rail_urban rail rail_electric rail_fast ship" speed="6.51" length="9.13" width="3.50" shape="325.55,-170.01 326.21,-170.57 326.91,-171.49 327.38,-172.54 327.54,-173.68 327.42,-174.83 326.83,-176.46 325.83,-178.10"/>
    </edge>
    <edge id=":52_3" function="internal">
        <lane id=":52_3_0" index="0" disallow="pedestrian tram rail_urban rail rail_electric rail_fast ship" speed="7.80" length="12.60" width="3.50" shape="325.62,-169.90 326.88,-170.67 329.03,-171.60 330.74,-171.99 331.91,-172.05 333.07,-171.89 334.17,-171.50 335.18,-170.91 336.47,-169.72 336.84,-169.26"/>
    </edge>
    <edge id=":53_0" function="internal">
        <lane id=":53_0_0" index="0" disallow="pedestrian tram rail_urban rail rail_electric rail_fast ship" speed="36.11" length="6.81" width="3.50" shape="511.05,-92.75 509.34,-93.75 505.13,-96.11"/>
    </edge>
    <edge id=":53_1" function="internal">
        <lane id=":53_1_0" index="0" disallow="pedestrian tram rail_urban rail rail_electric rail_fast ship" speed="7.52" length="12.55" width="3.50" shape="511.05,-92.75 513.11,-91.70 512.80,-92.15 512.58,-92.66 512.45,-93.19 512.39,-93.75 512.40,-94.31 512.46,-94.87 512.57,-95.43 512.72,-95.98 512.89,-96.52 513.09,-97.06 513.31,-97.58 513.55,-98.10 513.80,-98.62 514.07,-99.12 514.34,-99.63 514.63,-100.12 514.92,-100.61 515.24,-101.14"/>
    </edge>
    <edge id=":53_2" function="internal">
        <lane id=":53_2_0" index="0" disallow="pedestrian tram rail_urban rail rail_electric rail_fast ship" speed="5.51" length="6.20" width="3.49" shape="518.26,-99.40 517.97,-98.93 517.78,-98.63 517.58,-98.34 517.38,-98.04 517.18,-97.75 516.98,-97.46 516.78,-97.17 516.59,-96.87 516.40,-96.58 516.21,-96.29 516.03,-95.99 515.86,-95.69 515.69,-95.38 515.53,-95.07 515.39,-94.76 515.26,-94.50 515.18,-94.32 515.15,-94.28 515.25,-94.45"/>
    </edge>
    <edge id=":53_3" function="internal">
        <lane id=":53_3_0" index="0" disallow="pedestrian tram rail_urban rail rail_electric rail_fast ship" speed="8.40" length="15.30" width="3.50" shape="518.26,-99.40 517.40,-98.13 516.00,-96.60 514.80,-95.68 513.44,-95.00 511.94,-94.59 510.41,-94.49 508.93,-94.66 506.93,-95.26 505.13,-96.11"/>
    </edge>
    <edge id=":53_4" function="internal">
        <lane id=":53_4_0" index="0" disallow="pedestrian tram rail_urban rail rail_electric rail_fast ship" speed="6.87" length="9.85" width="3.50" shape="506.78,-99.19 508.07,-98.58 509.40,-98.17 510.33,-98.06 511.26,-98.11 512.16,-98.34 513.00,-98.76 513.75,-99.32 514.69,-100.35 515.24,-101.14"/>
    </edge>
    <edge id=":53_5" function="internal">
        <lane id=":53_5_0" index="0" disallow="pedestrian tram rail_urban rail rail_electric rail_fast ship" speed="36.11" length="14.29" width="3.49" shape="506.78,-99.19 511.04,-96.81 519.27,-92.25"/>
    </edge>
    <edge id=":54_0" function="internal">
        <lane id=":54_0_0" index="0" disallow="pedestrian tram rail_urban rail rail_electric rail_fast ship" speed="36.11" length="16.50" width="3.50" shape="347.38,-25.55 347.09,-25.16 342.37,-18.53 339.70,-14.30 338.38,-11.75"/>
    </edge>
    <edge id=":54_1" function="internal">
        <lane id=":54_1_0" index="0" disallow="pedestrian tram rail_urban rail rail_electric rail_fast ship" speed="8.12" length="17.39" width="3.50" shape="347.38,-25.55 345.82,-23.67 344.00,-22.03 342.61,-21.17 341.86,-20.85 341.07,-20.63 340.26,-20.53 339.45,-20.54 338.64,-20.67 337.86,-20.92 336.42,-21.68 335.14,-22.69 333.31,-24.68"/>
    </edge>
    <edge id=":54_2" function="internal">
        <lane id=":54_2_0" index="0" disallow="pedestrian tram rail_urban rail rail_electric rail_fast ship" speed="6.51" length="10.72" width="3.50" shape="336.11,-26.76 336.54,-26.28 336.92,-25.86 337.32,-25.47 337.74,-25.10 338.20,-24.79 338.70,-24.52 339.22,-24.31 339.77,-24.24 340.33,-24.27 340.87,-24.40 341.38,-24.62 341.86,-24.91 342.32,-25.23 342.75,-25.59 343.16,-25.97 343.54,-26.38 343.91,-26.80 344.26,-27.24 344.60,-27.68"/>
    </edge>
    <edge id=":54_3" function="internal">
        <lane id=":54_3_0" index="0" disallow="pedestrian tram rail_urban rail rail_electric rail_fast ship" speed="11.05" length="16.05" width="3.50" shape="336.11,-26.77 337.25,-25.22 338.42,-23.13 339.09,-21.39 339.51,-19.57 339.66,-17.70 339.55,-15.84 339.17,-14.01 338.38,-11.75"/>
    </edge>
    <edge id=":54_4" function="internal">
        <lane id=":54_4_0" index="0" disallow="pedestrian tram rail_urban rail rail_electric rail_fast ship" speed="9.78" length="12.49" width="3.50" shape="335.13,-13.03 335.78,-14.90 336.06,-16.27 336.15,-17.66 336.03,-19.06 335.71,-20.42 335.21,-21.72 334.29,-23.35 333.31,-24.68"/>
    </edge>
    <edge id=":54_5" function="internal">
        <lane id=":54_5_0" index="0" disallow="pedestrian tram rail_urban rail rail_electric rail_fast ship" speed="36.11" length="17.47" width="3.50" shape="335.12,-13.04 336.61,-15.93 339.40,-20.37 344.26,-27.22 344.60,-27.68"/>
    </edge>

    <edge id="140" from="50" to="49" priority="3" type="highway.residential" spreadType="center" length="16.08" shape="517.30,-89.84 542.50,-70.50">
        <lane id="140_0" index="0" disallow="pedestrian tram rail_urban rail rail_electric rail_fast ship" speed="36.11" length="16.08" width="3.50" customShape="1" shape="523.96,-88.85 524.43,-88.53 529.11,-85.21 533.12,-81.90 536.46,-78.77"/>
    </edge>
    <edge id="141" from="49" to="50" priority="3" type="highway.residential" spreadType="center" length="15.49" shape="540.37,-67.72 515.17,-87.07">
        <lane id="141_0" index="0" disallow="pedestrian tram rail_urban rail rail_electric rail_fast ship" speed="36.11" length="15.49" width="3.50" customShape="1" shape="534.06,-76.22 530.81,-79.27 526.98,-82.43 522.47,-85.64 522.03,-85.93"/>
    </edge>
    <edge id="143" from="53" to="50" priority="3" type="highway.residential" spreadType="center" length="0.19" shape="513.80,-97.91 517.90,-89.12">
        <lane id="143_0" index="0" disallow="pedestrian tram rail_urban rail rail_electric rail_fast ship" speed="36.11" length="0.19" width="3.49" customShape="1" shape="519.27,-92.25 519.44,-92.16"/>
    </edge>
    <edge id="144" from="50" to="53" priority="3" type="highway.residential" spreadType="center" length="0.19" shape="514.73,-87.66 510.69,-96.46">
        <lane id="144_0" index="0" disallow="pedestrian tram rail_urban rail rail_electric rail_fast ship" speed="36.11" length="0.19" width="3.49" customShape="1" shape="511.22,-92.66 511.05,-92.75"/>
    </edge>
    <edge id="146" from="52" to="53" priority="3" type="highway.residential" spreadType="center" length="188.95" shape="330.73,-174.43 513.06,-98.50">
        <lane id="146_0" index="0" disallow="pedestrian tram rail_urban rail rail_electric rail_fast ship" speed="36.11" length="188.95" width="3.50" customShape="1" shape="336.84,-169.26 342.44,-162.16 346.72,-157.24 350.83,-152.89 353.72,-150.26 356.84,-147.89 360.58,-145.53 369.86,-140.50 382.74,-133.86 393.55,-128.69 403.60,-124.30 411.98,-120.98 416.85,-119.49 422.46,-117.73 425.38,-116.97 432.30,-115.56 440.81,-114.28 447.28,-113.58 457.79,-113.01 465.92,-112.48 471.53,-111.79 477.08,-110.75 483.02,-109.24 489.38,-107.22 494.70,-105.16 501.29,-102.13 506.80,-99.18"/>
    </edge>
    <edge id="147" from="53" to="52" priority="3" type="highway.residential" spreadType="center" length="190.40" shape="511.72,-95.27 329.39,-171.20">
        <lane id="147_0" index="0" disallow="pedestrian tram rail_urban rail rail_electric rail_fast ship" speed="36.11" length="190.40" width="3.50" customShape="1" shape="505.13,-96.11 499.74,-99.00 493.34,-101.94 488.23,-103.92 482.07,-105.87 476.33,-107.33 470.99,-108.33 465.59,-108.99 457.60,-109.51 447.00,-110.09 440.35,-110.81 431.68,-112.12 424.58,-113.56 421.44,-114.38 415.85,-116.13 410.81,-117.68 402.26,-121.07 392.09,-125.51 381.19,-130.72 368.22,-137.40 358.81,-142.51 354.84,-145.02 351.48,-147.58 348.37,-150.40 344.13,-154.89 339.74,-159.93 334.07,-167.12"/>
    </edge>
    <edge id="25" from="49" to="15" priority="3" type="highway.residential" spreadType="center" length="62.71" shape="542.56,-70.45 594.98,-24.09">
        <lane id="25_0" index="0" disallow="pedestrian tram rail_urban rail rail_electric rail_fast ship" speed="36.11" length="62.71" width="3.50" customShape="1" shape="550.91,-68.48 551.87,-67.86 556.40,-64.46 561.46,-60.18 566.63,-55.29 572.57,-49.06 588.84,-30.62 594.98,-24.09"/>
    </edge>
    <edge id="26" from="44" to="49" priority="3" type="highway.residential" spreadType="center" length="61.92" shape="592.46,-21.67 540.24,-67.83">
        <lane id="26_0" index="0" disallow="pedestrian tram rail_urban rail rail_electric rail_fast ship" speed="36.11" length="61.92" width="3.50" customShape="1" shape="592.46,-21.67 586.25,-28.26 569.99,-46.69 564.16,-52.81 559.13,-57.57 554.22,-61.72 549.88,-64.98 549.00,-65.55"/>
    </edge>
    <edge id="280" from="20" to="52" priority="3" type="highway.residential" spreadType="center" length="70.86">
        <lane id="280_0" index="0" disallow="pedestrian tram rail_urban rail rail_electric rail_fast ship" speed="36.11" length="70.86" width="3.49" customShape="1" shape="276.25,-120.66 276.32,-120.82 279.73,-127.14 283.44,-133.28 286.64,-137.89 290.43,-142.65 293.48,-145.99 296.80,-149.08 302.22,-153.57 308.68,-158.39 319.89,-166.06 325.60,-169.93"/>
    </edge>
    <edge id="329" from="47" to="52" priority="3" type="highway.residential" spreadType="center" length="66.17" shape="293.95,-236.18 331.58,-173.68">
        <lane id="329_0" index="0" disallow="pedestrian tram rail_urban rail rail_electric rail_fast ship" speed="36.11" length="66.17" width="3.50" customShape="1" shape="293.95,-236.18 294.97,-233.45 297.55,-227.42 300.49,-221.48 303.98,-215.26 308.35,-208.38 312.39,-202.63 328.67,-180.14"/>
    </edge>
    <edge id="330" from="52" to="11" priority="3" type="highway.residential" spreadType="center" length="67.17" shape="328.58,-171.88 290.65,-235.02">
        <lane id="330_0" index="0" disallow="pedestrian tram rail_urban rail rail_electric rail_fast ship" speed="36.11" length="67.17" width="3.50" customShape="1" shape="325.83,-178.10 309.55,-200.58 305.43,-206.44 300.98,-213.47 297.39,-219.85 294.37,-225.96 291.72,-232.16 290.65,-235.02"/>
    </edge>
    <edge id="341" from="54" to="6" priority="3" type="highway.residential" spreadType="center" length="37.87" shape="340.80,-20.86 320.68,21.59">
        <lane id="341_0" index="0" disallow="pedestrian tram rail_urban rail rail_electric rail_fast ship" speed="36.11" length="37.87" width="3.50" customShape="1" shape="338.38,-11.75 336.19,-6.20 333.92,-0.49 332.03,3.33 329.75,7.01 320.68,21.59"/>
    </edge>
    <edge id="342" from="35" to="54" priority="3" type="highway.residential" spreadType="center" length="37.33" shape="317.71,19.74 337.64,-22.36">
        <lane id="342_0" index="0" disallow="pedestrian tram rail_urban rail rail_electric rail_fast ship" speed="36.11" length="37.33" width="3.49" customShape="1" shape="317.71,19.74 326.80,5.13 328.97,1.63 330.72,-1.90 332.92,-7.46 335.16,-13.12"/>
    </edge>
    <edge id="344" from="50" to="54" priority="3" type="highway.residential" spreadType="center" length="178.73" shape="516.93,-86.75 339.79,-19.91">
        <lane id="344_0" index="0" disallow="pedestrian tram rail_urban rail rail_electric rail_fast ship" speed="36.11" length="178.73" width="3.50" customShape="1" shape="512.24,-83.96 509.96,-81.69 508.19,-80.33 506.20,-79.18 504.03,-78.35 497.88,-76.89 485.94,-74.53 480.15,-73.04 470.56,-70.14 449.68,-63.78 439.36,-60.56 435.70,-59.64 431.46,-58.98 425.16,-58.51 417.51,-58.59 414.11,-58.43 409.26,-57.79 401.92,-56.32 397.14,-55.09 392.94,-53.65 385.07,-50.56 377.35,-47.11 369.34,-43.10 362.81,-39.51 359.15,-37.13 356.01,-34.70 353.00,-31.99 349.86,-28.66 347.33,-25.49"/>
    </edge>
    <edge id="345" from="54" to="50" priority="3" type="highway.residential" spreadType="center" length="179.12" shape="338.56,-23.18 515.69,-90.03">
        <lane id="345_0" index="0" disallow="pedestrian tram rail_urban rail rail_electric rail_fast ship" speed="36.11" length="179.12" width="3.50" customShape="1" shape="344.60,-27.68 347.23,-30.96 350.56,-34.50 353.78,-37.39 357.13,-39.98 361.02,-42.52 367.71,-46.20 375.86,-50.28 383.72,-53.79 391.73,-56.93 396.15,-58.44 401.15,-59.73 408.69,-61.24 413.81,-61.91 417.48,-62.09 425.04,-62.01 431.06,-62.45 434.99,-63.06 438.38,-63.92 448.66,-67.12 469.52,-73.48 479.21,-76.42 485.18,-77.94 497.10,-80.30 502.98,-81.68 504.67,-82.33 506.22,-83.22 507.64,-84.31 509.77,-86.44"/>
    </edge>
    <edge id="36" from="51" to="38" priority="3" type="highway.residential" spreadType="center" length="37.85">
        <lane id="36_0" index="0" disallow="pedestrian tram rail_urban rail rail_electric rail_fast ship" speed="36.11" length="37.85" width="3.50" customShape="1" shape="449.28,31.65 462.61,44.83 476.20,58.26"/>
    </edge>
    <edge id="40" from="51" to="49" priority="3" type="highway.residential" spreadType="center" length="122.76" shape="444.90,25.11 540.19,-70.35">
        <lane id="40_0" index="0" disallow="pedestrian tram rail_urban rail rail_electric rail_fast ship" speed="36.11" length="122.76" width="3.50" customShape="1" shape="448.16,19.95 492.05,-22.93 535.97,-65.84"/>
    </edge>
    <edge id="41" from="49" to="51" priority="3" type="highway.residential" spreadType="center" length="122.78" shape="542.67,-67.88 447.38,27.58">
        <lane id="41_0" index="0" disallow="pedestrian tram rail_urban rail rail_electric rail_fast ship" speed="36.11" length="122.78" width="3.50" customShape="1" shape="538.42,-63.34 494.50,-20.43 450.60,22.46"/>
    </edge>
    <edge id="43" from="42" to="51" priority="3" type="highway.residential" spreadType="center" length="3.39" shape="436.42,31.51 445.33,24.78">
        <lane id="43_0" index="0" disallow="pedestrian tram rail_urban rail rail_electric rail_fast ship" speed="36.11" length="3.39" width="3.50" customShape="1" shape="436.42,31.51 438.82,29.12"/>
    </edge>
    <edge id="44" from="51" to="46" priority="3" type="highway.residential" spreadType="center" length="3.46" shape="447.39,27.50 438.80,34.04">
        <lane id="44_0" index="0" disallow="pedestrian tram rail_urban rail rail_electric rail_fast ship" speed="36.11" length="3.46" width="3.40" customShape="1" shape="441.26,31.60 438.80,34.04"/>
    </edge>
    <edge id="778" from="48" to="53" priority="3" type="highway.residential" spreadType="center" length="46.10" shape="526.91,-144.07 514.05,-96.38">
        <lane id="778_0" index="0" disallow="pedestrian tram rail_urban rail rail_electric rail_fast ship" speed="36.11" length="46.10" width="3.50" customShape="1" shape="526.91,-144.07 526.87,-143.56 525.90,-125.82 525.27,-119.66 524.42,-114.53 523.54,-110.87 522.28,-107.26 520.27,-102.88 518.26,-99.40"/>
    </edge>
    <edge id="779" from="53" to="34" priority="3" type="highway.residential" spreadType="center" length="44.60" shape="510.67,-97.29 523.42,-144.35">
        <lane id="779_0" index="0" disallow="pedestrian tram rail_urban rail rail_electric rail_fast ship" speed="36.11" length="44.60" width="3.50" customShape="1" shape="515.21,-101.10 517.15,-104.47 519.03,-108.56 520.18,-111.84 520.98,-115.22 521.80,-120.11 522.41,-126.08 523.38,-143.82 523.42,-144.35"/>
    </edge>
    <edge id="965" from="40" to="54" priority="3" type="highway.residential" spreadType="center" length="33.29" shape="328.71,-54.82 340.85,-22.07">
        <lane id="965_0" index="0" disallow="pedestrian tram rail_urban rail rail_electric rail_fast ship" speed="36.11" length="33.29" width="3.49" customShape="1" shape="328.71,-54.82 327.80,-53.31 326.82,-51.85 325.85,-50.39 324.97,-48.87 324.32,-47.24 324.17,-45.50 324.82,-43.92 325.87,-42.52 327.11,-41.29 328.44,-40.15 329.78,-39.02 330.98,-37.75 331.90,-36.25 332.66,-34.67 333.32,-33.04 333.88,-31.37 334.38,-29.68 335.12,-28.10 336.17,-26.69"/>
    </edge>
    <edge id="966" from="54" to="29" priority="3" type="highway.residential" spreadType="center" length="37.32" shape="337.56,-20.92 325.69,-56.60">
        <lane id="966_0" index="0" disallow="pedestrian tram rail_urban rail rail_electric rail_fast ship" speed="36.11" length="37.32" width="3.50" customShape="1" shape="333.31,-24.68 332.27,-26.08 331.33,-27.82 330.72,-29.71 330.13,-31.59 329.38,-33.43 328.48,-35.19 327.18,-36.67 325.65,-37.92 324.16,-39.21 322.83,-40.67 321.68,-42.28 320.86,-44.07 320.63,-46.02 320.91,-47.98 321.57,-49.85 322.49,-51.60 323.56,-53.27 324.67,-54.91 325.69,-56.60"/>
    </edge>

    <junction id="11" type="dead_end" x="290.65" y="-235.02" incLanes="330_0" intLanes="" shape="289.01,-234.40 292.28,-235.63" rightOfWay="edgePriority"/>
    <junction id="15" type="dead_end" x="594.98" y="-24.09" incLanes="25_0" intLanes="" shape="596.25,-25.29 593.71,-22.89" rightOfWay="edgePriority"/>
    <junction id="20" type="dead_end" x="276.25" y="-120.66" incLanes="" intLanes="" shape="277.83,-119.92 274.67,-121.41" rightOfWay="edgePriority"/>
    <junction id="29" type="dead_end" x="325.69" y="-56.60" incLanes="966_0" intLanes="" shape="324.20,-57.51 327.19,-55.70" rightOfWay="edgePriority"/>
    <junction id="34" type="dead_end" x="523.42" y="-144.35" incLanes="779_0" intLanes="" shape="521.68,-144.49 525.17,-144.21" rightOfWay="edgePriority"/>
    <junction id="35" type="dead_end" x="317.71" y="19.74" incLanes="" intLanes="" shape="319.19,20.67 316.23,18.82" rightOfWay="edgePriority"/>
    <junction id="38" type="dead_end" x="476.20" y="58.26" incLanes="36_0" intLanes="" shape="477.43,57.02 474.97,59.51" rightOfWay="edgePriority"/>