<!-- generated on 2020-12-18 15:41:05.648171 by ipykernel_launcher.py v1_2_0+5214-53edc58fcd
-->
<nodes>
	<node id="1" type="from" x="-44.3473" y="40.56596666666667"/>
	<node id="2" type="to" x="71.221625" y="-60.57460833333334"/>
	<node id="3" type="to" x="89.60121999999998" y="-74.33617"/>
	<node id="4" type="to" x="82.47425000000001" y="-82.70179999999999"/>
</nodes>
