<?xml version="1.0" encoding="UTF-8"?>

<!-- generated on Fri Dec 18 15:41:05 2020 by Eclipse SUMO netconvert Version 1.8.0
<configuration xmlns:xsi="http://www.w3.org/2001/XMLSchema-instance" xsi:noNamespaceSchemaLocation="http://sumo.dlr.de/xsd/netconvertConfiguration.xsd">

    <input>
        <node-files value="./converted_scenarios/hand-crafted/USA_US101-14_4_I-1-1/nodes.net.xml"/>
        <edge-files value="./converted_scenarios/hand-crafted/USA_US101-14_4_I-1-1/edges.net.xml"/>
        <connection-files value="./converted_scenarios/hand-crafted/USA_US101-14_4_I-1-1/_connections.net.xml"/>
        <tllogic-files value="./converted_scenarios/hand-crafted/USA_US101-14_4_I-1-1/_tll.net.xml"/>
    </input>

    <output>
        <output-file value="./converted_scenarios/hand-crafted/USA_US101-14_4_I-1-1/USA_US101-14_4_I-1-1.net.xml"/>
    </output>

    <processing>
        <plain.extend-edge-shape value="true"/>
        <geometry.remove.keep-edges.explicit value="true"/>
        <geometry.avoid-overlap value="true"/>
        <offset.disable-normalization value="true"/>
    </processing>

    <junctions>
        <no-turnarounds value="true"/>
        <junctions.internal-link-detail value="20"/>
    </junctions>

    <report>
        <aggregate-warnings value="5"/>
    </report>

    <random_number>
        <seed value="1234"/>
    </random_number>

</configuration>
-->

<net version="1.6" junctionCornerDetail="5" junctionLinkDetail="20" limitTurnSpeed="5.50" xmlns:xsi="http://www.w3.org/2001/XMLSchema-instance" xsi:noNamespaceSchemaLocation="http://sumo.dlr.de/xsd/net_file.xsd">

    <location netOffset="0.00,0.00" convBoundary="-44.35,-82.70,89.60,40.57" origBoundary="-50.03,-82.70,93.97,47.06" projParameter="!"/>

    <edge id=":2_0" function="internal">
        <lane id=":2_0_0" index="0" disallow="bus truck rail_fast" speed="36.11" length="3.07" width="3.96" shape="64.18,-66.06 66.47,-68.11"/>
    </edge>
    <edge id=":2_1" function="internal">
        <lane id=":2_1_0" index="0" disallow="bus truck rail_fast" speed="36.11" length="3.14" width="3.51" shape="66.69,-63.25 69.01,-65.29"/>
        <lane id=":2_1_1" index="1" disallow="bus truck rail_fast" speed="36.11" length="3.14" width="3.29" shape="68.94,-60.73 71.30,-62.76"/>
        <lane id=":2_1_2" index="2" disallow="bus rail_fast" speed="36.11" length="3.14" width="3.09" shape="71.16,-58.23 73.54,-60.28"/>
        <lane id=":2_1_3" index="3" disallow="bus truck rail_fast" speed="36.11" length="3.14" width="3.36" shape="73.41,-55.70 75.79,-57.78"/>
        <lane id=":2_1_4" index="4" disallow="bus truck rail_fast" speed="36.11" length="3.14" width="3.48" shape="75.69,-53.14 78.09,-55.23"/>
    </edge>

    <edge id="24" from="2" to="3" priority="1" spreadType="center" length="22.72">
        <lane id="24_0" index="0" disallow="rail_fast" speed="36.11" length="22.72" width="3.51" customShape="1" shape="69.01,-65.29 72.60,-68.42 75.59,-71.03 83.72,-78.16 85.22,-79.47"/>
        <lane id="24_1" index="1" disallow="bus truck rail_fast" speed="36.11" length="22.72" width="3.29" customShape="1" shape="71.30,-62.76 74.83,-65.80 74.95,-65.89 77.87,-68.43 77.95,-68.50 85.95,-75.51 87.47,-76.83"/>
        <lane id="24_2" index="2" disallow="bus rail_fast" speed="36.11" length="22.72" width="3.09" customShape="1" shape="73.54,-60.28 75.69,-62.12 77.18,-63.44 80.14,-66.07 83.77,-69.31 86.76,-71.90 88.03,-73.00 89.60,-74.34"/>
        <lane id="24_3" index="3" disallow="bus truck rail_fast" speed="36.11" length="22.72" width="3.36" customShape="1" shape="75.79,-57.78 77.87,-59.58 85.70,-66.65 85.87,-66.80 88.73,-69.29 88.87,-69.41 91.77,-71.86"/>
        <lane id="24_4" index="4" disallow="bus truck rail_fast" speed="36.11" length="22.72" width="3.48" customShape="1" shape="78.09,-55.23 80.22,-57.08 80.55,-57.37 88.04,-64.09 88.41,-64.42 91.01,-66.68 91.41,-67.02 94.04,-69.26"/>
    </edge>
    <edge id="73" from="1" to="2" priority="1" spreadType="center" length="153.36">
        <lane id="73_0" index="0" disallow="bus truck rail_fast" speed="36.11" length="153.36" width="3.68" customShape="1" shape="-50.03,33.86 -47.68,31.80 -46.95,31.15 -44.25,28.78 -43.60,28.21 -43.52,28.13 -40.70,25.75 -39.97,25.11 -37.35,22.75 -36.63,22.10 -33.96,19.79 -33.23,19.15 -30.44,16.70 -29.72,16.05 -27.21,13.89 -26.48,13.24 -23.71,10.82 -22.98,10.17 -20.29,7.91 -19.56,7.27 -16.82,4.81 -16.10,4.17 -15.44,3.59 -13.36,1.79 -12.64,1.15 -9.99,-1.14 -9.27,-1.78 -6.57,-4.11 -5.85,-4.75 -1.34,-8.66 -0.62,-9.30 2.25,-11.76 2.98,-12.41 5.86,-14.88 6.58,-15.53 9.40,-18.01 10.13,-18.65 12.80,-20.97 13.52,-21.61 16.10,-23.83 16.33,-24.03 17.03,-24.69 17.53,-25.15 19.84,-27.20 20.56,-27.85 23.42,-30.40 24.14,-31.05 26.99,-33.58 27.71,-34.23 30.46,-36.65 31.18,-37.30 33.07,-38.93 33.91,-39.66 35.62,-41.20 41.86,-46.49 44.44,-48.70 45.17,-49.34 47.99,-51.78 48.72,-52.42 49.37,-52.98 51.41,-54.77 52.13,-55.42 54.80,-57.77 55.52,-58.42 58.30,-60.87 59.02,-61.52 61.83,-63.96 62.55,-64.61 64.18,-66.06"/>
        <lane id="73_1" index="1" disallow="bus truck rail_fast" speed="36.11" length="153.36" width="3.45" customShape="1" shape="-47.64,36.68 -45.27,34.62 -44.60,34.03 -42.21,31.96 -41.80,31.60 -41.07,30.95 -39.13,29.32 -38.24,28.57 -37.57,27.97 -34.97,25.63 -34.23,24.97 -31.50,22.60 -31.36,22.47 -30.85,22.02 -28.30,19.78 -27.97,19.49 -27.25,18.84 -24.76,16.67 -24.06,16.04 -21.27,13.57 -20.56,12.92 -19.61,12.12 -17.88,10.68 -17.22,10.09 -16.76,9.68 -14.52,7.69 -13.78,7.04 -13.70,6.97 -10.96,4.61 -10.31,4.04 -10.21,3.96 -8.79,2.74 -7.54,1.67 -6.89,1.08 -6.81,1.01 -5.79,0.14 -4.11,-1.32 -3.39,-1.97 1.09,-5.90 1.81,-6.55 1.89,-6.61 4.67,-8.99 4.78,-9.09 5.23,-9.48 5.34,-9.57 8.23,-11.99 8.56,-12.28 8.65,-12.36 8.97,-12.63 11.70,-15.03 11.89,-15.19 12.61,-15.84 15.27,-18.17 15.99,-18.82 17.12,-19.81 18.84,-21.29 19.50,-21.88 20.08,-22.38 22.35,-24.39 23.04,-25.01 25.93,-27.59 26.62,-28.21 29.14,-30.44 29.47,-30.73 30.15,-31.33 32.13,-33.06 32.98,-33.79 33.63,-34.37 33.73,-34.45 36.52,-36.82 37.17,-37.40 39.80,-39.71 39.93,-39.83 40.63,-40.46 40.73,-40.54 42.90,-42.39 43.61,-42.99 44.28,-43.60 46.90,-45.87 47.57,-46.47 50.42,-48.98 50.57,-49.12 51.07,-49.56 53.64,-51.79 53.89,-52.00 54.57,-52.62 57.27,-55.00 57.99,-55.65 60.78,-58.10 61.50,-58.75 61.78,-58.99 64.30,-61.15 64.67,-61.48 64.96,-61.74 66.69,-63.25"/>
        <lane id="73_2" index="2" disallow="bus truck rail_fast" speed="36.11" length="153.36" width="3.22" customShape="1" shape="-45.36,39.37 -43.85,38.02 -39.88,34.55 -36.91,31.94 -35.78,30.94 -32.81,28.35 -28.99,25.02 -26.00,22.41 -24.89,21.43 -21.92,18.82 -17.39,14.81 -14.38,12.18 -13.79,11.67 -10.79,9.09 -6.50,5.40 -3.51,2.81 4.13,-3.91 7.16,-6.54 8.70,-7.84 11.01,-9.80 11.68,-10.38 14.01,-12.43 19.36,-17.22 22.33,-19.81 30.20,-26.82 31.36,-27.84 33.20,-29.44 34.31,-30.39 41.87,-36.80 42.20,-37.08 44.90,-39.43 45.23,-39.73 52.53,-46.31 52.87,-46.60 55.53,-48.92 55.89,-49.23 63.69,-56.19 63.94,-56.41 66.70,-58.80 66.92,-59.00 68.94,-60.73"/>
        <lane id="73_3" index="3" disallow="bus rail_fast" speed="36.11" length="153.36" width="3.05" customShape="1" shape="-43.17,41.95 -41.73,40.65 -38.48,37.79 -35.55,35.12 -33.67,33.46 -30.64,30.84 -27.42,28.05 -24.42,25.44 -22.65,23.88 -19.67,21.26 -16.48,18.43 -13.49,15.83 -11.61,14.16 -8.64,11.54 -5.24,8.55 -2.25,5.96 5.82,-1.00 8.82,-3.61 10.80,-5.31 13.79,-7.89 17.09,-10.78 20.08,-13.42 21.60,-14.76 24.57,-17.38 28.09,-20.50 31.04,-23.10 32.42,-24.34 35.39,-26.96 38.88,-29.98 41.90,-32.55 44.05,-34.37 47.04,-36.96 50.58,-40.13 53.54,-42.77 54.63,-43.75 57.70,-46.41 61.43,-49.69 64.41,-52.31 65.93,-53.67 68.91,-56.28 71.16,-58.23"/>
        <lane id="73_4" index="4" disallow="bus truck rail_fast" speed="36.11" length="153.36" width="3.28" customShape="1" shape="-41.04,44.47 -36.30,40.41 -36.19,40.30 -33.45,37.74 -25.48,30.83 -25.20,30.58 -22.49,28.23 -22.20,27.98 -14.42,21.11 -14.30,21.00 -11.39,18.47 -11.26,18.36 -3.15,11.12 -3.07,11.05 -0.14,8.50 7.99,1.47 8.13,1.35 10.98,-1.13 11.13,-1.26 19.25,-8.25 19.35,-8.34 22.23,-10.84 22.35,-10.95 30.32,-18.02 33.30,-20.61 41.00,-27.44 41.24,-27.65 44.02,-30.06 44.24,-30.26 52.62,-37.45 52.89,-37.69 55.63,-40.07 55.91,-40.31 63.55,-47.07 63.69,-47.20 66.53,-49.67 66.68,-49.80 73.41,-55.70"/>
        <lane id="73_5" index="5" disallow="bus truck rail_fast" speed="36.11" length="153.36" width="3.48" customShape="1" shape="-38.84,47.06 -34.06,43.02 -33.83,42.81 -33.71,42.70 -31.10,40.27 -30.76,39.96 -23.24,33.41 -22.85,33.07 -20.25,30.81 -19.87,30.48 -12.10,23.69 -11.71,23.35 -9.11,21.09 -8.77,20.79 -0.83,13.71 -0.46,13.39 2.14,11.13 2.53,10.79 10.39,3.95 10.78,3.61 13.38,1.35 13.77,1.01 21.47,-5.67 21.86,-6.01 24.46,-8.27 24.81,-8.58 32.58,-15.48 32.95,-15.81 35.55,-18.07 35.93,-18.40 43.52,-25.05 43.90,-25.39 46.50,-27.65 46.91,-28.00 54.92,-34.82 55.30,-35.14 57.93,-37.42 58.24,-37.70 65.79,-44.54 66.15,-44.86 68.75,-47.12 69.14,-47.46 75.69,-53.14"/>
    </edge>
    <edge id="74" from="2" to="4" priority="1" spreadType="center" length="23.13">
        <lane id="74_0" index="0" disallow="rail_fast" speed="36.11" length="23.13" width="3.96" customShape="1" shape="66.47,-68.11 70.78,-72.00 82.47,-82.70"/>
    </edge>

    <junction id="1" type="dead_end" x="-44.35" y="40.57" incLanes="" intLanes="" shape="-37.71,48.39 -51.22,32.46"/>
    <junction id="2" type="priority" x="71.22" y="-60.57" incLanes="73_0 73_1 73_2 73_3 73_4 73_5" intLanes=":2_0_0 :2_1_0 :2_1_1 :2_1_2 :2_1_3 :2_1_4" shape="79.26,-53.94 65.14,-69.58 62.96,-67.44 76.85,-51.85">
        <request index="0" response="000000" foes="000000" cont="0"/>
        <request index="1" response="000000" foes="000000" cont="0"/>
        <request index="2" response="000000" foes="000000" cont="0"/>
        <request index="3" response="000000" foes="000000" cont="0"/>
        <request index="4" response="000000" foes="000000" cont="0"/>
        <request index="5" response="000000" foes="000000" cont="0"/>
    </junction>
    <junction id="3" type="dead_end" x="89.60" y="-74.34" incLanes="24_0 24_1 24_2 24_3 24_4" intLanes="" shape="84.01,-80.74 95.18,-67.95"/>
    <junction id="4" type="dead_end" x="82.47" y="-82.70" incLanes="74_0" intLanes="" shape="81.14,-84.16 83.81,-81.24"/>

    <connection from="73" to="74" fromLane="0" toLane="0" contPos="-4.00" via=":2_0_0" dir="R" state="M"/>
    <connection from="73" to="24" fromLane="1" toLane="0" contPos="-4.00" via=":2_1_0" dir="s" state="M"/>
    <connection from="73" to="24" fromLane="2" toLane="1" contPos="-4.00" via=":2_1_1" dir="s" state="M"/>
    <connection from="73" to="24" fromLane="3" toLane="2" contPos="-4.00" via=":2_1_2" dir="s" state="M"/>
    <connection from="73" to="24" fromLane="4" toLane="3" contPos="-4.00" via=":2_1_3" dir="s" state="M"/>
    <connection from="73" to="24" fromLane="5" toLane="4" contPos="-4.00" via=":2_1_4" dir="s" state="M"/>

    <connection from=":2_0" to="74" fromLane="0" toLane="0" dir="R" state="M"/>
    <connection from=":2_1" to="24" fromLane="0" toLane="0" dir="s" state="M"/>
    <connection from=":2_1" to="24" fromLane="1" toLane="1" dir="s" state="M"/>
    <connection from=":2_1" to="24" fromLane="2" toLane="2" dir="s" state="M"/>
    <connection from=":2_1" to="24" fromLane="3" toLane="3" dir="s" state="M"/>
    <connection from=":2_1" to="24" fromLane="4" toLane="4" dir="s" state="M"/>

</net>
