<routes>
	<vehicle depart="0.1" departLane="0" departPos="1.0" departSpeed="0.0" id="38" type="bicycle">
		<route edges=":50_3 344"/>
	</vehicle>
	<vehicle depart="0.1" departLane="0" departPos="101.33827451552379" departSpeed="3.8006811" id="324" type="bicycle">
		<route edges="40 25"/>
	</vehicle>
	<vehicle depart="0.1" departLane="0" departPos="63.61506423937586" departSpeed="6.9015996" id="375" type="bicycle">
		<route edges="329 146 143"/>
	</vehicle>
	<vehicle depart="0.1" departLane="0" departPos="30.876190989024728" departSpeed="6.9205624" id="379" type="bicycle">
		<route edges="342 345 140"/>
	</vehicle>
	<vehicle depart="0.1" departLane="0" departPos="100.6262028416665" departSpeed="12.584941" id="338" type="bus">
		<route edges="41 36"/>
	</vehicle>
	<vehicle depart="0.1" departLane="0" departPos="38.58045313823168" departSpeed="3.2765303e-05" id="340" type="bus">
		<route edges="778 147"/>
	</vehicle>
	<vehicle depart="0.1" departLane="0" departPos="13.988696082831613" departSpeed="3.6437621" id="391" type="bus">
		<route edges="26 141 144"/>
	</vehicle>
	<vehicle depart="0.1" departLane="0" departPos="10.613547800215493" departSpeed="0.0012618622" id="32" type="passenger">
		<route edges="140 41"/>
	</vehicle>
	<vehicle depart="0.1" departLane="0" departPos="45.46792240062194" departSpeed="0.0" id="34" type="passenger">
		<route edges="778 147"/>
	</vehicle>
	<vehicle depart="0.1" departLane="0" departPos="189.24601917904744" departSpeed="0.0" id="37" type="passenger">
		<route edges="146 143"/>
	</vehicle>
	<vehicle depart="0.1" departLane="0" departPos="32.45909553500773" departSpeed="0.0" id="39" type="passenger">
		<route edges="965 341"/>
	</vehicle>
	<vehicle depart="0.1" departLane="0" departPos="16.39291223128585" departSpeed="0.0" id="310" type="passenger">
		<route edges="140 41"/>
	</vehicle>
	<vehicle depart="0.1" departLane="0" departPos="57.58816633076169" departSpeed="0.0" id="311" type="passenger">
		<route edges="280 146"/>
	</vehicle>
	<vehicle depart="0.1" departLane="0" departPos="50.507458582318755" departSpeed="2.0655257e-05" id="314" type="passenger">
		<route edges="280 146"/>
	</vehicle>
	<vehicle depart="0.1" departLane="0" departPos="178.99887538709456" departSpeed="0.0" id="315" type="passenger">
		<route edges="345 140"/>
	</vehicle>
	<vehicle depart="0.1" departLane="0" departPos="4.818020237460712" departSpeed="0.021972596" id="316" type="passenger">
		<route edges="140 41"/>
	</vehicle>
	<vehicle depart="0.1" departLane="0" departPos="71.15553905310504" departSpeed="0.0" id="317" type="passenger">
		<route edges="280 146"/>
	</vehicle>
	<vehicle depart="0.1" departLane="0" departPos="64.37183997298867" departSpeed="0.0" id="320" type="passenger">
		<route edges="280 146"/>
	</vehicle>
	<vehicle depart="0.1" departLane="0" departPos="171.64674433100694" departSpeed="0.0068842854" id="322" type="passenger">
		<route edges="345 140"/>
	</vehicle>
	<vehicle depart="0.1" departLane="0" departPos="25.175597753787464" departSpeed="0.13001223" id="323" type="passenger">
		<route edges="965 341"/>
	</vehicle>
	<vehicle depart="0.1" departLane="0" departPos="164.63378614273665" departSpeed="0.075645859" id="325" type="passenger">
		<route edges="345 140"/>
	</vehicle>
	<vehicle depart="0.1" departLane="0" departPos="43.01858910066039" departSpeed="0.00017073573" id="326" type="passenger">
		<route edges="280 146"/>
	</vehicle>
	<vehicle depart="0.1" departLane="0" departPos="17.85303879230308" departSpeed="0.47407474" id="333" type="passenger">
		<route edges="965 341"/>
	</vehicle>
	<vehicle depart="0.1" departLane="0" departPos="182.5434973019523" departSpeed="0.0015936884" id="334" type="passenger">
		<route edges="146 143"/>
	</vehicle>
	<vehicle depart="0.1" departLane="0" departPos="35.50914547500392" departSpeed="0.00088589769" id="335" type="passenger">
		<route edges="280 146"/>
	</vehicle>
	<vehicle depart="0.1" departLane="0" departPos="157.28206633329944" departSpeed="0.67013284" id="336" type="passenger">
		<route edges="345 140"/>
	</vehicle>
	<vehicle depart="0.1" departLane="0" departPos="175.61246256258116" departSpeed="0.024184999" id="337" type="passenger">
		<route edges="146 143"/>
	</vehicle>
	<vehicle depart="0.1" departLane="0" departPos="112.70803348837867" departSpeed="0.063631752" id="339" type="passenger">
		<route edges="40 25"/>
	</vehicle>
	<vehicle depart="0.1" departLane="0" departPos="147.0915793246494" departSpeed="2.6642455" id="343" type="passenger">
		<route edges="345 140"/>
	</vehicle>
	<vehicle depart="0.1" departLane="0" departPos="168.5316794972207" departSpeed="0.17973015" id="346" type="passenger">
		<route edges="146 143"/>
	</vehicle>
	<vehicle depart="0.1" departLane="0" departPos="31.462301926608035" departSpeed="13.201125" id="347" type="passenger">
		<route edges="344 341"/>
	</vehicle>
	<vehicle depart="0.1" departLane="0" departPos="160.6730951061599" departSpeed="0.89631204" id="349" type="passenger">
		<route edges="146 143"/>
	</vehicle>
	<vehicle depart="0.1" departLane="0" departPos="132.55741171958422" departSpeed="5.7982682" id="350" type="passenger">
		<route edges="345 140"/>
	</vehicle>
	<vehicle depart="0.1" departLane="0" departPos="150.72490249164858" departSpeed="2.2458306" id="352" type="passenger">
		<route edges="146 143"/>
	</vehicle>
	<vehicle depart="0.1" departLane="0" departPos="24.177723390564093" departSpeed="0.00043515891" id="353" type="passenger">
		<route edges="778 147"/>
	</vehicle>
	<vehicle depart="0.1" departLane="0" departPos="10.28387781284064" departSpeed="0.80060028" id="354" type="passenger">
		<route edges="965 341"/>
	</vehicle>
	<vehicle depart="0.1" departLane="0" departPos="9.454863996001126" departSpeed="9.821715" id="355" type="passenger">
		<route edges="344 966"/>
	</vehicle>
	<vehicle depart="0.1" departLane="0" departPos="138.6781914664745" departSpeed="4.0674624" id="356" type="passenger">
		<route edges="146 143"/>
	</vehicle>
	<vehicle depart="0.1" departLane="0" departPos="124.43195367837448" departSpeed="5.9001325" id="357" type="passenger">
		<route edges="146 143"/>
	</vehicle>
	<vehicle depart="0.1" departLane="0" departPos="113.34122223402545" departSpeed="8.9776844" id="358" type="passenger">
		<route edges="345 140"/>
	</vehicle>
	<vehicle depart="0.1" departLane="0" departPos="97.03494069666758" departSpeed="2.7287582" id="359" type="passenger">
		<route edges="40 25"/>
	</vehicle>
	<vehicle depart="0.1" departLane="0" departPos="16.863327561697886" departSpeed="0.0027846586" id="361" type="passenger">
		<route edges="778 147"/>
	</vehicle>
	<vehicle depart="0.1" departLane="0" departPos="108.24111977691248" departSpeed="7.5168076" id="362" type="passenger">
		<route edges="146 143"/>
	</vehicle>
	<vehicle depart="0.1" departLane="0" departPos="48.212619126107064" departSpeed="16.512047" id="363" type="passenger">
		<route edges="41 44"/>
	</vehicle>
	<vehicle depart="0.1" departLane="0" departPos="90.7835906737042" departSpeed="8.8793249" id="365" type="passenger">
		<route edges="146 143"/>
	</vehicle>
	<vehicle depart="0.1" departLane="0" departPos="88.80692851459439" departSpeed="12.346358" id="366" type="passenger">
		<route edges="345 140"/>
	</vehicle>
	<vehicle depart="0.1" departLane="0" departPos="2.5" departSpeed="13.059393" id="368" type="passenger">
		<route edges=":50_1 144 147 330"/>
	</vehicle>
	<vehicle depart="0.1" departLane="0" departPos="71.66597694344419" departSpeed="10.055103" id="370" type="passenger">
		<route edges="146 143"/>
	</vehicle>
	<vehicle depart="0.1" departLane="0" departPos="9.659433192833133" departSpeed="0.011958227" id="372" type="passenger">
		<route edges="778 147"/>
	</vehicle>
	<vehicle depart="0.1" departLane="0" departPos="52.4522565061269" departSpeed="10.791236" id="373" type="passenger">
		<route edges="146 143"/>
	</vehicle>
	<vehicle depart="0.1" departLane="0" departPos="6.097736076097513" departSpeed="17.836205" id="376" type="passenger">
		<route edges="146 143"/>
	</vehicle>
	<vehicle depart="0.1" departLane="0" departPos="61.815956545305" departSpeed="7.2155746" id="378" type="passenger">
		<route edges="26 141 144"/>
	</vehicle>
	<vehicle depart="0.1" departLane="0" departPos="56.8383896851152" departSpeed="14.409299" id="381" type="passenger">
		<route edges="329 146 143"/>
	</vehicle>
	<vehicle depart="0.1" departLane="0" departPos="41.97150175750006" departSpeed="9.9097176" id="382" type="passenger">
		<route edges="26 41 44"/>
	</vehicle>
	<vehicle depart="0.1" departLane="0" departPos="32.446708689270885" departSpeed="10.179195" id="383" type="passenger">
		<route edges="329 146 143"/>
	</vehicle>
	<vehicle depart="0.1" departLane="0" departPos="20.284053190019367" departSpeed="11.425563" id="384" type="passenger">
		<route edges="40 25"/>
	</vehicle>
	<vehicle depart="0.1" departLane="0" departPos="22.730376218335053" departSpeed="8.4067675" id="385" type="passenger">
		<route edges="26 141 144"/>
	</vehicle>
	<vehicle depart="0.1" departLane="0" departPos="15.989722359011711" departSpeed="6.283651" id="388" type="passenger">
		<route edges="329 146 143"/>
	</vehicle>
	<vehicle depart="0.1" departLane="0" departPos="6.59341779778539" departSpeed="2.4140641" id="389" type="passenger">
		<route edges="342 345 140"/>
	</vehicle>
	<vehicle depart="0.1" departLane="0" departPos="6.763225495250241" departSpeed="2.7890442" id="390" type="passenger">
		<route edges="329 146 143"/>
	</vehicle>
	<vehicle depart="0.1" departLane="0" departPos="104.72685918863286" departSpeed="0.86944644" id="351" type="motorcycle">
		<route edges="40 25"/>
	</vehicle>
	<vehicle depart="0.1" departLane="0" departPos="82.71536398680205" departSpeed="5.1344118" id="367" type="motorcycle">
		<route edges="40 25"/>
	</vehicle>
	<vehicle depart="0.1" departLane="0" departPos="122.66427921819248" departSpeed="0.0" id="30" type="truck">
		<route edges="40 25"/>
	</vehicle>
	<vehicle depart="0.1" departLane="0" departPos="28.263814453085697" departSpeed="0.0038298181" id="348" type="truck">
		<route edges="280 146"/>
	</vehicle>
	<vehicle depart="0.1" departLane="0" departPos="12.832615954203574" departSpeed="8.5974431" id="377" type="truck">
		<route edges=":54_5 345 140"/>
	</vehicle>
	<vehicle depart="0.1" departLane="0" departPos="18.17235210592283" departSpeed="4.4668308" id="386" type="truck">
		<route edges="342 345 140"/>
	</vehicle>
</routes>
