<!-- generated on Tue Feb  9 22:20:03 2021 by Eclipse SUMO netconvert Version 1.8.0
<configuration xmlns:xsi="http://www.w3.org/2001/XMLSchema-instance" xsi:noNamespaceSchemaLocation="http://sumo.dlr.de/xsd/netconvertConfiguration.xsd">

    <input>
        <node-files value="./converted_scenarios/scenario-factory/BEL_Putte-1_1_I-1-1/BEL_Putte-1_1_I-1-1.nod.xml"/>
        <edge-files value="./converted_scenarios/scenario-factory/BEL_Putte-1_1_I-1-1/BEL_Putte-1_1_I-1-1.edg.xml"/>
        <connection-files value="./converted_scenarios/scenario-factory/BEL_Putte-1_1_I-1-1/BEL_Putte-1_1_I-1-1.con.xml"/>
        <tllogic-files value="./converted_scenarios/scenario-factory/BEL_Putte-1_1_I-1-1/BEL_Putte-1_1_I-1-1.tll.xml"/>
        <type-files value="/home/zen/commonroad-interactive-benchmarks/install/commonroad-map-tool/crmapconverter/sumo_map/templates/DEU.typ.xml"/>
    </input>

    <output>
        <output-file value="./converted_scenarios/scenario-factory/BEL_Putte-1_1_I-1-1/BEL_Putte-1_1_I-1-1.net.xml"/>
    </output>

    <processing>
        <geometry.remove.keep-edges.explicit value="true"/>
        <geometry.avoid-overlap value="true"/>
        <offset.disable-normalization value="true"/>
    </processing>

    <junctions>
        <no-turnarounds value="true"/>
        <junctions.internal-link-detail value="20"/>
    </junctions>

    <report>
        <aggregate-warnings value="5"/>
    </report>

    <random_number>
        <seed value="1234"/>
    </random_number>

</configuration>
--><net xmlns:xsi="http://www.w3.org/2001/XMLSchema-instance" version="1.6" junctionCornerDetail="5" junctionLinkDetail="20" limitTurnSpeed="5.50" xsi:noNamespaceSchemaLocation="http://sumo.dlr.de/xsd/net_file.xsd">

    <location netOffset="0.00,0.00" convBoundary="133.31,182.35,244.19,364.79" origBoundary="133.31,182.35,244.19,364.79" projParameter="!"/>

    <type id="highway.bridleway" priority="1" speed="2.78" allow="pedestrian" oneway="1" width="2.00"/>
    <type id="highway.bus_guideway" priority="1" speed="27.78" allow="bus" oneway="1"/>
    <type id="highway.cycleway" priority="1" speed="8.33" allow="bicycle" oneway="0" width="1.00"/>
    <type id="highway.footway" priority="1" speed="2.78" allow="pedestrian" oneway="1" width="2.00"/>
    <type id="highway.ford" priority="1" speed="2.78" allow="army" oneway="0"/>
    <type id="highway.living_street" priority="2" speed="2.78" disallow="tram rail_urban rail rail_electric rail_fast ship" oneway="0"/>
    <type id="highway.motorway" priority="14" speed="39.44" allow="private emergency authority army vip passenger hov taxi bus coach delivery truck trailer motorcycle evehicle custom1 custom2" oneway="1"/>
    <type id="highway.motorway_link" priority="9" speed="22.22" allow="private emergency authority army vip passenger hov taxi bus coach delivery truck trailer motorcycle evehicle custom1 custom2" oneway="1"/>
    <type id="highway.path" priority="1" speed="2.78" allow="pedestrian bicycle" oneway="0" width="2.00"/>
    <type id="highway.pedestrian" priority="1" speed="2.78" allow="pedestrian" oneway="1" width="2.00"/>
    <type id="highway.primary" priority="12" speed="27.78" disallow="pedestrian tram rail_urban rail rail_electric rail_fast ship" oneway="0"/>
    <type id="highway.primary_link" priority="7" speed="22.22" disallow="pedestrian tram rail_urban rail rail_electric rail_fast ship" oneway="0"/>
    <type id="highway.raceway" priority="15" speed="83.33" allow="vip" oneway="0"/>
    <type id="highway.residential" priority="3" speed="13.89" disallow="pedestrian tram rail_urban rail rail_electric rail_fast ship" oneway="0"/>
    <type id="highway.secondary" priority="11" speed="27.78" disallow="pedestrian tram rail_urban rail rail_electric rail_fast ship" oneway="0"/>
    <type id="highway.secondary_link" priority="6" speed="22.22" disallow="pedestrian tram rail_urban rail rail_electric rail_fast ship" oneway="0"/>
    <type id="highway.service" priority="1" speed="5.56" allow="pedestrian delivery bicycle" oneway="0"/>
    <type id="highway.stairs" priority="1" speed="1.39" allow="pedestrian" oneway="1" width="2.00"/>
    <type id="highway.step" priority="1" speed="1.39" allow="pedestrian" oneway="1" width="2.00"/>
    <type id="highway.steps" priority="1" speed="1.39" allow="pedestrian" oneway="1" width="2.00"/>
    <type id="highway.tertiary" priority="10" speed="22.22" disallow="pedestrian tram rail_urban rail rail_electric rail_fast ship" oneway="0"/>
    <type id="highway.tertiary_link" priority="5" speed="22.22" disallow="pedestrian tram rail_urban rail rail_electric rail_fast ship" oneway="0"/>
    <type id="highway.track" priority="1" speed="5.56" allow="pedestrian motorcycle moped bicycle" oneway="0"/>
    <type id="highway.trunk" priority="13" speed="27.78" disallow="pedestrian bicycle tram rail_urban rail rail_electric rail_fast ship" oneway="0"/>
    <type id="highway.trunk_link" priority="8" speed="22.22" disallow="pedestrian bicycle tram rail_urban rail rail_electric rail_fast ship" oneway="0"/>
    <type id="highway.unclassified" priority="4" speed="13.89" disallow="pedestrian tram rail_urban rail rail_electric rail_fast ship" oneway="0"/>
    <type id="highway.unsurfaced" priority="1" speed="8.33" disallow="tram rail_urban rail rail_electric rail_fast ship" oneway="0"/>
    <type id="railway.highspeed" priority="21" speed="69.44" allow="rail_fast" oneway="1"/>
    <type id="railway.light_rail" priority="19" speed="27.78" allow="rail_urban" oneway="1"/>
    <type id="railway.preserved" priority="16" speed="27.78" allow="rail" oneway="1"/>
    <type id="railway.rail" priority="20" speed="44.44" allow="rail" oneway="1"/>
    <type id="railway.subway" priority="18" speed="27.78" allow="rail_urban" oneway="1"/>
    <type id="railway.tram" priority="17" speed="13.89" allow="tram" oneway="1"/>

    <edge id=":17_0" function="internal">
        <lane id=":17_0_0" index="0" disallow="pedestrian tram rail_urban rail rail_electric rail_fast ship" speed="10.72" length="29.11" width="3.50" shape="206.94,304.20 204.86,301.58 203.30,299.97 201.58,298.54 200.65,297.91 199.68,297.35 198.67,296.87 197.61,296.49 196.53,296.22 195.42,296.06 194.30,296.02 193.18,296.10 192.08,296.29 191.00,296.58 189.94,296.96 187.93,297.94 186.05,299.16 184.29,300.54 182.64,302.06"/>
    </edge>
    <edge id=":17_1" function="internal">
        <lane id=":17_1_0" index="0" disallow="pedestrian tram rail_urban rail rail_electric rail_fast ship" speed="36.11" length="57.31" width="3.50" shape="206.94,304.20 190.36,280.85 173.76,257.47"/>
    </edge>
    <edge id=":17_2" function="internal">
        <lane id=":17_2_0" index="0" disallow="pedestrian tram rail_urban rail rail_electric rail_fast ship" speed="22.97" length="56.18" width="3.50" shape="206.94,304.20 205.71,302.39 203.52,298.62 201.68,294.66 200.20,290.56 199.07,286.36 198.27,282.10 197.77,277.80 197.55,273.48 197.61,268.11 198.01,262.75 198.87,256.39 200.09,250.10"/>
    </edge>
    <edge id=":17_3" function="internal">
        <lane id=":17_3_0" index="0" disallow="pedestrian tram rail_urban rail rail_electric rail_fast ship" speed="22.36" length="53.24" width="3.50" shape="203.51,250.85 202.34,256.89 201.51,262.98 201.12,268.08 201.04,273.21 201.24,277.30 201.70,281.37 202.44,285.40 203.49,289.36 204.87,293.22 206.59,296.94 208.64,300.48 209.78,302.15"/>
    </edge>
    <edge id=":17_4" function="internal">
        <lane id=":17_4_0" index="0" disallow="pedestrian tram rail_urban rail rail_electric rail_fast ship" speed="31.53" length="55.92" width="3.50" shape="203.51,250.85 201.07,261.12 198.53,270.27 196.25,277.29 194.01,283.21 191.90,288.04 189.49,292.74 187.29,296.34 185.44,298.90 183.38,301.30 182.64,302.06"/>
    </edge>
    <edge id=":17_5" function="internal">
        <lane id=":17_5_0" index="0" disallow="pedestrian tram rail_urban rail rail_electric rail_fast ship" speed="36.11" length="57.28" width="3.50" shape="176.62,255.45 193.21,278.82 209.78,302.15"/>
    </edge>
    <edge id=":17_6" function="internal">
        <lane id=":17_6_0" index="0" disallow="pedestrian tram rail_urban rail rail_electric rail_fast ship" speed="15.80" length="51.46" width="3.50" shape="176.62,255.45 179.96,260.44 183.00,265.59 185.15,269.86 186.56,273.16 187.75,276.55 188.65,280.02 189.20,283.57 189.33,285.96 189.24,288.35 188.91,290.72 188.32,293.04 187.47,295.27 186.36,297.39 185.02,299.37 183.47,301.20 182.64,302.06"/>
    </edge>
    <edge id=":17_7" function="internal">
        <lane id=":17_7_0" index="0" disallow="pedestrian tram rail_urban rail rail_electric rail_fast ship" speed="15.03" length="46.50" width="3.50" shape="180.19,299.55 180.91,298.82 182.27,297.20 183.42,295.47 184.35,293.62 185.05,291.68 185.52,289.66 185.76,287.58 185.80,285.47 185.64,283.36 185.08,280.16 184.22,277.02 183.10,273.93 181.77,270.90 179.75,266.94 176.89,262.13 173.76,257.47"/>
    </edge>
    <edge id=":17_8" function="internal">
        <lane id=":17_8_0" index="0" disallow="pedestrian tram rail_urban rail rail_electric rail_fast ship" speed="30.96" length="53.88" width="3.50" shape="180.19,299.55 180.85,298.88 182.78,296.63 184.51,294.21 186.59,290.78 188.88,286.27 190.90,281.61 193.04,275.87 195.25,269.04 197.72,260.12 200.09,250.10"/>
    </edge>
    <edge id=":17_9" function="internal">
        <lane id=":17_9_0" index="0" disallow="pedestrian tram rail_urban rail rail_electric rail_fast ship" speed="11.76" length="35.27" width="3.50" shape="180.19,299.55 182.12,297.79 184.19,296.17 186.43,294.72 188.84,293.54 190.16,293.06 191.51,292.70 192.90,292.46 194.32,292.36 195.74,292.41 197.16,292.62 198.53,292.96 199.86,293.44 201.12,294.03 202.32,294.72 203.47,295.51 205.51,297.21 207.37,299.12 209.78,302.15"/>
    </edge>

    <edge id="5671" from="17" to="12" priority="3" type="highway.residential" spreadType="center" length="70.00" shape="190.29,278.79 133.31,200.34">
        <lane id="5671_0" index="0" disallow="pedestrian tram rail_urban rail rail_electric rail_fast ship" speed="36.11" length="70.00" width="3.50" customShape="1" shape="173.76,257.47 133.31,200.34"/>
    </edge>
    <edge id="5672" from="15" to="17" priority="3" type="highway.residential" spreadType="center" length="69.99" shape="136.18,198.33 193.12,276.73">
        <lane id="5672_0" index="0" disallow="pedestrian tram rail_urban rail rail_electric rail_fast ship" speed="36.11" length="69.99" width="3.50" customShape="1" shape="136.18,198.33 176.62,255.46"/>
    </edge>
    <edge id="5712" from="13" to="17" priority="3" type="highway.residential" spreadType="center" length="70.00" shape="241.22,364.79 190.17,278.60">
        <lane id="5712_0" index="0" disallow="pedestrian tram rail_urban rail rail_electric rail_fast ship" speed="36.11" length="70.00" width="3.50" customShape="1" shape="241.22,364.79 237.22,353.37 234.08,346.51 230.19,338.88 225.70,331.01 221.98,325.03 218.41,320.15 206.94,304.20"/>
    </edge>
    <edge id="5713" from="17" to="6" priority="3" type="highway.residential" spreadType="center" length="70.00" shape="193.18,276.81 244.19,362.68">
        <lane id="5713_0" index="0" disallow="pedestrian tram rail_urban rail rail_electric rail_fast ship" speed="36.11" length="70.00" width="3.50" customShape="1" shape="209.78,302.15 221.33,318.20 224.94,323.16 228.74,329.27 233.29,337.26 237.24,345.00 240.44,352.02 244.19,362.68"/>
    </edge>
    <edge id="5754" from="14" to="17" priority="3" type="highway.residential" spreadType="center" length="35.84" shape="154.54,324.56 190.32,276.64">
        <lane id="5754_0" index="0" disallow="pedestrian tram rail_urban rail rail_electric rail_fast ship" speed="36.11" length="35.84" width="3.50" customShape="1" shape="154.54,324.56 160.61,318.50 180.20,299.54"/>
    </edge>
    <edge id="5755" from="17" to="3" priority="3" type="highway.residential" spreadType="center" length="35.83" shape="193.12,278.74 156.98,327.07">
        <lane id="5755_0" index="0" disallow="pedestrian tram rail_urban rail rail_electric rail_fast ship" speed="36.11" length="35.83" width="3.50" customShape="1" shape="182.64,302.06 163.06,320.99 156.98,327.07"/>
    </edge>
    <edge id="5757" from="16" to="17" priority="3" type="highway.residential" spreadType="center" length="70.05" shape="221.09,183.10 193.36,278.25">
        <lane id="5757_0" index="0" disallow="pedestrian tram rail_urban rail rail_electric rail_fast ship" speed="36.11" length="70.05" width="3.50" customShape="1" shape="221.09,183.10 211.60,218.23 206.81,236.68 203.50,250.90"/>
    </edge>
    <edge id="5758" from="17" to="10" priority="3" type="highway.residential" spreadType="center" length="70.00" shape="190.00,277.27 217.67,182.35">
        <lane id="5758_0" index="0" disallow="pedestrian tram rail_urban rail rail_electric rail_fast ship" speed="36.11" length="70.00" width="3.50" customShape="1" shape="200.09,250.10 203.40,235.90 208.19,217.42 217.67,182.35"/>
    </edge>

    <junction id="10" type="dead_end" x="217.67" y="182.35" incLanes="5758_0" intLanes="" shape="215.98,181.89 219.36,182.81" rightOfWay="edgePriority"/>
    <junction id="12" type="dead_end" x="133.31" y="200.34" incLanes="5671_0" intLanes="" shape="131.88,201.35 134.74,199.33" rightOfWay="edgePriority"/>
    <junction id="13" type="dead_end" x="241.22" y="364.79" incLanes="" intLanes="" shape="242.87,364.21 239.57,365.36" rightOfWay="edgePriority"/>
    <junction id="14" type="dead_end" x="154.54" y="324.56" incLanes="" intLanes="" shape="155.77,325.80 153.30,323.32" rightOfWay="edgePriority"/>
    <junction id="15" type="dead_end" x="136.18" y="198.33" incLanes="" intLanes="" shape="134.75,199.34 137.60,197.32" rightOfWay="edgePriority"/>
    <junction id="16" type="dead_end" x="221.09" y="183.10" incLanes="" intLanes="" shape="219.40,182.65 222.78,183.56" rightOfWay="edgePriority"/>
    <junction id="17" type="priority" x="191.69" y="277.73" incLanes="5712_0 5757_0 5672_0 5754_0" intLanes=":17_0_0 :17_1_0 :17_2_0 :17_3_0 :17_4_0 :17_5_0 :17_6_0 :17_7_0 :17_8_0 :17_9_0" shape="205.52,305.22 211.20,301.13 207.33,294.61 204.61,287.37 203.04,279.42 202.61,270.76 203.33,261.38 205.20,251.29 198.38,249.70 196.43,254.63 193.43,258.06 189.74,259.86 185.71,259.93 181.69,258.16 178.04,254.44 172.33,258.49 177.91,267.21 181.71,275.10 183.71,282.16 183.92,288.37 182.35,293.75 178.99,298.28 183.85,303.31 187.78,300.15 191.58,298.38 195.25,298.00 198.80,299.01 202.22,301.42">
        <request index="0" response="0000000000" foes="0001010000" cont="0"/>
        <request index="1" response="0000000000" foes="1111010000" cont="0"/>
        <request index="2" response="0000100000" foes="1100110000" cont="0"/>
        <request index="3" response="0000100000" foes="1000100000" cont="0"/>
        <request index="4" response="0001100111" foes="1001100111" cont="0"/>
        <request index="5" response="0000000000" foes="1100011100" cont="0"/>
        <request index="6" response="0000000011" foes="1100010011" cont="0"/>
        <request index="7" response="0000000010" foes="0000000010" cont="0"/>
        <request index="8" response="0001100110" foes="0001100110" cont="0"/>
        <request index="9" response="0001111110" foes="0001111110" cont="0"/>
    </junction>
    <junction id="3" type="dead_end" x="156.98" y="327.07" incLanes="5755_0" intLanes="" shape="158.22,328.30 155.75,325.83" rightOfWay="edgePriority"/>
    <junction id="6" type="dead_end" x="244.19" y="362.68" incLanes="5713_0" intLanes="" shape="245.84,362.10 242.54,363.26" rightOfWay="edgePriority"/>

    <connection from="5672" to="5713" fromLane="0" toLane="0" contPos="-4.00" shape="176.62,255.46 193.21,278.82 209.78,302.15" via=":17_5_0" dir="s" state="M"/>
    <connection from="5672" to="5755" fromLane="0" toLane="0" contPos="-4.00" shape="176.62,255.46 179.96,260.44 183.00,265.59 185.15,269.86 186.56,273.16 187.75,276.55 188.65,280.02 189.20,283.57 189.33,285.96 189.24,288.35 188.91,290.72 188.32,293.04 187.47,295.27 186.36,297.39 185.02,299.37 183.47,301.20 182.64,302.06" via=":17_6_0" dir="l" state="m"/>
    <connection from="5712" to="5755" fromLane="0" toLane="0" contPos="-4.00" shape="206.94,304.20 204.86,301.58 203.30,299.97 201.58,298.54 200.65,297.91 199.68,297.35 198.67,296.87 197.61,296.49 196.53,296.22 195.42,296.06 194.30,296.02 193.18,296.10 192.08,296.29 191.00,296.58 189.94,296.96 187.93,297.94 186.05,299.16 184.29,300.54 182.64,302.06" via=":17_0_0" dir="r" state="M"/>
    <connection from="5712" to="5671" fromLane="0" toLane="0" contPos="-4.00" shape="206.94,304.20 190.36,280.85 173.76,257.47" via=":17_1_0" dir="s" state="M"/>
    <connection from="5712" to="5758" fromLane="0" toLane="0" contPos="-4.00" shape="206.94,304.20 205.71,302.39 203.52,298.62 201.68,294.66 200.20,290.56 199.07,286.36 198.27,282.10 197.77,277.80 197.55,273.48 197.61,268.11 198.01,262.75 198.87,256.39 200.09,250.10" via=":17_2_0" dir="l" state="m"/>
    <connection from="5754" to="5671" fromLane="0" toLane="0" contPos="-4.00" shape="180.19,299.55 180.91,298.82 182.27,297.20 183.42,295.47 184.35,293.62 185.05,291.68 185.52,289.66 185.76,287.58 185.80,285.47 185.64,283.36 185.08,280.16 184.22,277.02 183.10,273.93 181.77,270.90 179.75,266.94 176.89,262.13 173.76,257.47" via=":17_7_0" dir="r" state="m"/>
    <connection from="5754" to="5758" fromLane="0" toLane="0" contPos="-4.00" shape="180.19,299.55 180.85,298.88 182.78,296.63 184.51,294.21 186.59,290.78 188.88,286.27 190.90,281.61 193.04,275.87 195.25,269.04 197.72,260.12 200.09,250.10" via=":17_8_0" dir="s" state="m"/>
    <connection from="5754" to="5713" fromLane="0" toLane="0" contPos="-4.00" shape="180.19,299.55 182.12,297.79 184.19,296.17 186.43,294.72 188.84,293.54 190.16,293.06 191.51,292.70 192.90,292.46 194.32,292.36 195.74,292.41 197.16,292.62 198.53,292.96 199.86,293.44 201.12,294.03 202.32,294.72 203.47,295.51 205.51,297.21 207.37,299.12 209.78,302.15" via=":17_9_0" dir="l" state="m"/>
    <connection from="5757" to="5713" fromLane="0" toLane="0" contPos="-4.00" shape="203.51,250.85 202.34,256.89 201.51,262.98 201.12,268.08 201.04,273.21 201.24,277.30 201.70,281.37 202.44,285.40 203.49,289.36 204.87,293.22 206.59,296.94 208.64,300.48 209.78,302.15" via=":17_3_0" dir="r" state="m"/>
    <connection from="5757" to="5755" fromLane="0" toLane="0" contPos="-4.00" shape="203.51,250.85 201.07,261.12 198.53,270.27 196.25,277.29 194.01,283.21 191.90,288.04 189.49,292.74 187.29,296.34 185.44,298.90 183.38,301.30 182.64,302.06" via=":17_4_0" dir="s" state="m"/>

    <connection from=":17_0" to="5755" fromLane="0" toLane="0" dir="r" state="M"/>
    <connection from=":17_1" to="5671" fromLane="0" toLane="0" dir="s" state="M"/>
    <connection from=":17_2" to="5758" fromLane="0" toLane="0" dir="l" state="M"/>
    <connection from=":17_3" to="5713" fromLane="0" toLane="0" dir="r" state="M"/>
    <connection from=":17_4" to="5755" fromLane="0" toLane="0" dir="s" state="M"/>
    <connection from=":17_5" to="5713" fromLane="0" toLane="0" dir="s" state="M"/>
    <connection from=":17_6" to="5755" fromLane="0" toLane="0" dir="l" state="M"/>
    <connection from=":17_7" to="5671" fromLane="0" toLane="0" dir="r" state="M"/>
    <connection from=":17_8" to="5758" fromLane="0" toLane="0" dir="s" state="M"/>
    <connection from=":17_9" to="5713" fromLane="0" toLane="0" dir="l" state="M"/>

</net>