<routes>
	<vehicle depart="0.1" departLane="0" departPos="16.779145535316076" departSpeed="7.7678966" id="319" type="bicycle">
		<route edges=":17_1 5671"/>
	</vehicle>
	<vehicle depart="0.1" departLane="0" departPos="63.84873506942308" departSpeed="0.41178665" id="323" type="bicycle">
		<route edges="5712 5755"/>
	</vehicle>
	<vehicle depart="0.1" departLane="0" departPos="25.74463234670005" departSpeed="0.0" id="35" type="passenger">
		<route edges="5754 5758"/>
	</vehicle>
	<vehicle depart="0.1" departLane="0" departPos="56.93597916737991" departSpeed="1.0835638" id="314" type="passenger">
		<route edges="5672 5713"/>
	</vehicle>
	<vehicle depart="0.1" departLane="0" departPos="30.019869199302832" departSpeed="11.321569" id="333" type="passenger">
		<route edges=":17_2 5758"/>
	</vehicle>
	<vehicle depart="0.1" departLane="0" departPos="19.4422918303498" departSpeed="9.9320485" id="334" type="passenger">
		<route edges=":17_2 5758"/>
	</vehicle>
	<vehicle depart="0.1" departLane="0" departPos="51.44403410067154" departSpeed="4.7276642" id="338" type="passenger">
		<route edges="5712 5755"/>
	</vehicle>
	<vehicle depart="0.1" departLane="0" departPos="22.155054463285946" departSpeed="3.5904047" id="339" type="passenger">
		<route edges="5712 5755"/>
	</vehicle>
	<vehicle depart="0.1" departLane="0" departPos="35.74279588978477" departSpeed="0.0" id="30" type="truck">
		<route edges="5754 5758"/>
	</vehicle>
	<vehicle depart="0.1" departLane="0" departPos="14.560421545239072" departSpeed="2.8811763" id="337" type="truck">
		<route edges=":17_2 5758"/>
	</vehicle>
</routes>
