<routes>
	<vehicle depart="0.1" departLane="0" departPos="25.19238785432222" departSpeed="1.8448033" id="319" type="passenger">
		<route edges=":49_1 86630"/>
	</vehicle>
	<vehicle depart="0.1" departLane="0" departPos="17.341418489999626" departSpeed="1.142329" id="322" type="passenger">
		<route edges=":47_1 86633"/>
	</vehicle>
	<vehicle depart="0.1" departLane="0" departPos="8.51882789627672" departSpeed="1.6946792" id="332" type="passenger">
		<route edges=":47_2 86579"/>
	</vehicle>
	<vehicle depart="0.1" departLane="0" departPos="22.002594354924668" departSpeed="1.1855213" id="346" type="passenger">
		<route edges=":47_4 86633 86650"/>
	</vehicle>
	<vehicle depart="0.1" departLane="0" departPos="5.038219564549248" departSpeed="1.6262791" id="356" type="passenger">
		<route edges=":49_2 86650"/>
	</vehicle>
	<vehicle depart="0.1" departLane="0" departPos="2.5" departSpeed="2.8139844" id="359" type="passenger">
		<route edges=":49_5 86650"/>
	</vehicle>
	<vehicle depart="0.1" departLane="0" departPos="8.457986992921057" departSpeed="8.7177871" id="364" type="passenger">
		<route edges="86582 86633"/>
	</vehicle>
	<vehicle depart="0.1" departLane="0" departPos="10.396292571909331" departSpeed="4.5951246" id="360" type="motorcycle">
		<route edges=":47_4 86633"/>
	</vehicle>
	<vehicle depart="0.1" departLane="0" departPos="68.49983154918893" departSpeed="0.0" id="30" type="truck">
		<route edges="86815 86818"/>
	</vehicle>
</routes>
