<routes>
	<vehicle depart="0.1" departLane="0" departPos="24.43123463764968" departSpeed="9.2203481" id="1" type="passenger">
		<route edges="50201 50213 50197"/>
	</vehicle>
	<vehicle depart="0.1" departLane="0" departPos="108.15760584981923" departSpeed="1.6218965" id="2" type="passenger">
		<route edges="50195 50211 50199"/>
	</vehicle>
	<vehicle depart="0.1" departLane="0" departPos="132.75107283314816" departSpeed="2.3799604" id="4" type="passenger">
		<route edges="50205 50207 50197"/>
	</vehicle>
	<vehicle depart="0.1" departLane="0" departPos="140.7511424676568" departSpeed="3.8720595" id="5" type="passenger">
		<route edges="50205 50217 50199"/>
	</vehicle>
	<vehicle depart="0.1" departLane="0" departPos="16.427749113629147" departSpeed="2.9146911" id="7" type="passenger">
		<route edges="50201 50213 50197"/>
	</vehicle>
</routes>
