<routes>
	<vehicle depart="0.1" departLane="0" departPos="8.170890494454838" departSpeed="0.01244741" id="32" type="passenger">
		<route edges="34742 34745"/>
	</vehicle>
	<vehicle depart="0.1" departLane="0" departPos="62.3239923255998" departSpeed="0.068359876" id="33" type="passenger">
		<route edges="34920 34739"/>
	</vehicle>
	<vehicle depart="0.1" departLane="0" departPos="54.478309294576235" departSpeed="0.36637993" id="311" type="passenger">
		<route edges="34920 34739"/>
	</vehicle>
	<vehicle depart="0.1" departLane="0" departPos="46.04007683520184" departSpeed="0.9233508" id="320" type="passenger">
		<route edges="34920 34739"/>
	</vehicle>
	<vehicle depart="0.1" departLane="0" departPos="69.88791029499183" departSpeed="0.0" id="323" type="passenger">
		<route edges="34920 34739"/>
	</vehicle>
	<vehicle depart="0.1" departLane="0" departPos="10.574885778362402" departSpeed="7.2338528" id="327" type="passenger">
		<route edges=":45_1 34782"/>
	</vehicle>
	<vehicle depart="0.1" departLane="0" departPos="33.270814529495816" departSpeed="13.603681" id="344" type="passenger">
		<route edges=":47_1 34741 34738 34919"/>
	</vehicle>
	<vehicle depart="0.1" departLane="0" departPos="17.609580598678765" departSpeed="14.103606" id="350" type="passenger">
		<route edges="34744 34914"/>
	</vehicle>
	<vehicle depart="0.1" departLane="0" departPos="36.96763694953922" departSpeed="1.4580439" id="330" type="motorcycle">
		<route edges="34920 34739"/>
	</vehicle>
	<vehicle depart="0.1" departLane="0" departPos="3.75" departSpeed="0.1292026" id="30" type="truck">
		<route edges=":47_5 34745"/>
	</vehicle>
</routes>
