<!-- generated on Tue Feb  9 22:02:58 2021 by Eclipse SUMO netconvert Version 1.8.0
<configuration xmlns:xsi="http://www.w3.org/2001/XMLSchema-instance" xsi:noNamespaceSchemaLocation="http://sumo.dlr.de/xsd/netconvertConfiguration.xsd">

    <input>
        <node-files value="./converted_scenarios/scenario-factory/ITA_Siderno-2_3_I-1-1/ITA_Siderno-2_3_I-1-1.nod.xml"/>
        <edge-files value="./converted_scenarios/scenario-factory/ITA_Siderno-2_3_I-1-1/ITA_Siderno-2_3_I-1-1.edg.xml"/>
        <connection-files value="./converted_scenarios/scenario-factory/ITA_Siderno-2_3_I-1-1/ITA_Siderno-2_3_I-1-1.con.xml"/>
        <tllogic-files value="./converted_scenarios/scenario-factory/ITA_Siderno-2_3_I-1-1/ITA_Siderno-2_3_I-1-1.tll.xml"/>
        <type-files value="/home/zen/commonroad-interactive-benchmarks/install/commonroad-map-tool/crmapconverter/sumo_map/templates/DEU.typ.xml"/>
    </input>

    <output>
        <output-file value="./converted_scenarios/scenario-factory/ITA_Siderno-2_3_I-1-1/ITA_Siderno-2_3_I-1-1.net.xml"/>
    </output>

    <processing>
        <geometry.remove.keep-edges.explicit value="true"/>
        <geometry.avoid-overlap value="true"/>
        <offset.disable-normalization value="true"/>
    </processing>

    <junctions>
        <no-turnarounds value="true"/>
        <junctions.internal-link-detail value="20"/>
    </junctions>

    <report>
        <aggregate-warnings value="5"/>
    </report>

    <random_number>
        <seed value="1234"/>
    </random_number>

</configuration>
--><net xmlns:xsi="http://www.w3.org/2001/XMLSchema-instance" version="1.6" junctionCornerDetail="5" junctionLinkDetail="20" limitTurnSpeed="5.50" xsi:noNamespaceSchemaLocation="http://sumo.dlr.de/xsd/net_file.xsd">

    <location netOffset="0.00,0.00" convBoundary="-246.09,367.01,-50.20,490.60" origBoundary="-247.15,365.62,-50.20,490.60" projParameter="!"/>

    <type id="highway.bridleway" priority="1" speed="2.78" allow="pedestrian" oneway="1" width="2.00"/>
    <type id="highway.bus_guideway" priority="1" speed="27.78" allow="bus" oneway="1"/>
    <type id="highway.cycleway" priority="1" speed="8.33" allow="bicycle" oneway="0" width="1.00"/>
    <type id="highway.footway" priority="1" speed="2.78" allow="pedestrian" oneway="1" width="2.00"/>
    <type id="highway.ford" priority="1" speed="2.78" allow="army" oneway="0"/>
    <type id="highway.living_street" priority="2" speed="2.78" disallow="tram rail_urban rail rail_electric rail_fast ship" oneway="0"/>
    <type id="highway.motorway" priority="14" speed="39.44" allow="private emergency authority army vip passenger hov taxi bus coach delivery truck trailer motorcycle evehicle custom1 custom2" oneway="1"/>
    <type id="highway.motorway_link" priority="9" speed="22.22" allow="private emergency authority army vip passenger hov taxi bus coach delivery truck trailer motorcycle evehicle custom1 custom2" oneway="1"/>
    <type id="highway.path" priority="1" speed="2.78" allow="pedestrian bicycle" oneway="0" width="2.00"/>
    <type id="highway.pedestrian" priority="1" speed="2.78" allow="pedestrian" oneway="1" width="2.00"/>
    <type id="highway.primary" priority="12" speed="27.78" disallow="pedestrian tram rail_urban rail rail_electric rail_fast ship" oneway="0"/>
    <type id="highway.primary_link" priority="7" speed="22.22" disallow="pedestrian tram rail_urban rail rail_electric rail_fast ship" oneway="0"/>
    <type id="highway.raceway" priority="15" speed="83.33" allow="vip" oneway="0"/>
    <type id="highway.residential" priority="3" speed="13.89" disallow="pedestrian tram rail_urban rail rail_electric rail_fast ship" oneway="0"/>
    <type id="highway.secondary" priority="11" speed="27.78" disallow="pedestrian tram rail_urban rail rail_electric rail_fast ship" oneway="0"/>
    <type id="highway.secondary_link" priority="6" speed="22.22" disallow="pedestrian tram rail_urban rail rail_electric rail_fast ship" oneway="0"/>
    <type id="highway.service" priority="1" speed="5.56" allow="pedestrian delivery bicycle" oneway="0"/>
    <type id="highway.stairs" priority="1" speed="1.39" allow="pedestrian" oneway="1" width="2.00"/>
    <type id="highway.step" priority="1" speed="1.39" allow="pedestrian" oneway="1" width="2.00"/>
    <type id="highway.steps" priority="1" speed="1.39" allow="pedestrian" oneway="1" width="2.00"/>
    <type id="highway.tertiary" priority="10" speed="22.22" disallow="pedestrian tram rail_urban rail rail_electric rail_fast ship" oneway="0"/>
    <type id="highway.tertiary_link" priority="5" speed="22.22" disallow="pedestrian tram rail_urban rail rail_electric rail_fast ship" oneway="0"/>
    <type id="highway.track" priority="1" speed="5.56" allow="pedestrian motorcycle moped bicycle" oneway="0"/>
    <type id="highway.trunk" priority="13" speed="27.78" disallow="pedestrian bicycle tram rail_urban rail rail_electric rail_fast ship" oneway="0"/>
    <type id="highway.trunk_link" priority="8" speed="22.22" disallow="pedestrian bicycle tram rail_urban rail rail_electric rail_fast ship" oneway="0"/>
    <type id="highway.unclassified" priority="4" speed="13.89" disallow="pedestrian tram rail_urban rail rail_electric rail_fast ship" oneway="0"/>
    <type id="highway.unsurfaced" priority="1" speed="8.33" disallow="tram rail_urban rail rail_electric rail_fast ship" oneway="0"/>
    <type id="railway.highspeed" priority="21" speed="69.44" allow="rail_fast" oneway="1"/>
    <type id="railway.light_rail" priority="19" speed="27.78" allow="rail_urban" oneway="1"/>
    <type id="railway.preserved" priority="16" speed="27.78" allow="rail" oneway="1"/>
    <type id="railway.rail" priority="20" speed="44.44" allow="rail" oneway="1"/>
    <type id="railway.subway" priority="18" speed="27.78" allow="rail_urban" oneway="1"/>
    <type id="railway.tram" priority="17" speed="13.89" allow="tram" oneway="1"/>

    <edge id=":27_0" function="internal">
        <lane id=":27_0_0" index="0" disallow="pedestrian tram rail_urban rail rail_electric rail_fast ship" speed="36.11" length="4.31" width="3.50" shape="-138.56,410.73 -142.01,408.15"/>
    </edge>
    <edge id=":29_0" function="internal">
        <lane id=":29_0_0" index="0" disallow="pedestrian tram rail_urban rail rail_electric rail_fast ship" speed="8.16" length="7.90" width="3.50" shape="-129.94,444.74 -130.21,445.11 -130.46,445.48 -130.69,445.85 -130.90,446.23 -131.09,446.61 -131.25,446.99 -131.39,447.37 -131.51,447.76 -131.61,448.15 -131.69,448.54 -131.74,448.93 -131.78,449.33 -131.79,449.72 -131.78,450.13 -131.74,450.53 -131.69,450.93 -131.61,451.34 -131.51,451.75 -131.39,452.17"/>
    </edge>
    <edge id=":29_1" function="internal">
        <lane id=":29_1_0" index="0" disallow="pedestrian tram rail_urban rail rail_electric rail_fast ship" speed="11.66" length="31.83" width="3.50" shape="-159.43,433.09 -148.73,441.50 -145.35,443.63 -142.78,444.88 -140.61,445.60 -138.92,445.88 -137.21,445.82 -136.10,445.54 -135.08,445.04 -134.17,444.35 -132.74,442.63"/>
    </edge>
    <edge id=":29_2" function="internal">
        <lane id=":29_2_0" index="0" disallow="pedestrian tram rail_urban rail rail_electric rail_fast ship" speed="36.11" length="41.21" width="3.50" shape="-159.43,433.09 -127.33,458.94"/>
        <lane id=":29_2_1" index="1" disallow="pedestrian tram rail_urban rail rail_electric rail_fast ship" speed="36.11" length="41.21" width="3.50" shape="-161.62,435.81 -129.52,461.66"/>
    </edge>
    <edge id=":31_0" function="internal">
        <lane id=":31_0_0" index="0" disallow="pedestrian tram rail_urban rail rail_electric rail_fast ship" speed="10.62" length="26.01" width="3.50" shape="-163.74,410.24 -165.47,412.64 -166.58,414.72 -167.20,416.37 -167.58,418.10 -167.71,419.86 -167.55,421.62 -167.13,423.33 -166.20,425.50 -164.96,427.50 -163.08,429.77 -160.96,431.81 -159.99,432.62"/>
    </edge>
    <edge id=":31_1" function="internal">
        <lane id=":31_1_0" index="0" disallow="pedestrian tram rail_urban rail rail_electric rail_fast ship" speed="8.18" length="14.51" width="3.50" shape="-178.93,414.18 -178.21,414.26 -176.49,414.19 -174.79,413.87 -173.16,413.32 -171.12,412.26 -169.26,410.90 -167.20,408.90 -166.46,408.03"/>
    </edge>
    <edge id=":31_2" function="internal">
        <lane id=":31_2_0" index="0" disallow="pedestrian tram rail_urban rail rail_electric rail_fast ship" speed="36.11" length="26.26" width="3.50" shape="-180.72,416.49 -160.43,432.29 -160.00,432.63"/>
        <lane id=":31_2_1" index="1" disallow="pedestrian tram rail_urban rail rail_electric rail_fast ship" speed="36.11" length="26.20" width="3.50" shape="-182.86,419.26 -162.61,435.03 -162.19,435.36"/>
    </edge>
    <edge id=":32_0" function="internal">
        <lane id=":32_0_0" index="0" disallow="pedestrian tram rail_urban rail rail_electric rail_fast ship" speed="8.31" length="14.71" width="3.48" shape="-107.47,435.05 -109.90,433.27 -111.58,432.18 -112.46,431.68 -113.35,431.22 -114.27,430.81 -115.21,430.48 -116.19,430.25 -117.19,430.17 -118.18,430.32 -119.08,430.75 -120.24,431.95"/>
    </edge>
    <edge id=":32_1" function="internal">
        <lane id=":32_1_0" index="0" disallow="pedestrian tram rail_urban rail rail_electric rail_fast ship" speed="36.11" length="27.34" width="3.50" shape="-107.47,435.05 -118.23,426.64 -129.00,418.20"/>
    </edge>
    <edge id=":32_2" function="internal">
        <lane id=":32_2_0" index="0" disallow="pedestrian tram rail_urban rail rail_electric rail_fast ship" speed="36.11" length="27.33" width="3.50" shape="-126.85,415.45 -116.07,423.88 -105.33,432.29"/>
    </edge>
    <edge id=":32_3" function="internal">
        <lane id=":32_3_0" index="0" disallow="pedestrian tram rail_urban rail rail_electric rail_fast ship" speed="9.29" length="20.16" width="3.48" shape="-126.85,415.45 -123.66,418.18 -121.72,420.17 -120.84,421.25 -120.03,422.39 -119.34,423.59 -118.79,424.87 -118.44,426.21 -118.35,427.60 -118.56,428.97 -119.06,430.27 -120.24,431.95"/>
    </edge>
    <edge id=":32_4" function="internal">
        <lane id=":32_4_0" index="0" disallow="pedestrian tram rail_urban rail rail_electric rail_fast ship" speed="8.16" length="14.58" width="3.50" shape="-122.92,429.75 -122.18,428.71 -121.92,427.98 -121.87,427.17 -122.02,426.32 -122.34,425.44 -122.81,424.57 -123.38,423.70 -124.04,422.85 -124.75,422.03 -126.36,420.44 -129.00,418.20"/>
    </edge>
    <edge id=":32_5" function="internal">
        <lane id=":32_5_0" index="0" disallow="pedestrian tram rail_urban rail rail_electric rail_fast ship" speed="9.41" length="20.08" width="3.50" shape="-122.92,429.75 -121.48,428.18 -120.07,427.29 -118.49,426.81 -116.94,426.71 -115.48,426.86 -114.13,427.20 -112.86,427.65 -111.66,428.19 -110.49,428.79 -108.33,430.11 -105.33,432.29"/>
    </edge>
    <edge id=":33_0" function="internal">
        <lane id=":33_0_0" index="0" disallow="pedestrian tram rail_urban rail rail_electric rail_fast ship" speed="9.73" length="22.16" width="3.50" shape="-111.37,449.93 -112.27,449.16 -115.00,447.02 -117.85,445.12 -119.79,444.07 -121.82,443.23 -122.81,442.94 -123.81,442.73 -124.80,442.63 -125.75,442.64 -126.67,442.79 -127.53,443.06 -128.35,443.47 -129.11,444.00 -129.82,444.66 -130.49,445.45"/>
    </edge>
    <edge id=":33_1" function="internal">
        <lane id=":33_1_0" index="0" disallow="pedestrian tram rail_urban rail rail_electric rail_fast ship" speed="10.73" length="25.22" width="3.49" shape="-111.37,449.93 -115.12,446.51 -117.77,443.82 -120.22,440.94 -121.68,438.88 -122.90,436.68 -123.37,435.51 -123.70,434.30 -123.85,433.05 -123.76,431.80 -123.38,430.60 -122.74,429.51"/>
    </edge>
    <edge id=":33_2" function="internal">
        <lane id=":33_2_0" index="0" disallow="pedestrian tram rail_urban rail rail_electric rail_fast ship" speed="9.38" length="19.94" width="3.50" shape="-119.98,431.67 -120.25,432.06 -120.40,432.74 -120.35,433.53 -120.13,434.36 -119.78,435.23 -119.35,436.08 -118.23,437.85 -116.93,439.52 -114.75,441.96 -112.40,444.28 -109.10,447.26"/>
    </edge>
    <edge id=":33_3" function="internal">
        <lane id=":33_3_0" index="0" disallow="pedestrian tram rail_urban rail rail_electric rail_fast ship" speed="36.11" length="17.34" width="3.50" shape="-119.98,431.66 -125.21,438.53 -130.49,445.45"/>
    </edge>
    <edge id=":33_4" function="internal">
        <lane id=":33_4_0" index="0" disallow="pedestrian tram rail_urban rail rail_electric rail_fast ship" speed="36.11" length="17.35" width="3.49" shape="-133.26,443.31 -128.00,436.41 -122.74,429.51"/>
    </edge>
    <edge id=":33_5" function="internal">
        <lane id=":33_5_0" index="0" disallow="pedestrian tram rail_urban rail rail_electric rail_fast ship" speed="10.83" length="27.90" width="3.50" shape="-133.26,443.31 -132.40,442.28 -131.44,441.36 -130.39,440.56 -129.23,439.91 -127.99,439.43 -126.70,439.14 -125.37,439.03 -124.05,439.09 -122.74,439.30 -121.45,439.63 -118.97,440.57 -116.61,441.78 -113.26,443.95 -110.12,446.40 -109.10,447.26"/>
    </edge>
    <edge id=":6_0" function="internal">
        <lane id=":6_0_0" index="0" disallow="pedestrian tram rail_urban rail rail_electric rail_fast ship" speed="36.11" length="4.09" width="3.50" shape="-139.80,405.44 -136.52,407.88"/>
    </edge>

    <edge id="44326" from="32" to="16" priority="3" type="highway.residential" spreadType="center" length="70.00" shape="-117.49,425.53 -50.20,475.43">
        <lane id="44326_0" index="0" disallow="pedestrian tram rail_urban rail rail_electric rail_fast ship" speed="36.11" length="70.00" width="3.50" customShape="1" shape="-105.33,432.29 -77.52,454.05 -50.20,475.43"/>
    </edge>
    <edge id="44327" from="25" to="32" priority="3" type="highway.residential" spreadType="center" length="70.02" shape="-52.34,478.19 -119.57,428.34">
        <lane id="44327_0" index="0" disallow="pedestrian tram rail_urban rail rail_electric rail_fast ship" speed="36.11" length="70.02" width="3.50" customShape="1" shape="-52.34,478.19 -79.68,456.81 -107.49,435.04"/>
    </edge>
    <edge id="44329" from="6" to="32" priority="3" type="highway.residential" spreadType="center" length="12.30" shape="-138.13,406.62 -117.24,425.75">
        <lane id="44329_0" index="0" disallow="pedestrian tram rail_urban rail rail_electric rail_fast ship" speed="36.11" length="12.30" width="3.50" customShape="1" shape="-136.52,407.88 -132.46,411.05 -126.83,415.46"/>
    </edge>
    <edge id="44330" from="32" to="27" priority="3" type="highway.residential" spreadType="center" length="12.13" shape="-119.60,428.32 -140.26,409.40">
        <lane id="44330_0" index="0" disallow="pedestrian tram rail_urban rail rail_electric rail_fast ship" speed="36.11" length="12.13" width="3.50" customShape="1" shape="-129.00,418.20 -134.62,413.81 -138.56,410.73"/>
    </edge>
    <edge id="44333" from="27" to="31" priority="3" type="highway.residential" spreadType="center" length="24.68" shape="-140.26,409.40 -170.18,417.49">
        <lane id="44333_0" index="0" disallow="pedestrian tram rail_urban rail rail_electric rail_fast ship" speed="36.11" length="24.68" width="3.50" customShape="1" shape="-142.01,408.15 -142.96,407.47 -144.87,406.35 -146.87,405.39 -148.96,404.67 -150.04,404.41 -151.13,404.23 -152.23,404.14 -153.34,404.15 -154.44,404.26 -155.53,404.48 -156.59,404.80 -157.62,405.21 -158.60,405.71 -160.44,406.95 -162.10,408.41 -163.59,410.05 -163.67,410.15 -163.75,410.25"/>
    </edge>
    <edge id="44339" from="4" to="31" priority="3" type="highway.residential" spreadType="center" length="81.99">
        <lane id="44339_0" index="0" disallow="pedestrian tram rail_urban rail rail_electric rail_fast ship" speed="36.11" length="81.99" width="3.50" customShape="1" shape="-245.02,365.62 -237.87,371.52 -199.30,402.06 -180.71,416.48"/>
        <lane id="44339_1" index="1" disallow="pedestrian tram rail_urban rail rail_electric rail_fast ship" speed="36.11" length="82.04" width="3.50" customShape="1" shape="-247.20,368.36 -240.07,374.24 -201.45,404.82 -182.85,419.25"/>
    </edge>
    <edge id="44342" from="31" to="29" priority="3" type="highway.residential" spreadType="center" length="0.73">
        <lane id="44342_0" index="0" disallow="pedestrian tram rail_urban rail rail_electric rail_fast ship" speed="36.11" length="0.73" width="3.50" customShape="1" shape="-160.00,432.63 -159.43,433.09"/>
        <lane id="44342_1" index="1" disallow="pedestrian tram rail_urban rail rail_electric rail_fast ship" speed="36.11" length="0.73" width="3.50" customShape="1" shape="-162.19,435.36 -161.62,435.81"/>
    </edge>
    <edge id="44404" from="26" to="33" priority="3" type="highway.residential" spreadType="center" length="63.19" shape="-63.04,490.60 -122.28,442.50">
        <lane id="44404_0" index="0" disallow="pedestrian tram rail_urban rail rail_electric rail_fast ship" speed="36.11" length="63.19" width="3.50" customShape="1" shape="-63.04,490.60 -95.62,463.35 -111.39,449.91"/>
    </edge>
    <edge id="44405" from="33" to="19" priority="3" type="highway.residential" spreadType="center" length="63.14" shape="-120.07,439.78 -60.79,487.92">
        <lane id="44405_0" index="0" disallow="pedestrian tram rail_urban rail rail_electric rail_fast ship" speed="36.11" length="63.14" width="3.50" customShape="1" shape="-109.10,447.26 -93.36,460.68 -60.79,487.92"/>
    </edge>
    <edge id="44481" from="33" to="29" priority="3" type="highway.residential" spreadType="center" length="0.20" shape="-120.79,442.88 -138.99,444.82">
        <lane id="44481_0" index="0" disallow="pedestrian tram rail_urban rail rail_electric rail_fast ship" speed="36.11" length="0.20" width="3.50" customShape="1" shape="-129.82,444.58 -129.94,444.74"/>
    </edge>
    <edge id="44482" from="29" to="33" priority="3" type="highway.residential" spreadType="center" length="0.20" shape="-139.35,441.34 -121.16,439.42">
        <lane id="44482_0" index="0" disallow="pedestrian tram rail_urban rail rail_electric rail_fast ship" speed="36.11" length="0.20" width="3.50" customShape="1" shape="-132.74,442.63 -132.62,442.47"/>
    </edge>
    <edge id="44484" from="32" to="33" priority="3" type="highway.residential" spreadType="center" length="0.20" shape="-116.79,427.28 -119.48,441.69">
        <lane id="44484_0" index="0" disallow="pedestrian tram rail_urban rail rail_electric rail_fast ship" speed="36.11" length="0.20" width="3.48" customShape="1" shape="-120.24,431.95 -120.37,432.10"/>
    </edge>
    <edge id="44485" from="33" to="32" priority="3" type="highway.residential" spreadType="center" length="0.20" shape="-122.89,441.05 -120.22,426.64">
        <lane id="44485_0" index="0" disallow="pedestrian tram rail_urban rail rail_electric rail_fast ship" speed="36.11" length="0.20" width="3.49" customShape="1" shape="-123.04,429.91 -122.92,429.75"/>
    </edge>
    <edge id="44788" from="29" to="30" priority="3" type="highway.residential" spreadType="center" length="14.56">
        <lane id="44788_0" index="0" disallow="pedestrian tram rail_urban rail rail_electric rail_fast ship" speed="36.11" length="14.56" width="3.50" customShape="1" shape="-131.39,452.17 -131.26,452.58 -130.22,454.58 -128.57,456.88 -126.30,459.39 -122.97,462.45 -122.10,463.18"/>
    </edge>
    <edge id="45128" from="29" to="30" priority="3" type="highway.residential" spreadType="center" length="6.70">
        <lane id="45128_0" index="0" disallow="pedestrian tram rail_urban rail rail_electric rail_fast ship" speed="36.11" length="6.73" width="3.50" customShape="1" shape="-127.33,458.94 -123.69,461.87 -122.10,463.18"/>
        <lane id="45128_1" index="1" disallow="pedestrian tram rail_urban rail rail_electric rail_fast ship" speed="36.11" length="6.70" width="3.50" customShape="1" shape="-129.52,461.66 -125.91,464.58 -124.32,465.88"/>
    </edge>
    <edge id="45176" from="31" to="6" priority="3" type="highway.residential" spreadType="center" length="30.24" shape="-171.01,414.09 -138.13,406.62">
        <lane id="45176_0" index="0" disallow="pedestrian tram rail_urban rail rail_electric rail_fast ship" speed="36.11" length="30.24" width="3.50" customShape="1" shape="-166.46,408.03 -166.37,407.93 -166.26,407.80 -164.53,405.89 -162.55,404.12 -160.35,402.62 -159.11,401.97 -157.84,401.44 -156.51,401.03 -155.16,400.74 -153.78,400.58 -152.39,400.55 -151.02,400.64 -149.67,400.84 -148.33,401.15 -145.84,402.00 -143.46,403.11 -141.21,404.43 -139.80,405.44"/>
    </edge>

    <junction id="16" type="dead_end" x="-50.20" y="475.43" incLanes="44326_0" intLanes="" shape="-49.13,474.05 -51.28,476.80" rightOfWay="edgePriority"/>
    <junction id="19" type="dead_end" x="-60.79" y="487.92" incLanes="44405_0" intLanes="" shape="-59.67,486.58 -61.92,489.26" rightOfWay="edgePriority"/>
    <junction id="25" type="dead_end" x="-52.34" y="478.19" incLanes="" intLanes="" shape="-51.27,476.82 -53.42,479.57" rightOfWay="edgePriority"/>
    <junction id="26" type="dead_end" x="-63.04" y="490.60" incLanes="" intLanes="" shape="-61.91,489.26 -64.16,491.95" rightOfWay="edgePriority"/>
    <junction id="27" type="priority" x="-140.26" y="409.40" incLanes="44330_0" intLanes=":27_0_0" shape="-139.64,412.10 -137.48,409.35 -140.99,406.73 -143.02,409.58" rightOfWay="edgePriority">
        <request index="0" response="0" foes="0" cont="0"/>
    </junction>
    <junction id="29" type="priority" x="-139.17" y="443.08" incLanes="44481_0 44342_0 44342_1" intLanes=":29_0_0 :29_1_0 :29_2_0 :29_2_1" shape="-130.62,463.03 -126.23,457.57 -128.44,455.73 -130.11,454.37 -131.68,453.14 -132.81,452.36 -133.17,452.35 -129.60,451.98 -127.86,444.90 -133.51,440.75 -158.34,431.72 -162.72,437.18">
        <request index="0" response="0000" foes="0000" cont="0"/>
        <request index="1" response="0000" foes="0000" cont="0"/>
        <request index="2" response="0000" foes="0000" cont="0"/>
        <request index="3" response="0000" foes="0000" cont="0"/>
    </junction>
    <junction id="30" type="dead_end" x="-122.65" y="463.85" incLanes="45128_0 45128_1 44788_0" intLanes="" shape="-120.99,461.82 -125.43,467.23 -120.97,461.84 -123.22,464.52"/>
    <junction id="31" type="priority" x="-170.54" y="415.78" incLanes="44333_0 44339_0 44339_1" intLanes=":31_0_0 :31_1_0 :31_2_0 :31_2_1" shape="-163.29,436.72 -158.91,431.26 -162.34,428.03 -164.63,424.77 -165.78,421.46 -165.79,418.13 -164.66,414.76 -162.39,411.35 -167.81,406.93 -170.55,410.10 -172.98,412.55 -175.10,414.28 -176.92,415.28 -178.44,415.55 -179.64,415.09 -183.92,420.63">
        <request index="0" response="1100" foes="1100" cont="0"/>
        <request index="1" response="0000" foes="0000" cont="0"/>
        <request index="2" response="0000" foes="0001" cont="0"/>
        <request index="3" response="0000" foes="0001" cont="0"/>
    </junction>
    <junction id="32" type="priority" x="-118.50" y="426.96" incLanes="44327_0 44329_0 44485_0" intLanes=":32_0_0 :32_1_0 :32_2_0 :32_3_0 :32_4_0 :32_5_0" shape="-108.57,436.42 -104.25,430.91 -125.77,414.07 -130.08,419.58 -124.54,428.99 -119.31,433.53">
        <request index="0" response="000000" foes="001000" cont="0"/>
        <request index="1" response="000000" foes="111000" cont="0"/>
        <request index="2" response="000000" foes="100000" cont="0"/>
        <request index="3" response="000011" foes="100011" cont="0"/>
        <request index="4" response="000010" foes="000010" cont="0"/>
        <request index="5" response="001110" foes="001110" cont="0"/>
    </junction>
    <junction id="33" type="priority" x="-121.15" y="441.17" incLanes="44404_0 44484_0 44482_0" intLanes=":33_0_0 :33_1_0 :33_2_0 :33_3_0 :33_4_0 :33_5_0" shape="-112.50,451.26 -107.96,445.93 -111.79,442.56 -114.80,439.65 -116.98,437.22 -118.35,435.25 -118.89,433.75 -118.61,432.73 -124.12,428.45 -134.64,442.24 -129.11,446.52 -127.43,445.08 -125.31,444.53 -122.76,444.87 -119.78,446.11 -116.36,448.24">
        <request index="0" response="000000" foes="001000" cont="0"/>
        <request index="1" response="110000" foes="111000" cont="0"/>
        <request index="2" response="100000" foes="100000" cont="0"/>
        <request index="3" response="100011" foes="100011" cont="0"/>
        <request index="4" response="000000" foes="000010" cont="0"/>
        <request index="5" response="000000" foes="001110" cont="0"/>
    </junction>
    <junction id="4" type="dead_end" x="-246.09" y="367.01" incLanes="" intLanes="" shape="-248.31,369.71 -243.86,364.31" rightOfWay="edgePriority"/>
    <junction id="6" type="priority" x="-138.13" y="406.62" incLanes="45176_0" intLanes=":6_0_0" shape="-137.60,409.26 -135.44,406.50 -138.78,404.01 -140.81,406.86" rightOfWay="edgePriority">
        <request index="0" response="0" foes="0" cont="0"/>
    </junction>

    <connection from="44327" to="44484" fromLane="0" toLane="0" contPos="-4.00" shape="-107.47,435.05 -109.90,433.27 -111.58,432.18 -112.46,431.68 -113.35,431.22 -114.27,430.81 -115.21,430.48 -116.19,430.25 -117.19,430.17 -118.18,430.32 -119.08,430.75 -119.80,431.44" via=":32_0_0" dir="r" state="M"/>
    <connection from="44327" to="44330" fromLane="0" toLane="0" contPos="-4.00" shape="-107.47,435.05 -118.23,426.64 -129.00,418.20" via=":32_1_0" dir="s" state="M"/>
    <connection from="44329" to="44326" fromLane="0" toLane="0" contPos="-4.00" shape="-126.83,415.46 -116.07,423.88 -105.33,432.29" via=":32_2_0" dir="s" state="M"/>
    <connection from="44329" to="44484" fromLane="0" toLane="0" contPos="-4.00" shape="-126.83,415.46 -123.66,418.18 -121.72,420.17 -120.84,421.25 -120.03,422.39 -119.34,423.59 -118.79,424.87 -118.44,426.21 -118.35,427.60 -118.56,428.97 -119.06,430.27 -119.80,431.44" via=":32_3_0" dir="l" state="m"/>
    <connection from="44330" to="44333" fromLane="0" toLane="0" contPos="-4.00" via=":27_0_0" dir="r" state="M"/>
    <connection from="44333" to="44342" fromLane="0" toLane="0" contPos="-4.00" shape="-163.74,410.24 -165.47,412.64 -166.58,414.72 -167.20,416.37 -167.58,418.10 -167.71,419.86 -167.55,421.62 -167.13,423.33 -166.20,425.50 -164.96,427.50 -163.08,429.77 -160.96,431.81 -159.60,432.95" via=":31_0_0" dir="r" state="m"/>
    <connection from="44339" to="45176" fromLane="0" toLane="0" contPos="-4.00" shape="-190.18,409.13 -187.35,411.11 -184.84,412.51 -182.71,413.39 -180.49,414.00 -178.21,414.26 -176.49,414.19 -174.79,413.87 -173.16,413.32 -171.12,412.26 -169.26,410.90 -167.20,408.90 -166.46,408.03" via=":31_1_0" dir="r" state="M"/>
    <connection from="44339" to="44342" fromLane="0" toLane="0" contPos="-4.00" shape="-190.18,409.13 -160.43,432.29 -159.60,432.95" via=":31_2_0" dir="s" state="M"/>
    <connection from="44339" to="44342" fromLane="1" toLane="1" contPos="-4.00" shape="-192.32,411.91 -162.61,435.03 -161.79,435.68" via=":31_2_1" dir="s" state="M"/>
    <connection from="44342" to="44482" fromLane="0" toLane="0" contPos="-4.00" shape="-152.39,438.75 -148.73,441.50 -145.35,443.63 -142.78,444.88 -140.61,445.60 -138.92,445.88 -137.21,445.82 -136.10,445.54 -135.08,445.04 -134.17,444.35 -133.41,443.51" via=":29_1_0" dir="r" state="M"/>
    <connection from="44342" to="45128" fromLane="0" toLane="0" contPos="-4.00" via=":29_2_0" dir="s" state="M"/>
    <connection from="44342" to="45128" fromLane="1" toLane="1" contPos="-4.00" via=":29_2_1" dir="s" state="M"/>
    <connection from="44404" to="44481" fromLane="0" toLane="0" contPos="-4.00" shape="-111.39,449.91 -112.27,449.16 -115.00,447.02 -117.85,445.12 -119.79,444.07 -121.82,443.23 -122.81,442.94 -123.81,442.73 -124.80,442.63 -125.75,442.64 -126.67,442.79 -127.53,443.06 -128.35,443.47 -129.11,444.00 -129.82,444.66 -130.49,445.45" via=":33_0_0" dir="r" state="M"/>
    <connection from="44404" to="44485" fromLane="0" toLane="0" contPos="-4.00" shape="-111.39,449.91 -115.12,446.51 -117.77,443.82 -120.22,440.94 -121.68,438.88 -122.90,436.68 -123.37,435.51 -123.70,434.30 -123.85,433.05 -123.76,431.80 -123.38,430.60 -122.74,429.51" via=":33_1_0" dir="l" state="m"/>
    <connection from="44481" to="44788" fromLane="0" toLane="0" contPos="-4.00" via=":29_0_0" dir="r" state="M"/>
    <connection from="44482" to="44485" fromLane="0" toLane="0" contPos="-4.00" shape="-133.25,443.30 -128.00,436.41 -122.74,429.51" via=":33_4_0" dir="r" state="M"/>
    <connection from="44482" to="44405" fromLane="0" toLane="0" contPos="-4.00" shape="-133.25,443.30 -132.40,442.28 -131.44,441.36 -130.39,440.56 -129.23,439.91 -127.99,439.43 -126.70,439.14 -125.37,439.03 -124.05,439.09 -122.74,439.30 -121.45,439.63 -118.97,440.57 -116.61,441.78 -113.26,443.95 -110.12,446.40 -109.10,447.26" via=":33_5_0" dir="l" state="M"/>
    <connection from="44484" to="44405" fromLane="0" toLane="0" contPos="-4.00" shape="-119.90,431.56 -120.25,432.06 -120.40,432.74 -120.35,433.53 -120.13,434.36 -119.78,435.23 -119.35,436.08 -118.23,437.85 -116.93,439.52 -114.75,441.96 -112.40,444.28 -109.10,447.26" via=":33_2_0" dir="r" state="m"/>
    <connection from="44484" to="44481" fromLane="0" toLane="0" contPos="-4.00" shape="-119.90,431.56 -125.21,438.53 -130.49,445.45" via=":33_3_0" dir="l" state="m"/>
    <connection from="44485" to="44330" fromLane="0" toLane="0" contPos="-4.00" shape="-122.58,429.32 -122.18,428.71 -121.92,427.98 -121.87,427.17 -122.02,426.32 -122.34,425.44 -122.81,424.57 -123.38,423.70 -124.04,422.85 -124.75,422.03 -126.36,420.44 -129.00,418.20" via=":32_4_0" dir="r" state="m"/>
    <connection from="44485" to="44326" fromLane="0" toLane="0" contPos="-4.00" shape="-122.58,429.32 -121.48,428.18 -120.07,427.29 -118.49,426.81 -116.94,426.71 -115.48,426.86 -114.13,427.20 -112.86,427.65 -111.66,428.19 -110.49,428.79 -108.33,430.11 -105.33,432.29" via=":32_5_0" dir="l" state="m"/>
    <connection from="45176" to="44329" fromLane="0" toLane="0" contPos="-4.00" via=":6_0_0" dir="l" state="M"/>

    <connection from=":27_0" to="44333" fromLane="0" toLane="0" dir="r" state="M"/>
    <connection from=":29_0" to="44788" fromLane="0" toLane="0" dir="r" state="M"/>
    <connection from=":29_1" to="44482" fromLane="0" toLane="0" dir="r" state="M"/>