<routes>
	<vehicle depart="0.1" departLane="0" departPos="47.28320317470625" departSpeed="0.31123927" id="37" type="bicycle">
		<route edges="44404 44481"/>
	</vehicle>
	<vehicle depart="0.1" departLane="0" departPos="14.64790048271627" departSpeed="1.9770874" id="31" type="passenger">
		<route edges=":33_0 44481"/>
	</vehicle>
	<vehicle depart="0.1" departLane="0" departPos="53.29118165658629" departSpeed="1.2784301" id="317" type="passenger">
		<route edges="44404 44481"/>
	</vehicle>
	<vehicle depart="0.1" departLane="0" departPos="41.64464498916901" departSpeed="1.1022198" id="318" type="passenger">
		<route edges="44404 44481"/>
	</vehicle>
	<vehicle depart="0.1" departLane="0" departPos="7.221901566822199" departSpeed="9.4230475" id="319" type="passenger">
		<route edges="44405"/>
	</vehicle>
	<vehicle depart="0.1" departLane="0" departPos="30.65899169106593" departSpeed="1.840411" id="322" type="passenger">
		<route edges="44404 44481"/>
	</vehicle>
	<vehicle depart="0.1" departLane="0" departPos="22.834356089526047" departSpeed="7.553159" id="324" type="passenger">
		<route edges=":29_1 44482 44405"/>
	</vehicle>
	<vehicle depart="0.1" departLane="0" departPos="14.415513443311026" departSpeed="0.79809277" id="327" type="passenger">
		<route edges="44404 44481"/>
	</vehicle>
	<vehicle depart="0.1" departLane="0" departPos="3.75" departSpeed="3.3562648" id="30" type="truck">
		<route edges="44788"/>
	</vehicle>
	<vehicle depart="0.1" departLane="0" departPos="65.45740386309743" departSpeed="0.39525558" id="315" type="truck">
		<route edges="44404 44481"/>
	</vehicle>
</routes>
