<routes>
	<vehicle depart="0.1" departLane="0" departPos="61.56882614705184" departSpeed="0.27969487" id="37" type="bicycle">
		<route edges="17667 17245"/>
	</vehicle>
	<vehicle depart="0.1" departLane="0" departPos="7.282007246337449" departSpeed="2.0078581" id="32" type="passenger">
		<route edges=":26_1 17245"/>
	</vehicle>
	<vehicle depart="0.1" departLane="0" departPos="9.785797972100184" departSpeed="0.91049617" id="34" type="passenger">
		<route edges=":25_0 17237"/>
	</vehicle>
	<vehicle depart="0.1" departLane="0" departPos="69.3825913974876" departSpeed="0.52931258" id="36" type="passenger">
		<route edges="17667 17669"/>
	</vehicle>
	<vehicle depart="0.1" departLane="0" departPos="17.378808172444796" departSpeed="10.111129" id="311" type="passenger">
		<route edges="17576"/>
	</vehicle>
	<vehicle depart="0.1" departLane="0" departPos="16.78171569631885" departSpeed="1.2124264" id="313" type="passenger">
		<route edges=":27_6 17576"/>
	</vehicle>
	<vehicle depart="0.1" departLane="0" departPos="18.06271744739373" departSpeed="0.8011508" id="316" type="passenger">
		<route edges=":26_1 17245 17236 17619"/>
	</vehicle>
	<vehicle depart="0.1" departLane="0" departPos="61.271843336549956" departSpeed="0.70600373" id="320" type="passenger">
		<route edges="17667 17245"/>
	</vehicle>
	<vehicle depart="0.1" departLane="0" departPos="45.60791612737975" departSpeed="1.4986253" id="325" type="passenger">
		<route edges="17667 17245"/>
	</vehicle>
	<vehicle depart="0.1" departLane="0" departPos="6.913308046027869" departSpeed="1.4398681" id="314" type="truck">
		<route edges=":27_0 17576"/>
	</vehicle>
</routes>
