<routes>
	<vehicle depart="0.1" departLane="0" departPos="19.316122310699672" departSpeed="0.089171566" id="39" type="bicycle">
		<route edges="14942 14727"/>
	</vehicle>
	<vehicle depart="0.1" departLane="0" departPos="33.418643400731355" departSpeed="6.0391726" id="311" type="bicycle">
		<route edges="14943 14543"/>
	</vehicle>
	<vehicle depart="0.1" departLane="0" departPos="23.96281748797801" departSpeed="5.7802876" id="33" type="passenger">
		<route edges=":22_1 14687"/>
	</vehicle>
	<vehicle depart="0.1" departLane="0" departPos="10.332583094289824" departSpeed="0.05366375" id="313" type="passenger">
		<route edges="14942 14727"/>
	</vehicle>
	<vehicle depart="0.1" departLane="0" departPos="4.711106487159778" departSpeed="5.9352297" id="315" type="passenger">
		<route edges=":22_1 14687"/>
	</vehicle>
	<vehicle depart="0.1" departLane="0" departPos="2.5" departSpeed="0.2106516" id="321" type="passenger">
		<route edges="14942 14727"/>
	</vehicle>
	<vehicle depart="0.1" departLane="0" departPos="17.887748704982265" departSpeed="0.0095966743" id="325" type="passenger">
		<route edges="14942 14727"/>
	</vehicle>
	<vehicle depart="0.1" departLane="0" departPos="17.552373657079002" departSpeed="4.0759961" id="328" type="passenger">
		<route edges="14943 14543"/>
	</vehicle>
	<vehicle depart="0.1" departLane="0" departPos="40.959341528382744" departSpeed="0.63910466" id="334" type="passenger">
		<route edges=":22_4 14942"/>
	</vehicle>
	<vehicle depart="0.1" departLane="0" departPos="19.302227047702182" departSpeed="0.54656926" id="340" type="passenger">
		<route edges=":22_4 14942"/>
	</vehicle>
</routes>
