<routes>
	<vehicle depart="0.1" departLane="0" departPos="9.491347232141457" departSpeed="0.0" id="39" type="passenger">
		<route edges="66491 66582"/>
	</vehicle>
	<vehicle depart="0.1" departLane="0" departPos="16.904924943403593" departSpeed="0.0" id="316" type="passenger">
		<route edges="66491 66582"/>
	</vehicle>
	<vehicle depart="0.1" departLane="0" departPos="72.49950274316463" departSpeed="0.00010913596" id="322" type="passenger">
		<route edges="66549 66491"/>
	</vehicle>
	<vehicle depart="0.1" departLane="0" departPos="59.47085078417118" departSpeed="0.02035127" id="333" type="passenger">
		<route edges="66549 66491"/>
	</vehicle>
	<vehicle depart="0.1" departLane="0" departPos="51.93664144393764" departSpeed="0.12756938" id="336" type="passenger">
		<route edges="66549 66491"/>
	</vehicle>
	<vehicle depart="0.1" departLane="0" departPos="44.05323372066314" departSpeed="0.50224109" id="339" type="passenger">
		<route edges="66549 66491"/>
	</vehicle>
	<vehicle depart="0.1" departLane="0" departPos="20.600866167797307" departSpeed="11.61023" id="340" type="passenger">
		<route edges=":37_0 67220 66548"/>
	</vehicle>
	<vehicle depart="0.1" departLane="0" departPos="25.609022132424368" departSpeed="6.277808" id="343" type="passenger">
		<route edges="66581 67220 66548"/>
	</vehicle>
	<vehicle depart="0.1" departLane="0" departPos="12.06296493723532" departSpeed="1.8878536" id="349" type="passenger">
		<route edges="66581 66494"/>
	</vehicle>
	<vehicle depart="0.1" departLane="0" departPos="64.49012306913022" departSpeed="0.0018768749" id="328" type="motorcycle">
		<route edges="66549 66491"/>
	</vehicle>
</routes>
