<routes>
	<vehicle depart="0.1" departLane="0" departPos="9.628950404887503" departSpeed="3.0910863" id="328" type="bicycle">
		<route edges=":21_1 504 507"/>
	</vehicle>
	<vehicle depart="0.1" departLane="0" departPos="15.248954621432956" departSpeed="0.0" id="39" type="passenger">
		<route edges="506 498"/>
	</vehicle>
	<vehicle depart="0.1" departLane="0" departPos="8.36385683304782" departSpeed="0.0" id="312" type="passenger">
		<route edges="506 498"/>
	</vehicle>
	<vehicle depart="0.1" departLane="0" departPos="41.42668468881634" departSpeed="0.0" id="313" type="passenger">
		<route edges="497 503"/>
	</vehicle>
	<vehicle depart="0.1" departLane="0" departPos="8.851048015285368" departSpeed="10.9682" id="317" type="passenger">
		<route edges=":23_5 507"/>
	</vehicle>
	<vehicle depart="0.1" departLane="0" departPos="34.88405677697564" departSpeed="0.0" id="319" type="passenger">
		<route edges="497 503"/>
	</vehicle>
	<vehicle depart="0.1" departLane="0" departPos="14.110261463654446" departSpeed="11.109185" id="320" type="passenger">
		<route edges="498"/>
	</vehicle>
	<vehicle depart="0.1" departLane="0" departPos="18.204338516779558" departSpeed="0.00051447702" id="322" type="passenger">
		<route edges="497 503"/>
	</vehicle>
	<vehicle depart="0.1" departLane="0" departPos="6.57765751238977" departSpeed="4.6688777" id="325" type="passenger">
		<route edges=":21_1 504 507"/>
	</vehicle>
	<vehicle depart="0.1" departLane="0" departPos="10.86522077258512" departSpeed="0.0046679689" id="326" type="passenger">
		<route edges="497 503"/>
	</vehicle>
	<vehicle depart="0.1" departLane="0" departPos="57.99096848380327" departSpeed="11.387197" id="327" type="passenger">
		<route edges="504 507"/>
	</vehicle>
	<vehicle depart="0.1" departLane="0" departPos="7.096127609336349" departSpeed="0.0" id="331" type="passenger">
		<route edges="44 504 507"/>
	</vehicle>
	<vehicle depart="0.1" departLane="0" departPos="12.042587614426564" departSpeed="4.2574024" id="333" type="passenger">
		<route edges="46 983"/>
	</vehicle>
	<vehicle depart="0.1" departLane="0" departPos="27.87518764069307" departSpeed="11.894499" id="324" type="motorcycle">
		<route edges="504 507"/>
	</vehicle>
	<vehicle depart="0.1" departLane="0" departPos="15.90354180397866" departSpeed="6.1787569" id="329" type="motorcycle">
		<route edges=":21_5 47"/>
	</vehicle>
	<vehicle depart="0.1" departLane="0" departPos="3.7827771742921215" departSpeed="0.020032125" id="330" type="motorcycle">
		<route edges="497 503"/>
	</vehicle>
	<vehicle depart="0.1" departLane="0" departPos="24.8604323758734" departSpeed="0.0" id="37" type="truck">
		<route edges="506 498"/>
	</vehicle>
	<vehicle depart="0.1" departLane="0" departPos="27.940881174040957" departSpeed="5.0538354e-05" id="321" type="truck">
		<route edges="497 503"/>
	</vehicle>
</routes>
