<routes>
	<vehicle depart="0.1" departLane="0" departPos="8.594171734339016" departSpeed="7.5588402" id="38" type="passenger">
		<route edges=":42_3 44354"/>
	</vehicle>
	<vehicle depart="0.1" departLane="0" departPos="67.51874096295607" departSpeed="0.38019088" id="310" type="passenger">
		<route edges="44576 44579"/>
	</vehicle>
	<vehicle depart="0.1" departLane="0" departPos="30.368681592675554" departSpeed="0.35668518" id="322" type="passenger">
		<route edges=":40_0 44578"/>
	</vehicle>
	<vehicle depart="0.1" departLane="1" departPos="7.80831233881516" departSpeed="0.77422936" id="323" type="passenger">
		<route edges="44354"/>
	</vehicle>
	<vehicle depart="0.1" departLane="0" departPos="20.378485655822434" departSpeed="0.96972532" id="324" type="passenger">
		<route edges=":42_7 44354"/>
	</vehicle>
	<vehicle depart="0.1" departLane="0" departPos="2.5" departSpeed="11.636151" id="354" type="passenger">
		<route edges="44575"/>
	</vehicle>
	<vehicle depart="0.1" departLane="1" departPos="46.03496057400138" departSpeed="17.673595" id="357" type="passenger">
		<route edges="44348 44351 44354"/>
	</vehicle>
</routes>
