<!-- generated on Tue Feb  9 22:22:29 2021 by Eclipse SUMO netconvert Version 1.8.0
<configuration xmlns:xsi="http://www.w3.org/2001/XMLSchema-instance" xsi:noNamespaceSchemaLocation="http://sumo.dlr.de/xsd/netconvertConfiguration.xsd">

    <input>
        <node-files value="./converted_scenarios/scenario-factory/ITA_Siderno-1_4_I-1-1/ITA_Siderno-1_4_I-1-1.nod.xml"/>
        <edge-files value="./converted_scenarios/scenario-factory/ITA_Siderno-1_4_I-1-1/ITA_Siderno-1_4_I-1-1.edg.xml"/>
        <connection-files value="./converted_scenarios/scenario-factory/ITA_Siderno-1_4_I-1-1/ITA_Siderno-1_4_I-1-1.con.xml"/>
        <tllogic-files value="./converted_scenarios/scenario-factory/ITA_Siderno-1_4_I-1-1/ITA_Siderno-1_4_I-1-1.tll.xml"/>
        <type-files value="/home/zen/commonroad-interactive-benchmarks/install/commonroad-map-tool/crmapconverter/sumo_map/templates/DEU.typ.xml"/>
    </input>

    <output>
        <output-file value="./converted_scenarios/scenario-factory/ITA_Siderno-1_4_I-1-1/ITA_Siderno-1_4_I-1-1.net.xml"/>
    </output>

    <processing>
        <geometry.remove.keep-edges.explicit value="true"/>
        <geometry.avoid-overlap value="true"/>
        <offset.disable-normalization value="true"/>
    </processing>

    <junctions>
        <no-turnarounds value="true"/>
        <junctions.internal-link-detail value="20"/>
    </junctions>

    <report>
        <aggregate-warnings value="5"/>
    </report>

    <random_number>
        <seed value="1234"/>
    </random_number>

</configuration>
--><net xmlns:xsi="http://www.w3.org/2001/XMLSchema-instance" version="1.6" junctionCornerDetail="5" junctionLinkDetail="20" limitTurnSpeed="5.50" xsi:noNamespaceSchemaLocation="http://sumo.dlr.de/xsd/net_file.xsd">

    <location netOffset="0.00,0.00" convBoundary="-45.72,496.66,114.43,647.48" origBoundary="-46.82,496.66,114.43,647.48" projParameter="!"/>

    <type id="highway.bridleway" priority="1" speed="2.78" allow="pedestrian" oneway="1" width="2.00"/>
    <type id="highway.bus_guideway" priority="1" speed="27.78" allow="bus" oneway="1"/>
    <type id="highway.cycleway" priority="1" speed="8.33" allow="bicycle" oneway="0" width="1.00"/>
    <type id="highway.footway" priority="1" speed="2.78" allow="pedestrian" oneway="1" width="2.00"/>
    <type id="highway.ford" priority="1" speed="2.78" allow="army" oneway="0"/>
    <type id="highway.living_street" priority="2" speed="2.78" disallow="tram rail_urban rail rail_electric rail_fast ship" oneway="0"/>
    <type id="highway.motorway" priority="14" speed="39.44" allow="private emergency authority army vip passenger hov taxi bus coach delivery truck trailer motorcycle evehicle custom1 custom2" oneway="1"/>
    <type id="highway.motorway_link" priority="9" speed="22.22" allow="private emergency authority army vip passenger hov taxi bus coach delivery truck trailer motorcycle evehicle custom1 custom2" oneway="1"/>
    <type id="highway.path" priority="1" speed="2.78" allow="pedestrian bicycle" oneway="0" width="2.00"/>
    <type id="highway.pedestrian" priority="1" speed="2.78" allow="pedestrian" oneway="1" width="2.00"/>
    <type id="highway.primary" priority="12" speed="27.78" disallow="pedestrian tram rail_urban rail rail_electric rail_fast ship" oneway="0"/>
    <type id="highway.primary_link" priority="7" speed="22.22" disallow="pedestrian tram rail_urban rail rail_electric rail_fast ship" oneway="0"/>
    <type id="highway.raceway" priority="15" speed="83.33" allow="vip" oneway="0"/>
    <type id="highway.residential" priority="3" speed="13.89" disallow="pedestrian tram rail_urban rail rail_electric rail_fast ship" oneway="0"/>
    <type id="highway.secondary" priority="11" speed="27.78" disallow="pedestrian tram rail_urban rail rail_electric rail_fast ship" oneway="0"/>
    <type id="highway.secondary_link" priority="6" speed="22.22" disallow="pedestrian tram rail_urban rail rail_electric rail_fast ship" oneway="0"/>
    <type id="highway.service" priority="1" speed="5.56" allow="pedestrian delivery bicycle" oneway="0"/>
    <type id="highway.stairs" priority="1" speed="1.39" allow="pedestrian" oneway="1" width="2.00"/>
    <type id="highway.step" priority="1" speed="1.39" allow="pedestrian" oneway="1" width="2.00"/>
    <type id="highway.steps" priority="1" speed="1.39" allow="pedestrian" oneway="1" width="2.00"/>
    <type id="highway.tertiary" priority="10" speed="22.22" disallow="pedestrian tram rail_urban rail rail_electric rail_fast ship" oneway="0"/>
    <type id="highway.tertiary_link" priority="5" speed="22.22" disallow="pedestrian tram rail_urban rail rail_electric rail_fast ship" oneway="0"/>
    <type id="highway.track" priority="1" speed="5.56" allow="pedestrian motorcycle moped bicycle" oneway="0"/>
    <type id="highway.trunk" priority="13" speed="27.78" disallow="pedestrian bicycle tram rail_urban rail rail_electric rail_fast ship" oneway="0"/>
    <type id="highway.trunk_link" priority="8" speed="22.22" disallow="pedestrian bicycle tram rail_urban rail rail_electric rail_fast ship" oneway="0"/>
    <type id="highway.unclassified" priority="4" speed="13.89" disallow="pedestrian tram rail_urban rail rail_electric rail_fast ship" oneway="0"/>
    <type id="highway.unsurfaced" priority="1" speed="8.33" disallow="tram rail_urban rail rail_electric rail_fast ship" oneway="0"/>
    <type id="railway.highspeed" priority="21" speed="69.44" allow="rail_fast" oneway="1"/>
    <type id="railway.light_rail" priority="19" speed="27.78" allow="rail_urban" oneway="1"/>
    <type id="railway.preserved" priority="16" speed="27.78" allow="rail" oneway="1"/>
    <type id="railway.rail" priority="20" speed="44.44" allow="rail" oneway="1"/>
    <type id="railway.subway" priority="18" speed="27.78" allow="rail_urban" oneway="1"/>
    <type id="railway.tram" priority="17" speed="13.89" allow="tram" oneway="1"/>

    <edge id=":39_0" function="internal">
        <lane id=":39_0_0" index="0" disallow="pedestrian tram rail_urban rail rail_electric rail_fast ship" speed="6.90" length="9.86" width="3.50" shape="20.74,573.09 19.70,574.52 19.19,575.59 18.88,576.72 18.79,577.90 18.92,579.07 19.44,580.75 20.19,582.18"/>
    </edge>
    <edge id=":39_1" function="internal">
        <lane id=":39_1_0" index="0" disallow="pedestrian tram rail_urban rail rail_electric rail_fast ship" speed="6.65" length="9.09" width="3.50" shape="9.68,571.65 11.35,572.25 13.01,572.57 14.70,572.57 15.80,572.33 16.82,571.86 17.72,571.18 18.11,570.78"/>
    </edge>
    <edge id=":39_2" function="internal">
        <lane id=":39_2_0" index="0" disallow="pedestrian tram rail_urban rail rail_electric rail_fast ship" speed="36.11" length="14.76" width="3.50" shape="8.73,572.82 10.18,574.03 17.97,580.94 19.75,582.63"/>
        <lane id=":39_2_1" index="1" disallow="pedestrian tram rail_urban rail rail_electric rail_fast ship" speed="36.11" length="14.41" width="3.50" shape="6.53,575.53 7.86,576.65 15.56,583.48 17.29,585.11"/>
    </edge>
    <edge id=":40_0" function="internal">
        <lane id=":40_0_0" index="0" disallow="pedestrian tram rail_urban rail rail_electric rail_fast ship" speed="11.62" length="29.71" width="3.50" shape="74.00,578.73 72.21,577.32 70.34,576.11 68.39,575.10 66.36,574.35 64.23,573.90 63.21,573.80 62.15,573.79 61.09,573.85 60.07,574.00 57.97,574.54 55.96,575.38 54.03,576.45 52.19,577.73 50.45,579.15 47.97,581.55"/>
    </edge>
    <edge id=":40_1" function="internal">
        <lane id=":40_1_0" index="0" disallow="pedestrian tram rail_urban rail rail_electric rail_fast ship" speed="36.11" length="32.52" width="3.50" shape="74.00,578.73 57.85,565.32 48.86,558.10"/>
    </edge>
    <edge id=":40_2" function="internal">
        <lane id=":40_2_0" index="0" disallow="pedestrian tram rail_urban rail rail_electric rail_fast ship" speed="36.11" length="32.61" width="3.50" shape="51.03,555.36 60.06,562.60 76.24,576.04"/>
    </edge>
    <edge id=":40_3" function="internal">
        <lane id=":40_3_0" index="0" disallow="pedestrian tram rail_urban rail rail_electric rail_fast ship" speed="11.21" length="30.49" width="3.50" shape="51.04,555.35 52.97,557.12 53.88,558.17 54.67,559.31 55.35,560.53 55.88,561.85 56.24,563.22 56.42,564.63 56.44,566.03 56.30,567.40 56.03,568.74 55.66,570.03 55.18,571.29 54.05,573.59 52.70,575.77 50.44,578.77 47.97,581.55"/>
    </edge>
    <edge id=":40_4" function="internal">
        <lane id=":40_4_0" index="0" disallow="pedestrian tram rail_urban rail rail_electric rail_fast ship" speed="10.08" length="24.60" width="3.50" shape="45.42,579.15 47.57,576.75 49.52,574.20 50.67,572.40 51.66,570.50 52.06,569.51 52.40,568.50 52.66,567.46 52.81,566.40 52.85,565.33 52.77,564.27 52.54,563.22 52.19,562.22 51.71,561.26 51.12,560.37 50.43,559.55 48.86,558.10"/>
    </edge>
    <edge id=":40_5" function="internal">
        <lane id=":40_5_0" index="0" disallow="pedestrian tram rail_urban rail rail_electric rail_fast ship" speed="12.59" length="35.06" width="3.50" shape="45.42,579.15 48.23,576.44 50.24,574.79 52.38,573.32 54.66,572.07 57.06,571.09 59.58,570.45 60.86,570.27 62.16,570.20 63.46,570.23 64.75,570.36 67.28,570.92 69.71,571.83 72.02,573.02 74.19,574.44 76.24,576.04"/>
    </edge>
    <edge id=":41_0" function="internal">
        <lane id=":41_0_0" index="0" disallow="pedestrian tram rail_urban rail rail_electric rail_fast ship" speed="8.75" length="16.31" width="3.50" shape="48.66,557.94 46.90,556.68 45.97,556.11 45.00,555.61 44.00,555.19 42.96,554.85 41.90,554.64 40.81,554.55 39.73,554.62 38.67,554.84 37.65,555.22 36.69,555.73 35.80,556.36 34.98,557.07 34.22,557.86"/>
    </edge>
    <edge id=":41_1" function="internal">
        <lane id=":41_1_0" index="0" disallow="pedestrian tram rail_urban rail rail_electric rail_fast ship" speed="36.11" length="32.58" width="3.50" shape="48.66,557.94 35.88,547.86 23.08,537.76"/>
    </edge>
    <edge id=":41_2" function="internal">
        <lane id=":41_2_0" index="0" disallow="pedestrian tram rail_urban rail rail_electric rail_fast ship" speed="36.11" length="32.55" width="3.50" shape="25.25,535.02 38.05,545.11 50.81,555.18"/>
    </edge>
    <edge id=":41_3" function="internal">
        <lane id=":41_3_0" index="0" disallow="pedestrian tram rail_urban rail rail_electric rail_fast ship" speed="10.81" length="27.84" width="3.50" shape="25.25,535.02 28.31,537.57 31.18,540.33 32.93,542.32 34.49,544.46 35.78,546.78 36.27,548.01 36.64,549.28 36.84,550.59 36.86,551.91 36.68,553.23 36.31,554.50 35.75,555.70 35.05,556.82 34.22,557.86"/>
    </edge>
    <edge id=":41_4" function="internal">
        <lane id=":41_4_0" index="0" disallow="pedestrian tram rail_urban rail rail_electric rail_fast ship" speed="9.64" length="22.12" width="3.50" shape="31.59,555.55 32.19,554.79 32.68,553.99 33.04,553.15 33.25,552.27 33.31,551.35 33.23,550.41 33.01,549.46 32.67,548.52 32.25,547.60 31.12,545.74 29.76,544.00 28.25,542.35 25.75,539.98 23.08,537.76"/>
    </edge>
    <edge id=":41_5" function="internal">
        <lane id=":41_5_0" index="0" disallow="pedestrian tram rail_urban rail rail_electric rail_fast ship" speed="10.07" length="21.67" width="3.50" shape="31.59,555.55 32.58,554.52 33.65,553.57 34.84,552.72 36.14,552.00 37.54,551.45 39.02,551.10 40.54,550.97 42.04,551.05 43.49,551.32 44.88,551.74 46.19,552.28 47.44,552.91 48.64,553.63 50.81,555.18"/>
    </edge>
    <edge id=":42_0" function="internal">
        <lane id=":42_0_0" index="0" disallow="pedestrian tram rail_urban rail rail_electric rail_fast ship" speed="8.99" length="17.89" width="3.50" shape="46.25,583.37 44.34,585.60 42.70,588.02 41.64,590.11 40.89,592.32 40.57,594.05 40.49,595.80 40.65,597.55 41.17,599.57"/>
    </edge>
    <edge id=":42_1" function="internal">
        <lane id=":42_1_0" index="0" disallow="pedestrian tram rail_urban rail rail_electric rail_fast ship" speed="36.11" length="39.37" width="3.50" shape="46.25,583.37 38.59,591.81 27.58,604.21 21.14,610.96 19.67,612.41"/>
    </edge>
    <edge id=":42_2" function="internal">
        <lane id=":42_2_0" index="0" disallow="pedestrian tram rail_urban rail rail_electric rail_fast ship" speed="8.89" length="18.02" width="3.50" shape="28.32,588.89 29.55,589.09 31.29,589.02 32.98,588.65 35.13,587.79 37.14,586.65 39.48,584.94 42.08,582.63 43.69,580.99"/>
    </edge>
    <edge id=":42_3" function="internal">
        <lane id=":42_3_0" index="0" disallow="pedestrian tram rail_urban rail rail_electric rail_fast ship" speed="36.11" length="16.69" width="3.50" shape="27.35,589.87 31.79,594.11 39.53,601.28"/>
        <lane id=":42_3_1" index="1" disallow="pedestrian tram rail_urban rail rail_electric rail_fast ship" speed="36.11" length="16.73" width="3.50" shape="24.89,592.37 29.38,596.65 37.11,603.80"/>
    </edge>
    <edge id=":42_5" function="internal">
        <lane id=":42_5_0" index="0" disallow="pedestrian tram rail_urban rail rail_electric rail_fast ship" speed="9.70" length="21.94" width="3.50" shape="24.38,592.88 25.36,594.75 25.95,596.40 26.29,598.12 26.38,599.87 26.21,601.61 25.80,603.31 24.93,605.47 23.78,607.50 22.05,609.85 19.67,612.41"/>
    </edge>
    <edge id=":42_6" function="internal">
        <lane id=":42_6_0" index="0" disallow="pedestrian tram rail_urban rail rail_electric rail_fast ship" speed="36.11" length="39.20" width="3.50" shape="17.23,609.91 18.66,608.48 25.05,601.79 36.02,589.43 43.69,580.99"/>
    </edge>
    <edge id=":42_7" function="internal">
        <lane id=":42_7_0" index="0" disallow="pedestrian tram rail_urban rail rail_electric rail_fast ship" speed="9.74" length="20.67" width="3.50" shape="17.23,609.91 19.39,607.98 21.76,606.30 23.81,605.20 25.98,604.38 28.25,603.89 30.57,603.77 32.88,604.03 35.12,604.63 35.98,604.98"/>
    </edge>
    <edge id=":43_0" function="internal">
        <lane id=":43_0_0" index="0" disallow="pedestrian tram rail_urban rail rail_electric rail_fast ship" speed="36.11" length="19.84" width="3.50" shape="34.05,558.05 27.48,565.47 20.90,572.91"/>
    </edge>
    <edge id=":43_1" function="internal">
        <lane id=":43_1_0" index="0" disallow="pedestrian tram rail_urban rail rail_electric rail_fast ship" speed="11.00" length="27.11" width="3.50" shape="34.05,558.05 33.07,559.02 31.93,559.87 30.66,560.55 29.29,561.01 27.88,561.25 26.49,561.29 25.14,561.17 23.85,560.92 22.57,560.56 20.25,559.64 18.05,558.50 15.97,557.22 13.04,555.13 10.25,552.87"/>
    </edge>
    <edge id=":43_2" function="internal">
        <lane id=":43_2_0" index="0" disallow="pedestrian tram rail_urban rail rail_electric rail_fast ship" speed="9.86" length="21.67" width="3.50" shape="12.53,550.21 14.93,552.17 17.43,554.00 19.16,555.12 20.97,556.12 22.85,556.97 23.83,557.31 24.83,557.57 25.85,557.74 26.88,557.80 27.90,557.71 28.91,557.46 29.84,557.03 30.69,556.44 31.43,555.73"/>
    </edge>
    <edge id=":43_3" function="internal">
        <lane id=":43_3_0" index="0" disallow="pedestrian tram rail_urban rail rail_electric rail_fast ship" speed="10.84" length="27.20" width="3.50" shape="12.53,550.21 15.55,552.95 18.37,555.91 20.07,558.03 21.55,560.31 22.18,561.51 22.71,562.77 23.12,564.06 23.38,565.40 23.45,566.76 23.32,568.11 22.99,569.43 22.45,570.68 21.74,571.84 20.90,572.91"/>
    </edge>
    <edge id=":43_4" function="internal">
        <lane id=":43_4_0" index="0" disallow="pedestrian tram rail_urban rail rail_electric rail_fast ship" speed="9.72" length="21.65" width="3.50" shape="18.26,570.62 18.87,569.84 19.35,569.01 19.69,568.15 19.87,567.23 19.89,566.28 19.77,565.30 19.51,564.32 19.14,563.34 18.67,562.36 18.13,561.42 16.82,559.54 15.36,557.78 12.89,555.25 10.25,552.87"/>
    </edge>
    <edge id=":43_5" function="internal">
        <lane id=":43_5_0" index="0" disallow="pedestrian tram rail_urban rail rail_electric rail_fast ship" speed="36.11" length="19.88" width="3.50" shape="18.26,570.62 24.86,563.16 31.43,555.73"/>
    </edge>

    <edge id="44348" from="35" to="39" priority="3" type="highway.residential" spreadType="center" length="68.91">
        <lane id="44348_0" index="0" disallow="pedestrian tram rail_urban rail rail_electric rail_fast ship" speed="36.11" length="68.91" width="3.50" customShape="1" shape="-44.61,529.19 -22.41,547.27 8.83,572.70"/>
        <lane id="44348_1" index="1" disallow="pedestrian tram rail_urban rail rail_electric rail_fast ship" speed="36.11" length="68.92" width="3.50" customShape="1" shape="-46.82,531.90 -24.62,549.98 6.62,575.42"/>
    </edge>
    <edge id="44351" from="39" to="42" priority="3" type="highway.residential" spreadType="center" length="10.49">
        <lane id="44351_0" index="0" disallow="pedestrian tram rail_urban rail rail_electric rail_fast ship" speed="36.11" length="10.49" width="3.50" customShape="1" shape="19.81,582.56 23.34,586.04 27.26,589.95"/>
        <lane id="44351_1" index="1" disallow="pedestrian tram rail_urban rail rail_electric rail_fast ship" speed="36.11" length="10.51" width="3.50" customShape="1" shape="17.36,585.04 20.88,588.53 24.85,592.41"/>
    </edge>
    <edge id="44354" from="42" to="32" priority="3" type="highway.residential" spreadType="center" length="54.73">
        <lane id="44354_0" index="0" disallow="pedestrian tram rail_urban rail rail_electric rail_fast ship" speed="36.11" length="54.78" width="3.50" customShape="1" shape="39.71,601.10 60.24,621.04 78.72,639.56"/>
        <lane id="44354_1" index="1" disallow="pedestrian tram rail_urban rail rail_electric rail_fast ship" speed="36.11" length="54.73" width="3.50" customShape="1" shape="37.28,603.62 57.78,623.53 76.25,642.04"/>
    </edge>
    <edge id="44407" from="43" to="16" priority="3" type="highway.residential" spreadType="center" length="57.35" shape="20.13,561.43 -33.38,515.65">
        <lane id="44407_0" index="0" disallow="pedestrian tram rail_urban rail rail_electric rail_fast ship" speed="36.11" length="57.35" width="3.50" customShape="1" shape="10.25,552.87 -11.56,534.26 -33.38,515.65"/>
    </edge>
    <edge id="44408" from="34" to="43" priority="3" type="highway.residential" spreadType="center" length="57.35" shape="-31.10,512.99 22.40,558.77">
        <lane id="44408_0" index="0" disallow="pedestrian tram rail_urban rail rail_electric rail_fast ship" speed="36.11" length="57.35" width="3.50" customShape="1" shape="-31.10,512.99 -9.29,531.60 12.53,550.21"/>
    </edge>
    <edge id="44475" from="43" to="39" priority="3" type="highway.residential" spreadType="center" length="0.25" shape="22.91,560.55 17.09,574.47">
        <lane id="44475_0" index="0" disallow="pedestrian tram rail_urban rail rail_electric rail_fast ship" speed="36.11" length="0.25" width="3.50" customShape="1" shape="20.90,572.91 20.82,573.00 20.73,573.10"/>
    </edge>
    <edge id="44476" from="39" to="43" priority="3" type="highway.residential" spreadType="center" length="0.25" shape="13.86,573.12 19.71,559.21">
        <lane id="44476_0" index="0" disallow="pedestrian tram rail_urban rail rail_electric rail_fast ship" speed="36.11" length="0.25" width="3.50" customShape="1" shape="18.11,570.78 18.28,570.59"/>
    </edge>
    <edge id="44478" from="41" to="43" priority="3" type="highway.residential" spreadType="center" length="0.28" shape="36.62,551.31 22.10,561.59">
        <lane id="44478_0" index="0" disallow="pedestrian tram rail_urban rail rail_electric rail_fast ship" speed="36.11" length="0.28" width="3.50" customShape="1" shape="34.22,557.86 34.14,557.95 34.03,558.07"/>
    </edge>
    <edge id="44479" from="43" to="41" priority="3" type="highway.residential" spreadType="center" length="0.25" shape="20.09,558.75 34.59,548.46">
        <lane id="44479_0" index="0" disallow="pedestrian tram rail_urban rail rail_electric rail_fast ship" speed="36.11" length="0.25" width="3.50" customShape="1" shape="31.43,555.73 31.52,555.63 31.60,555.54"/>
    </edge>
    <edge id="44512" from="41" to="28" priority="3" type="highway.residential" spreadType="center" length="61.86" shape="34.49,551.23 -25.46,499.41">
        <lane id="44512_0" index="0" disallow="pedestrian tram rail_urban rail rail_electric rail_fast ship" speed="36.11" length="61.86" width="3.50" customShape="1" shape="23.08,537.76 -1.18,518.59 -25.46,499.41"/>
    </edge>
    <edge id="44513" from="36" to="41" priority="3" type="highway.residential" spreadType="center" length="61.88" shape="-23.29,496.66 36.78,548.59">
        <lane id="44513_0" index="0" disallow="pedestrian tram rail_urban rail rail_electric rail_fast ship" speed="36.11" length="61.88" width="3.50" customShape="1" shape="-23.29,496.66 0.99,515.85 25.26,535.02"/>
    </edge>
    <edge id="44515" from="40" to="41" priority="3" type="highway.residential" spreadType="center" length="0.27" shape="56.03,572.73 34.30,551.05">
        <lane id="44515_0" index="0" disallow="pedestrian tram rail_urban rail rail_electric rail_fast ship" speed="36.11" length="0.27" width="3.50" customShape="1" shape="48.86,558.10 48.76,558.02 48.65,557.93"/>
    </edge>
    <edge id="44516" from="41" to="40" priority="3" type="highway.residential" spreadType="center" length="0.33" shape="36.77,548.58 58.50,570.25">
        <lane id="44516_0" index="0" disallow="pedestrian tram rail_urban rail rail_electric rail_fast ship" speed="36.11" length="0.33" width="3.50" customShape="1" shape="50.81,555.18 50.93,555.27 51.07,555.38"/>
    </edge>
    <edge id="44518" from="37" to="40" priority="3" type="highway.residential" spreadType="center" length="49.99" shape="112.16,610.98 56.24,572.91">
        <lane id="44518_0" index="0" disallow="pedestrian tram rail_urban rail rail_electric rail_fast ship" speed="36.11" length="49.99" width="3.50" customShape="1" shape="112.16,610.98 93.08,594.85 73.98,578.71"/>
    </edge>
    <edge id="44519" from="40" to="9" priority="3" type="highway.residential" spreadType="center" length="50.00" shape="58.21,570.02 114.43,608.32">
        <lane id="44519_0" index="0" disallow="pedestrian tram rail_urban rail rail_electric rail_fast ship" speed="36.11" length="50.00" width="3.50" customShape="1" shape="76.24,576.04 95.34,592.18 114.43,608.32"/>
    </edge>
    <edge id="44575" from="42" to="30" priority="3" type="highway.residential" spreadType="center" length="70.00" shape="33.91,598.31 -40.68,647.48">
        <lane id="44575_0" index="0" disallow="pedestrian tram rail_urban rail rail_electric rail_fast ship" speed="36.11" length="70.00" width="3.50" customShape="1" shape="19.67,612.41 17.45,614.50 13.94,617.40 10.61,619.71 6.66,621.98 0.28,625.08 -6.11,628.16 -20.34,635.92 -37.98,645.87 -40.68,647.48"/>
    </edge>
    <edge id="44576" from="38" to="42" priority="3" type="highway.residential" spreadType="center" length="70.06" shape="-43.18,644.89 31.98,595.39">
        <lane id="44576_0" index="0" disallow="pedestrian tram rail_urban rail rail_electric rail_fast ship" speed="36.11" length="70.06" width="3.50" customShape="1" shape="-43.18,644.89 -39.93,642.96 -22.32,633.01 -8.09,625.24 -1.68,622.13 4.63,619.09 8.47,616.92 11.67,614.73 15.08,611.93 17.27,609.87"/>
    </edge>
    <edge id="44578" from="40" to="42" priority="3" type="highway.residential" spreadType="center" length="2.53" shape="58.52,572.70 34.11,598.14">
        <lane id="44578_0" index="0" disallow="pedestrian tram rail_urban rail rail_electric rail_fast ship" speed="36.11" length="2.53" width="3.50" customShape="1" shape="47.97,581.55 47.11,582.46 46.24,583.39"/>
    </edge>
    <edge id="44579" from="42" to="40" priority="3" type="highway.residential" spreadType="center" length="2.54" shape="31.59,595.72 56.00,570.28">
        <lane id="44579_0" index="0" disallow="pedestrian tram rail_urban rail rail_electric rail_fast ship" speed="36.11" length="2.54" width="3.50" customShape="1" shape="43.69,580.99 44.57,580.06 45.43,579.14"/>
    </edge>

    <junction id="16" type="dead_end" x="-33.38" y="515.65" incLanes="44407_0" intLanes="" shape="-34.52,516.99 -32.24,514.32" rightOfWay="edgePriority"/>
    <junction id="28" type="dead_end" x="-25.46" y="499.41" incLanes="44512_0" intLanes="" shape="-26.55,500.78 -24.38,498.04" rightOfWay="edgePriority"/>
    <junction id="30" type="dead_end" x="-40.68" y="647.48" incLanes="44575_0" intLanes="" shape="-39.79,648.98 -41.58,645.97" rightOfWay="edgePriority"/>
    <junction id="32" type="dead_end" x="77.48" y="640.80" incLanes="44354_0 44354_1" intLanes="" shape="79.96,638.33 75.01,643.27" rightOfWay="edgePriority"/>
    <junction id="34" type="dead_end" x="-31.10" y="512.99" incLanes="" intLanes="" shape="-32.24,514.33 -29.97,511.66" rightOfWay="edgePriority"/>
    <junction id="35" type="dead_end" x="-45.72" y="530.55" incLanes="" intLanes="" shape="-47.93,533.26 -43.51,527.83" rightOfWay="edgePriority"/>
    <junction id="36" type="dead_end" x="-23.29" y="496.66" incLanes="" intLanes="" shape="-24.38,498.04 -22.21,495.29" rightOfWay="edgePriority"/>
    <junction id="37" type="dead_end" x="112.16" y="610.98" incLanes="" intLanes="" shape="113.29,609.65 111.03,612.32" rightOfWay="edgePriority"/>
    <junction id="38" type="dead_end" x="-43.18" y="644.89" incLanes="" intLanes="" shape="-42.29,646.39 -44.08,643.39" rightOfWay="edgePriority"/>
    <junction id="39" type="priority" x="15.48" y="573.79" incLanes="44475_0 44348_0 44348_1" intLanes=":39_0_0 :39_1_0 :39_2_0 :39_2_1" shape="16.13,586.28 21.04,581.32 19.89,579.29 19.87,578.15 20.22,576.93 20.94,575.64 22.04,574.26 16.80,569.62 14.36,571.70 13.20,572.18 12.07,572.28 10.98,572.00 9.93,571.35 5.51,576.77 7.87,578.69 9.60,580.12 11.00,581.33 12.36,582.59 13.98,584.15">
        <request index="0" response="1100" foes="1100" cont="0"/>
        <request index="1" response="0000" foes="0000" cont="0"/>
        <request index="2" response="0000" foes="0001" cont="0"/>
        <request index="3" response="0000" foes="0001" cont="0"/>
    </junction>
    <junction id="40" type="priority" x="57.26" y="571.49" incLanes="44518_0 44516_0 44579_0" intLanes=":40_0_0 :40_1_0 :40_2_0 :40_3_0 :40_4_0 :40_5_0" shape="72.85,580.05 77.37,574.70 52.12,553.98 47.78,559.47 49.88,561.73 50.90,564.31 50.83,567.22 49.69,570.47 47.46,574.05 44.15,577.95 49.24,582.76 53.20,579.18 57.15,576.85 61.09,575.77 65.02,575.95 68.94,577.37">
        <request index="0" response="000000" foes="001000" cont="0"/>
        <request index="1" response="000000" foes="111000" cont="0"/>
        <request index="2" response="000000" foes="100000" cont="0"/>
        <request index="3" response="000011" foes="100011" cont="0"/>
        <request index="4" response="000010" foes="000010" cont="0"/>
        <request index="5" response="001110" foes="001110" cont="0"/>
    </junction>
    <junction id="41" type="priority" x="35.61" y="549.88" incLanes="44515_0 44513_0 44479_0" intLanes=":41_0_0 :41_1_0 :41_2_0 :41_3_0 :41_4_0 :41_5_0" shape="47.58,559.31 51.89,553.80 26.34,533.64 22.00,539.14 25.81,542.39 28.65,545.36 30.52,548.04 31.42,550.44 31.34,552.55 30.30,554.38 35.53,559.02 37.20,557.52 39.00,556.64 40.94,556.38 43.02,556.74 45.23,557.72">
        <request index="0" response="000000" foes="001000" cont="0"/>
        <request index="1" response="000000" foes="111000" cont="0"/>
        <request index="2" response="000000" foes="100000" cont="0"/>
        <request index="3" response="000011" foes="100011" cont="0"/>
        <request index="4" response="000010" foes="000010" cont="0"/>
        <request index="5" response="001110" foes="001110" cont="0"/>
    </junction>
    <junction id="42" type="priority" x="32.91" y="596.87" incLanes="44578_0 44351_0 44351_1 44576_0" intLanes=":42_0_0 :42_1_0 :42_2_0 :42_3_0 :42_3_1 :42_5_0 :42_6_0 :42_7_0" shape="36.07,604.88 40.92,599.84 39.84,596.38 40.53,594.04 42.03,591.30 44.36,588.15 47.51,584.59 42.42,579.78 38.95,583.30 35.94,586.00 33.39,587.89 31.30,588.97 29.67,589.24 28.49,588.71 23.62,593.66 24.60,597.10 23.78,599.39 22.08,602.07 19.51,605.14 16.07,608.59 20.87,613.69 24.71,610.22 28.04,607.56 30.83,605.69 33.10,604.62 34.85,604.35">
        <request index="0" response="00011000" foes="00011000" cont="0"/>
        <request index="1" response="00111000" foes="10111000" cont="0"/>
        <request index="2" response="00000000" foes="01000000" cont="0"/>
        <request index="3" response="00000000" foes="11000011" cont="0"/>
        <request index="4" response="00000000" foes="11000011" cont="0"/>
        <request index="5" response="00000000" foes="11000010" cont="0"/>
        <request index="6" response="00111100" foes="00111100" cont="0"/>
        <request index="7" response="00111010" foes="00111010" cont="0"/>
    </junction>
    <junction id="43" type="priority" x="21.23" y="560.07" incLanes="44478_0 44408_0 44476_0" intLanes=":43_0_0 :43_1_0 :43_2_0 :43_3_0 :43_4_0 :43_5_0" shape="35.36,559.21 30.12,554.57 28.49,555.73 26.42,556.05 23.90,555.52 20.93,554.15 17.52,551.94 13.66,548.88 9.12,554.20 12.71,557.51 15.40,560.50 17.16,563.19 18.01,565.58 17.95,567.65 16.97,569.43 22.21,574.07">
        <request index="0" response="000000" foes="001000" cont="0"/>
        <request index="1" response="110000" foes="111000" cont="0"/>
        <request index="2" response="100000" foes="100000" cont="0"/>
        <request index="3" response="100011" foes="100011" cont="0"/>
        <request index="4" response="000000" foes="000010" cont="0"/>
        <request index="5" response="000000" foes="001110" cont="0"/>
    </junction>
    <junction id="9" type="dead_end" x="114.43" y="608.32" incLanes="44519_0" intLanes="" shape="115.56,606.99 113.31,609.66" rightOfWay="edgePriority"/>

    <connection from="44348" to="44476" fromLane="0" toLane="0" contPos="-4.00" shape="-0.21,565.35 3.85,568.41 6.71,570.22 9.23,571.49 11.35,572.25 13.01,572.57 14.70,572.57 15.80,572.33 16.82,571.86 17.72,571.18 18.11,570.78" via=":39_1_0" dir="r" state="M"/>
    <connection from="44348" to="44351" fromLane="0" toLane="0" contPos="-4.00" shape="-0.21,565.35 10.18,574.03 17.97,580.94 23.26,585.96" via=":39_2_0" dir="s" state="M"/>