<!-- generated on Tue Feb  9 22:23:21 2021 by Eclipse SUMO netconvert Version 1.8.0
<configuration xmlns:xsi="http://www.w3.org/2001/XMLSchema-instance" xsi:noNamespaceSchemaLocation="http://sumo.dlr.de/xsd/netconvertConfiguration.xsd">

    <input>
        <node-files value="./converted_scenarios/scenario-factory/DEU_Guetersloh-11_4_I-1-1/DEU_Guetersloh-11_4_I-1-1.nod.xml"/>
        <edge-files value="./converted_scenarios/scenario-factory/DEU_Guetersloh-11_4_I-1-1/DEU_Guetersloh-11_4_I-1-1.edg.xml"/>
        <connection-files value="./converted_scenarios/scenario-factory/DEU_Guetersloh-11_4_I-1-1/DEU_Guetersloh-11_4_I-1-1.con.xml"/>
        <tllogic-files value="./converted_scenarios/scenario-factory/DEU_Guetersloh-11_4_I-1-1/DEU_Guetersloh-11_4_I-1-1.tll.xml"/>
        <type-files value="/home/zen/commonroad-interactive-benchmarks/install/commonroad-map-tool/crmapconverter/sumo_map/templates/DEU.typ.xml"/>
    </input>

    <output>
        <output-file value="./converted_scenarios/scenario-factory/DEU_Guetersloh-11_4_I-1-1/DEU_Guetersloh-11_4_I-1-1.net.xml"/>
    </output>

    <processing>
        <geometry.remove.keep-edges.explicit value="true"/>
        <geometry.avoid-overlap value="true"/>
        <offset.disable-normalization value="true"/>
    </processing>

    <junctions>
        <no-turnarounds value="true"/>
        <junctions.internal-link-detail value="20"/>
    </junctions>

    <report>
        <aggregate-warnings value="5"/>
    </report>

    <random_number>
        <seed value="1234"/>
    </random_number>

</configuration>
--><net xmlns:xsi="http://www.w3.org/2001/XMLSchema-instance" version="1.6" junctionCornerDetail="5" junctionLinkDetail="20" limitTurnSpeed="5.50" xsi:noNamespaceSchemaLocation="http://sumo.dlr.de/xsd/net_file.xsd">

    <location netOffset="0.00,0.00" convBoundary="-306.27,-988.29,-57.62,-574.94" origBoundary="-306.27,-988.29,-57.62,-574.94" projParameter="!"/>

    <type id="highway.bridleway" priority="1" speed="2.78" allow="pedestrian" oneway="1" width="2.00"/>
    <type id="highway.bus_guideway" priority="1" speed="27.78" allow="bus" oneway="1"/>
    <type id="highway.cycleway" priority="1" speed="8.33" allow="bicycle" oneway="0" width="1.00"/>
    <type id="highway.footway" priority="1" speed="2.78" allow="pedestrian" oneway="1" width="2.00"/>
    <type id="highway.ford" priority="1" speed="2.78" allow="army" oneway="0"/>
    <type id="highway.living_street" priority="2" speed="2.78" disallow="tram rail_urban rail rail_electric rail_fast ship" oneway="0"/>
    <type id="highway.motorway" priority="14" speed="39.44" allow="private emergency authority army vip passenger hov taxi bus coach delivery truck trailer motorcycle evehicle custom1 custom2" oneway="1"/>
    <type id="highway.motorway_link" priority="9" speed="22.22" allow="private emergency authority army vip passenger hov taxi bus coach delivery truck trailer motorcycle evehicle custom1 custom2" oneway="1"/>
    <type id="highway.path" priority="1" speed="2.78" allow="pedestrian bicycle" oneway="0" width="2.00"/>
    <type id="highway.pedestrian" priority="1" speed="2.78" allow="pedestrian" oneway="1" width="2.00"/>
    <type id="highway.primary" priority="12" speed="27.78" disallow="pedestrian tram rail_urban rail rail_electric rail_fast ship" oneway="0"/>
    <type id="highway.primary_link" priority="7" speed="22.22" disallow="pedestrian tram rail_urban rail rail_electric rail_fast ship" oneway="0"/>
    <type id="highway.raceway" priority="15" speed="83.33" allow="vip" oneway="0"/>
    <type id="highway.residential" priority="3" speed="13.89" disallow="pedestrian tram rail_urban rail rail_electric rail_fast ship" oneway="0"/>
    <type id="highway.secondary" priority="11" speed="27.78" disallow="pedestrian tram rail_urban rail rail_electric rail_fast ship" oneway="0"/>
    <type id="highway.secondary_link" priority="6" speed="22.22" disallow="pedestrian tram rail_urban rail rail_electric rail_fast ship" oneway="0"/>
    <type id="highway.service" priority="1" speed="5.56" allow="pedestrian delivery bicycle" oneway="0"/>
    <type id="highway.stairs" priority="1" speed="1.39" allow="pedestrian" oneway="1" width="2.00"/>
    <type id="highway.step" priority="1" speed="1.39" allow="pedestrian" oneway="1" width="2.00"/>
    <type id="highway.steps" priority="1" speed="1.39" allow="pedestrian" oneway="1" width="2.00"/>
    <type id="highway.tertiary" priority="10" speed="22.22" disallow="pedestrian tram rail_urban rail rail_electric rail_fast ship" oneway="0"/>
    <type id="highway.tertiary_link" priority="5" speed="22.22" disallow="pedestrian tram rail_urban rail rail_electric rail_fast ship" oneway="0"/>
    <type id="highway.track" priority="1" speed="5.56" allow="pedestrian motorcycle moped bicycle" oneway="0"/>
    <type id="highway.trunk" priority="13" speed="27.78" disallow="pedestrian bicycle tram rail_urban rail rail_electric rail_fast ship" oneway="0"/>
    <type id="highway.trunk_link" priority="8" speed="22.22" disallow="pedestrian bicycle tram rail_urban rail rail_electric rail_fast ship" oneway="0"/>
    <type id="highway.unclassified" priority="4" speed="13.89" disallow="pedestrian tram rail_urban rail rail_electric rail_fast ship" oneway="0"/>
    <type id="highway.unsurfaced" priority="1" speed="8.33" disallow="tram rail_urban rail rail_electric rail_fast ship" oneway="0"/>
    <type id="railway.highspeed" priority="21" speed="69.44" allow="rail_fast" oneway="1"/>
    <type id="railway.light_rail" priority="19" speed="27.78" allow="rail_urban" oneway="1"/>
    <type id="railway.preserved" priority="16" speed="27.78" allow="rail" oneway="1"/>
    <type id="railway.rail" priority="20" speed="44.44" allow="rail" oneway="1"/>
    <type id="railway.subway" priority="18" speed="27.78" allow="rail_urban" oneway="1"/>
    <type id="railway.tram" priority="17" speed="13.89" allow="tram" oneway="1"/>

    <edge id=":51_0" function="internal">
        <lane id=":51_0_0" index="0" disallow="pedestrian tram rail_urban rail rail_electric rail_fast ship" speed="11.37" length="28.94" width="3.50" shape="-166.39,-719.92 -166.43,-723.14 -166.68,-725.27 -167.16,-727.36 -167.90,-729.38 -168.92,-731.26 -169.54,-732.14 -170.23,-732.96 -170.99,-733.72 -171.80,-734.43 -173.57,-735.63 -175.49,-736.59 -177.51,-737.32 -179.59,-737.85 -182.77,-738.34 -183.81,-738.43"/>
    </edge>
    <edge id=":51_1" function="internal">
        <lane id=":51_1_0" index="0" disallow="pedestrian tram rail_urban rail rail_electric rail_fast ship" speed="36.11" length="38.91" width="3.50" shape="-166.39,-719.92 -165.98,-735.27 -165.58,-751.65 -165.21,-758.81"/>
    </edge>
    <edge id=":51_2" function="internal">
        <lane id=":51_2_0" index="0" disallow="pedestrian tram rail_urban rail rail_electric rail_fast ship" speed="36.11" length="38.77" width="3.50" shape="-161.72,-758.57 -162.08,-751.48 -162.48,-735.14 -162.89,-719.82"/>
    </edge>
    <edge id=":51_3" function="internal">
        <lane id=":51_3_0" index="0" disallow="pedestrian tram rail_urban rail rail_electric rail_fast ship" speed="12.32" length="34.26" width="3.50" shape="-161.72,-758.57 -161.83,-757.29 -162.38,-753.54 -163.03,-751.01 -163.95,-748.55 -165.18,-746.22 -165.95,-745.07 -166.81,-744.01 -167.76,-743.03 -168.79,-742.13 -169.90,-741.33 -171.07,-740.63 -172.29,-740.03 -173.57,-739.53 -176.10,-738.84 -178.70,-738.46 -181.28,-738.34 -183.81,-738.43"/>
    </edge>
    <edge id=":51_4" function="internal">
        <lane id=":51_4_0" index="0" disallow="pedestrian tram rail_urban rail rail_electric rail_fast ship" speed="11.31" length="28.70" width="3.50" shape="-183.59,-741.92 -181.38,-741.84 -179.17,-741.94 -176.99,-742.26 -174.87,-742.85 -173.84,-743.26 -172.85,-743.75 -171.91,-744.32 -171.01,-744.97 -170.18,-745.69 -169.42,-746.49 -168.73,-747.36 -168.12,-748.27 -167.09,-750.22 -166.33,-752.29 -165.78,-754.43 -165.30,-757.71 -165.21,-758.81"/>
    </edge>
    <edge id=":51_5" function="internal">
        <lane id=":51_5_0" index="0" disallow="pedestrian tram rail_urban rail rail_electric rail_fast ship" speed="12.36" length="34.39" width="3.50" shape="-183.59,-741.92 -182.33,-741.81 -178.70,-741.25 -176.26,-740.62 -173.88,-739.75 -171.58,-738.60 -169.46,-737.14 -168.44,-736.26 -167.52,-735.32 -166.68,-734.31 -165.91,-733.20 -164.69,-730.93 -163.80,-728.50 -163.24,-726.01 -162.94,-723.49 -162.89,-719.82"/>
    </edge>
    <edge id=":52_0" function="internal">
        <lane id=":52_0_0" index="0" disallow="pedestrian tram rail_urban rail rail_electric rail_fast ship" speed="10.90" length="29.01" width="3.50" shape="-123.75,-826.49 -126.89,-827.58 -129.06,-828.10 -131.28,-828.39 -133.51,-828.39 -134.62,-828.26 -135.72,-828.03 -136.78,-827.70 -137.81,-827.27 -138.80,-826.73 -139.72,-826.11 -140.59,-825.40 -141.39,-824.62 -142.79,-822.89 -143.96,-820.98 -144.93,-818.97 -146.06,-815.82"/>
    </edge>
    <edge id=":52_1" function="internal">
        <lane id=":52_1_0" index="0" disallow="pedestrian tram rail_urban rail rail_electric rail_fast ship" speed="13.02" length="34.99" width="3.50" shape="-123.75,-826.49 -125.96,-827.46 -129.17,-829.18 -131.24,-830.56 -133.18,-832.12 -134.97,-833.90 -136.55,-835.89 -137.86,-838.09 -138.86,-840.45 -139.53,-842.91 -139.87,-845.43 -139.92,-847.95 -139.70,-850.44 -139.01,-854.03"/>
    </edge>
    <edge id=":52_2" function="internal">
        <lane id=":52_2_0" index="0" disallow="pedestrian tram rail_urban rail rail_electric rail_fast ship" speed="12.07" length="29.95" width="3.50" shape="-135.61,-853.20 -136.22,-850.04 -136.40,-847.91 -136.36,-845.77 -136.06,-843.65 -135.49,-841.58 -134.64,-839.62 -133.53,-837.78 -132.19,-836.11 -130.67,-834.61 -128.99,-833.28 -127.20,-832.10 -124.37,-830.58 -122.44,-829.73"/>
    </edge>
    <edge id=":52_3" function="internal">
        <lane id=":52_3_0" index="0" disallow="pedestrian tram rail_urban rail rail_electric rail_fast ship" speed="36.11" length="38.82" width="3.50" shape="-135.61,-853.20 -139.91,-836.97 -144.85,-819.83 -146.06,-815.82"/>
    </edge>
    <edge id=":52_4" function="internal">
        <lane id=":52_4_0" index="0" disallow="pedestrian tram rail_urban rail rail_electric rail_fast ship" speed="36.11" length="38.63" width="3.50" shape="-149.41,-816.83 -148.21,-820.83 -143.29,-837.90 -139.01,-854.03"/>
    </edge>
    <edge id=":52_5" function="internal">
        <lane id=":52_5_0" index="0" disallow="pedestrian tram rail_urban rail rail_electric rail_fast ship" speed="11.92" length="34.94" width="3.50" shape="-149.41,-816.84 -148.09,-820.48 -146.95,-822.87 -145.55,-825.14 -143.86,-827.23 -142.85,-828.22 -141.78,-829.10 -140.61,-829.88 -139.38,-830.55 -138.08,-831.09 -136.75,-831.50 -135.38,-831.79 -133.98,-831.95 -131.30,-831.96 -128.64,-831.61 -126.07,-831.00 -122.44,-829.73"/>
    </edge>
    <edge id=":53_0" function="internal">
        <lane id=":53_0_0" index="0" disallow="pedestrian tram rail_urban rail rail_electric rail_fast ship" speed="36.11" length="36.45" width="3.50" shape="-147.81,-810.07 -153.13,-792.63 -158.44,-775.20"/>
    </edge>
    <edge id=":53_1" function="internal">
        <lane id=":53_1_0" index="0" disallow="pedestrian tram rail_urban rail rail_electric rail_fast ship" speed="8.88" length="19.20" width="3.50" shape="-147.81,-810.07 -148.82,-807.23 -150.12,-804.52 -151.43,-802.51 -153.01,-800.70 -154.39,-799.54 -155.92,-798.58 -157.57,-797.86 -159.31,-797.39 -160.47,-797.26"/>
    </edge>
    <edge id=":53_2" function="internal">
        <lane id=":53_2_0" index="0" disallow="pedestrian tram rail_urban rail rail_electric rail_fast ship" speed="8.88" length="16.16" width="3.50" shape="-161.79,-776.21 -160.97,-779.52 -160.61,-782.34 -160.60,-784.61 -160.87,-786.87 -161.47,-789.06 -162.39,-791.14 -162.84,-791.82"/>
    </edge>
    <edge id=":53_3" function="internal">
        <lane id=":53_3_0" index="0" disallow="pedestrian tram rail_urban rail rail_electric rail_fast ship" speed="36.11" length="36.45" width="3.50" shape="-161.79,-776.21 -156.47,-793.65 -151.16,-811.08"/>
    </edge>
    <edge id=":54_0" function="internal">
        <lane id=":54_0_0" index="0" disallow="pedestrian tram rail_urban rail rail_electric rail_fast ship" speed="36.11" length="38.76" width="3.50" shape="-118.54,-919.59 -120.69,-911.72 -128.32,-882.09"/>
    </edge>
    <edge id=":54_1" function="internal">
        <lane id=":54_1_0" index="0" disallow="pedestrian tram rail_urban rail rail_electric rail_fast ship" speed="11.90" length="35.79" width="3.50" shape="-118.54,-919.59 -119.86,-915.66 -120.98,-913.15 -122.36,-910.77 -123.16,-909.65 -124.04,-908.59 -125.00,-907.60 -126.04,-906.71 -127.17,-905.92 -128.37,-905.25 -129.64,-904.71 -130.95,-904.30 -132.30,-904.02 -133.66,-903.87 -135.04,-903.84 -137.78,-904.06 -140.47,-904.62 -143.10,-905.43 -145.67,-906.44"/>
    </edge>
    <edge id=":54_2" function="internal">
        <lane id=":54_2_0" index="0" disallow="pedestrian tram rail_urban rail rail_electric rail_fast ship" speed="10.88" length="29.70" width="3.50" shape="-144.29,-909.65 -142.06,-908.78 -139.80,-908.08 -137.53,-907.61 -135.23,-907.42 -134.14,-907.45 -133.05,-907.57 -131.98,-907.79 -130.95,-908.11 -129.96,-908.54 -129.03,-909.06 -128.14,-909.68 -127.31,-910.39 -126.54,-911.19 -125.83,-912.05 -125.18,-912.96 -124.01,-914.98 -123.06,-917.11 -121.91,-920.55"/>
    </edge>
    <edge id=":54_3" function="internal">
        <lane id=":54_3_0" index="0" disallow="pedestrian tram rail_urban rail rail_electric rail_fast ship" speed="13.17" length="35.25" width="3.50" shape="-144.29,-909.65 -142.06,-908.63 -138.84,-906.86 -135.80,-904.76 -133.89,-903.12 -132.15,-901.28 -130.61,-899.23 -129.35,-896.99 -128.39,-894.60 -127.78,-892.09 -127.50,-889.55 -127.53,-887.01 -127.81,-884.51 -128.32,-882.09"/>
    </edge>
    <edge id=":54_4" function="internal">
        <lane id=":54_4_0" index="0" disallow="pedestrian tram rail_urban rail rail_electric rail_fast ship" speed="12.24" length="30.29" width="3.50" shape="-131.72,-882.93 -131.28,-885.04 -131.03,-887.19 -131.02,-889.36 -131.27,-891.50 -131.80,-893.60 -132.62,-895.60 -133.71,-897.47 -135.02,-899.19 -136.52,-900.75 -138.17,-902.15 -140.85,-903.98 -143.70,-905.53 -145.67,-906.44"/>
    </edge>
    <edge id=":54_5" function="internal">
        <lane id=":54_5_0" index="0" disallow="pedestrian tram rail_urban rail rail_electric rail_fast ship" speed="36.11" length="38.88" width="3.50" shape="-131.72,-882.93 -124.07,-912.63 -121.91,-920.55"/>
    </edge>
    <edge id=":55_0" function="internal">
        <lane id=":55_0_0" index="0" disallow="pedestrian tram rail_urban rail rail_electric rail_fast ship" speed="36.11" length="38.25" width="3.50" shape="-142.00,-677.35 -167.19,-671.62 -179.26,-668.69"/>
    </edge>
    <edge id=":55_1" function="internal">
        <lane id=":55_1_0" index="0" disallow="pedestrian tram rail_urban rail rail_electric rail_fast ship" speed="11.74" length="36.11" width="3.50" shape="-142.00,-677.35 -145.90,-676.67 -148.59,-676.43 -151.31,-676.44 -154.03,-676.76 -155.43,-677.09 -156.79,-677.52 -158.11,-678.09 -159.39,-678.79 -160.58,-679.64 -161.68,-680.61 -162.66,-681.69 -163.51,-682.86 -164.24,-684.09 -164.86,-685.37 -165.37,-686.70 -166.09,-689.33 -166.53,-692.00 -166.73,-694.68"/>
    </edge>
    <edge id=":55_2" function="internal">
        <lane id=":55_2_0" index="0" disallow="pedestrian tram rail_urban rail rail_electric rail_fast ship" speed="10.71" length="29.83" width="3.50" shape="-163.24,-694.81 -163.06,-692.53 -162.69,-690.26 -162.07,-688.05 -161.65,-686.98 -161.15,-685.95 -160.56,-684.97 -159.87,-684.05 -159.09,-683.21 -158.23,-682.45 -157.28,-681.80 -156.27,-681.26 -155.21,-680.82 -154.12,-680.47 -153.00,-680.22 -150.72,-679.96 -148.42,-679.96 -146.14,-680.17 -142.75,-680.77"/>
    </edge>
    <edge id=":55_3" function="internal">
        <lane id=":55_3_0" index="0" disallow="pedestrian tram rail_urban rail rail_electric rail_fast ship" speed="13.11" length="33.65" width="3.50" shape="-163.24,-694.81 -163.22,-691.08 -163.52,-687.35 -163.93,-684.89 -164.54,-682.47 -165.38,-680.13 -166.47,-677.89 -167.84,-675.81 -169.49,-673.93 -171.37,-672.31 -173.46,-670.95 -175.70,-669.86 -178.05,-669.02 -179.26,-668.69"/>
    </edge>
    <edge id=":55_4" function="internal">
        <lane id=":55_4_0" index="0" disallow="pedestrian tram rail_urban rail rail_electric rail_fast ship" speed="12.17" length="28.85" width="3.50" shape="-180.11,-672.09 -179.09,-672.37 -177.07,-673.09 -175.18,-674.01 -173.45,-675.16 -171.90,-676.53 -170.55,-678.11 -169.43,-679.86 -168.52,-681.77 -167.82,-683.78 -167.31,-685.88 -166.97,-688.02 -166.72,-691.34 -166.73,-694.68"/>
    </edge>
    <edge id=":55_5" function="internal">
        <lane id=":55_5_0" index="0" disallow="pedestrian tram rail_urban rail rail_electric rail_fast ship" speed="36.11" length="38.36" width="3.50" shape="-180.11,-672.09 -168.00,-675.02 -142.75,-680.77"/>
    </edge>
    <edge id=":56_0" function="internal">
        <lane id=":56_0_0" index="0" disallow="pedestrian tram rail_urban rail rail_electric rail_fast ship" speed="11.75" length="35.23" width="3.50" shape="-246.04,-641.29 -246.51,-643.99 -246.70,-646.69 -246.53,-649.39 -246.29,-650.72 -245.93,-652.03 -245.44,-653.29 -244.83,-654.50 -244.10,-655.64 -243.25,-656.69 -242.30,-657.66 -241.26,-658.53 -240.16,-659.31 -237.79,-660.62 -235.28,-661.64 -232.68,-662.41 -228.70,-663.20 -226.01,-663.54"/>
    </edge>
    <edge id=":56_1" function="internal">
        <lane id=":56_1_0" index="0" disallow="pedestrian tram rail_urban rail rail_electric rail_fast ship" speed="10.73" length="29.20" width="3.50" shape="-225.65,-660.06 -228.01,-659.76 -231.52,-659.08 -233.74,-658.43 -235.87,-657.59 -237.87,-656.51 -238.75,-655.91 -239.59,-655.22 -240.35,-654.48 -241.03,-653.66 -241.62,-652.79 -242.11,-651.86 -242.51,-650.88 -242.81,-649.86 -243.01,-648.83 -243.17,-646.59 -243.02,-644.34 -242.63,-642.06"/>
    </edge>
    <edge id=":56_2" function="internal">
        <lane id=":56_2_0" index="0" disallow="pedestrian tram rail_urban rail rail_electric rail_fast ship" speed="36.11" length="38.49" width="3.50" shape="-225.65,-660.06 -231.88,-659.51 -242.26,-658.91 -252.65,-658.69 -264.10,-658.83"/>
    </edge>
    <edge id=":56_3" function="internal">
        <lane id=":56_3_0" index="0" disallow="pedestrian tram rail_urban rail rail_electric rail_fast ship" speed="36.11" length="38.00" width="3.50" shape="-263.97,-662.33 -252.67,-662.19 -242.40,-662.41 -232.15,-663.00 -226.01,-663.54"/>
    </edge>

    <edge id="77110" from="52" to="54" priority="3" type="highway.residential" spreadType="center" length="29.83" shape="-137.79,-832.79 -133.48,-903.69">
        <lane id="77110_0" index="0" disallow="pedestrian tram rail_urban rail rail_electric rail_fast ship" speed="36.11" length="29.83" width="3.50" customShape="1" shape="-139.01,-854.03 -135.36,-868.49 -131.71,-882.95"/>
    </edge>
    <edge id="77111" from="54" to="52" priority="3" type="highway.residential" spreadType="center" length="29.83" shape="-129.99,-903.48 -134.30,-832.58">
        <lane id="77111_0" index="0" disallow="pedestrian tram rail_urban rail rail_electric rail_fast ship" speed="36.11" length="29.83" width="3.50" customShape="1" shape="-128.32,-882.09 -131.97,-867.63 -135.62,-853.17"/>
    </edge>
    <edge id="77113" from="53" to="52" priority="3" type="highway.residential" spreadType="center" length="6.04" shape="-159.93,-795.25 -137.56,-833.57">
        <lane id="77113_0" index="0" disallow="pedestrian tram rail_urban rail rail_electric rail_fast ship" speed="36.11" length="6.04" width="3.50" customShape="1" shape="-151.16,-811.08 -150.29,-813.96 -149.40,-816.86"/>
    </edge>
    <edge id="77114" from="52" to="53" priority="3" type="highway.residential" spreadType="center" length="6.03" shape="-134.53,-831.80 -156.92,-793.49">
        <lane id="77114_0" index="0" disallow="pedestrian tram rail_urban rail rail_electric rail_fast ship" speed="36.11" length="6.03" width="3.50" customShape="1" shape="-146.06,-815.82 -146.94,-812.94 -147.81,-810.05"/>
    </edge>
    <edge id="77116" from="51" to="53" priority="3" type="highway.residential" spreadType="center" length="17.84" shape="-172.31,-739.96 -160.09,-794.87">
        <lane id="77116_0" index="0" disallow="pedestrian tram rail_urban rail rail_electric rail_fast ship" speed="36.11" length="17.84" width="3.50" customShape="1" shape="-165.21,-758.81 -164.69,-764.55 -163.96,-769.21 -161.78,-776.24"/>
    </edge>
    <edge id="77117" from="53" to="51" priority="3" type="highway.residential" spreadType="center" length="17.11" shape="-156.67,-794.11 -168.89,-739.20">
        <lane id="77117_0" index="0" disallow="pedestrian tram rail_urban rail rail_electric rail_fast ship" speed="36.11" length="17.11" width="3.50" customShape="1" shape="-158.44,-775.20 -160.54,-768.47 -161.22,-764.09 -161.73,-758.49"/>
    </edge>
    <edge id="77119" from="55" to="51" priority="3" type="highway.residential" spreadType="center" length="25.27" shape="-164.08,-681.10 -172.33,-739.33">
        <lane id="77119_0" index="0" disallow="pedestrian tram rail_urban rail rail_electric rail_fast ship" speed="36.11" length="25.27" width="3.50" customShape="1" shape="-166.73,-694.68 -166.82,-697.25 -166.85,-706.01 -166.38,-719.94"/>
    </edge>
    <edge id="77120" from="51" to="55" priority="3" type="highway.residential" spreadType="center" length="25.04" shape="-168.87,-739.83 -160.61,-681.59">
        <lane id="77120_0" index="0" disallow="pedestrian tram rail_urban rail rail_electric rail_fast ship" speed="36.11" length="25.04" width="3.50" customShape="1" shape="-162.89,-719.82 -163.35,-705.99 -163.32,-697.34 -163.24,-694.79"/>
    </edge>
    <edge id="77145" from="54" to="34" priority="3" type="highway.residential" spreadType="center" length="70.01" shape="-133.41,-904.08 -104.34,-988.29">
        <lane id="77145_0" index="0" disallow="pedestrian tram rail_urban rail rail_electric rail_fast ship" speed="36.11" length="70.01" width="3.50" customShape="1" shape="-121.91,-920.55 -113.98,-948.42 -109.70,-964.36 -106.68,-977.01 -104.34,-988.29"/>
    </edge>
    <edge id="77146" from="44" to="54" priority="3" type="highway.residential" spreadType="center" length="70.00" shape="-100.97,-987.31 -130.10,-902.94">
        <lane id="77146_0" index="0" disallow="pedestrian tram rail_urban rail rail_electric rail_fast ship" speed="36.11" length="70.00" width="3.50" customShape="1" shape="-100.97,-987.31 -103.23,-976.38 -106.28,-963.63 -110.58,-947.59 -118.55,-919.58"/>
    </edge>
    <edge id="77261" from="23" to="52" priority="3" type="highway.residential" spreadType="center" length="70.01" shape="-58.93,-800.06 -136.73,-831.08">
        <lane id="77261_0" index="0" disallow="pedestrian tram rail_urban rail rail_electric rail_fast ship" speed="36.11" length="70.01" width="3.50" customShape="1" shape="-58.93,-800.06 -64.43,-802.30 -123.76,-826.49"/>
    </edge>
    <edge id="77262" from="52" to="18" priority="3" type="highway.residential" spreadType="center" length="70.00" shape="-135.43,-834.33 -57.62,-803.30">
        <lane id="77262_0" index="0" disallow="pedestrian tram rail_urban rail rail_electric rail_fast ship" speed="36.11" length="70.00" width="3.50" customShape="1" shape="-122.44,-829.73 -63.11,-805.54 -57.62,-803.30"/>
    </edge>
    <edge id="77281" from="53" to="8" priority="3" type="highway.residential" spreadType="center" length="82.21">
        <lane id="77281_0" index="0" disallow="pedestrian tram rail_urban rail rail_electric rail_fast ship" speed="36.11" length="82.21" width="3.50" customShape="1" shape="-161.56,-794.75 -189.78,-807.03 -208.02,-815.42 -228.82,-825.44 -236.22,-829.12"/>
    </edge>
    <edge id="77356" from="54" to="33" priority="3" type="highway.residential" spreadType="center" length="70.00" shape="-132.38,-901.91 -209.95,-934.15">
        <lane id="77356_0" index="0" disallow="pedestrian tram rail_urban rail rail_electric rail_fast ship" speed="36.11" length="70.00" width="3.50" customShape="1" shape="-145.67,-906.44 -208.95,-933.72 -209.95,-934.15"/>
    </edge>
    <edge id="77357" from="40" to="54" priority="3" type="highway.residential" spreadType="center" length="70.01" shape="-208.57,-937.37 -131.03,-905.14">
        <lane id="77357_0" index="0" disallow="pedestrian tram rail_urban rail rail_electric rail_fast ship" speed="36.11" length="70.01" width="3.50" customShape="1" shape="-208.57,-937.37 -207.56,-936.93 -144.28,-909.65"/>
    </edge>
    <edge id="77496" from="55" to="36" priority="3" type="highway.residential" spreadType="center" length="70.00" shape="-162.63,-683.12 -74.38,-695.80">
        <lane id="77496_0" index="0" disallow="pedestrian tram rail_urban rail rail_electric rail_fast ship" speed="36.11" length="70.00" width="3.50" customShape="1" shape="-142.75,-680.77 -74.38,-695.80"/>
    </edge>
    <edge id="77497" from="39" to="55" priority="3" type="highway.residential" spreadType="center" length="70.00" shape="-73.65,-692.37 -162.14,-679.66">
        <lane id="77497_0" index="0" disallow="pedestrian tram rail_urban rail rail_electric rail_fast ship" speed="36.11" length="70.00" width="3.50" customShape="1" shape="-73.65,-692.37 -142.02,-677.35"/>
    </edge>
    <edge id="77499" from="56" to="55" priority="3" type="highway.residential" spreadType="center" length="46.78" shape="-245.31,-656.34 -162.89,-683.06">
        <lane id="77499_0" index="0" disallow="pedestrian tram rail_urban rail rail_electric rail_fast ship" speed="36.11" length="46.78" width="3.50" customShape="1" shape="-226.01,-663.54 -224.01,-663.75 -214.03,-664.97 -205.11,-666.45 -194.77,-668.58 -180.07,-672.10"/>
    </edge>
    <edge id="77500" from="55" to="56" priority="3" type="highway.residential" spreadType="center" length="47.24" shape="-161.81,-679.73 -244.23,-653.01">
        <lane id="77500_0" index="0" disallow="pedestrian tram rail_urban rail rail_electric rail_fast ship" speed="36.11" length="47.24" width="3.50" customShape="1" shape="-179.26,-668.69 -194.04,-665.15 -204.50,-663.00 -213.54,-661.50 -223.63,-660.27 -225.65,-660.06"/>
    </edge>
    <edge id="77502" from="49" to="56" priority="3" type="highway.residential" spreadType="center" length="42.17" shape="-305.93,-665.92 -244.42,-656.41">
        <lane id="77502_0" index="0" disallow="pedestrian tram rail_urban rail rail_electric rail_fast ship" speed="36.11" length="42.17" width="3.50" customShape="1" shape="-305.93,-665.92 -298.33,-665.15 -272.58,-662.78 -263.92,-662.33"/>
    </edge>
    <edge id="77503" from="56" to="48" priority="3" type="highway.residential" spreadType="center" length="42.33" shape="-244.95,-652.95 -306.27,-662.44">
        <lane id="77503_0" index="0" disallow="pedestrian tram rail_urban rail rail_electric rail_fast ship" speed="36.11" length="42.33" width="3.50" customShape="1" shape="-264.10,-658.83 -272.78,-659.29 -298.66,-661.66 -306.27,-662.44"/>
    </edge>
    <edge id="77536" from="24" to="51" priority="3" type="highway.residential" spreadType="center" length="70.01" shape="-251.05,-757.00 -170.23,-741.29">
        <lane id="77536_0" index="0" disallow="pedestrian tram rail_urban rail rail_electric rail_fast ship" speed="36.11" length="70.01" width="3.50" customShape="1" shape="-251.05,-757.00 -246.18,-754.73 -236.88,-750.80 -226.01,-746.70 -221.22,-745.11 -217.30,-744.13 -212.82,-743.41 -207.79,-742.98 -194.16,-742.60 -183.57,-741.92"/>
    </edge>
    <edge id="77537" from="51" to="19" priority="3" type="highway.residential" spreadType="center" length="70.01" shape="-170.89,-737.85 -251.36,-753.29">
        <lane id="77537_0" index="0" disallow="pedestrian tram rail_urban rail rail_electric rail_fast ship" speed="36.11" length="70.01" width="3.50" customShape="1" shape="-183.81,-738.43 -194.35,-739.11 -207.98,-739.48 -213.11,-739.92 -217.72,-740.65 -221.77,-741.63 -226.67,-743.22 -237.59,-747.32 -246.94,-751.25 -251.36,-753.29"/>
    </edge>
    <edge id="77545" from="50" to="56" priority="3" type="highway.residential" spreadType="center" length="70.00" shape="-224.08,-574.94 -246.43,-654.25">
        <lane id="77545_0" index="0" disallow="pedestrian tram rail_urban rail rail_electric rail_fast ship" speed="36.11" length="70.00" width="3.50" customShape="1" shape="-224.08,-574.94 -225.61,-580.51 -229.66,-595.66 -232.19,-603.88 -234.65,-610.53 -240.54,-624.51 -243.10,-631.12 -244.81,-636.42 -246.04,-641.29"/>
    </edge>
    <edge id="77546" from="56" to="47" priority="3" type="highway.residential" spreadType="center" length="70.00" shape="-243.06,-655.20 -220.66,-575.71">
        <lane id="77546_0" index="0" disallow="pedestrian tram rail_urban rail rail_electric rail_fast ship" speed="36.11" length="70.00" width="3.50" customShape="1" shape="-242.63,-642.06 -241.42,-637.29 -239.74,-632.12 -237.21,-625.60 -231.33,-611.64 -228.86,-604.94 -226.31,-596.67 -222.27,-581.53 -220.66,-575.71"/>
    </edge>

    <junction id="18" type="dead_end" x="-57.62" y="-803.30" incLanes="77262_0" intLanes="" shape="-56.96,-804.92 -58.28,-801.68" rightOfWay="edgePriority"/>
    <junction id="19" type="dead_end" x="-251.36" y="-753.29" incLanes="77537_0" intLanes="" shape="-252.09,-751.70 -250.62,-754.88" rightOfWay="edgePriority"/>
    <junction id="23" type="dead_end" x="-58.93" y="-800.06" incLanes="" intLanes="" shape="-58.27,-801.68 -59.59,-798.44" rightOfWay="edgePriority"/>
    <junction id="24" type="dead_end" x="-251.05" y="-757.00" incLanes="" intLanes="" shape="-251.78,-755.41 -250.31,-758.59" rightOfWay="edgePriority"/>
    <junction id="33" type="dead_end" x="-209.95" y="-934.15" incLanes="77356_0" intLanes="" shape="-210.64,-932.55 -209.25,-935.76" rightOfWay="edgePriority"/>
    <junction id="34" type="dead_end" x="-104.34" y="-988.29" incLanes="77145_0" intLanes="" shape="-106.06,-988.64 -102.63,-987.93" rightOfWay="edgePriority"/>