<routes>
	<vehicle depart="0.1" departLane="0" departPos="21.74082085573298" departSpeed="0.75516934" id="347" type="bus">
		<route edges=":69_4 4531"/>
	</vehicle>
	<vehicle depart="0.1" departLane="0" departPos="2.5" departSpeed="5.8982965" id="31" type="passenger">
		<route edges=":74_2 4626"/>
	</vehicle>
	<vehicle depart="0.1" departLane="0" departPos="51.78309179002083" departSpeed="4.5229663" id="32" type="passenger">
		<route edges="4799 4531"/>
	</vehicle>
	<vehicle depart="0.1" departLane="0" departPos="11.119664409425745" departSpeed="1.0735416" id="33" type="passenger">
		<route edges=":74_1 4528"/>
	</vehicle>
	<vehicle depart="0.1" departLane="0" departPos="57.891679818744564" departSpeed="2.9747906" id="36" type="passenger">
		<route edges="4627 4528"/>
	</vehicle>
	<vehicle depart="0.1" departLane="0" departPos="33.52785553858682" departSpeed="2.9319515" id="37" type="passenger">
		<route edges="4799 4531"/>
	</vehicle>
	<vehicle depart="0.1" departLane="0" departPos="7.3722796143899885" departSpeed="8.6612462" id="318" type="passenger">
		<route edges=":71_5 4530"/>
	</vehicle>
	<vehicle depart="0.1" departLane="0" departPos="7.351367738464509" departSpeed="4.0604324" id="324" type="passenger">
		<route edges=":69_0 4527 4626"/>
	</vehicle>
	<vehicle depart="0.1" departLane="0" departPos="9.659077374202774" departSpeed="0.66926097" id="360" type="passenger">
		<route edges="4528 4531"/>
	</vehicle>
	<vehicle depart="0.1" departLane="0" departPos="40.73078566570114" departSpeed="3.0012347" id="34" type="motorcycle">
		<route edges="4799 4531"/>
	</vehicle>
</routes>
