<!-- generated on 2020-12-18 16:04:41.783589 by ipykernel_launcher.py v1_2_0+5214-53edc58fcd
-->
<connections>
	<connection contPos="-4.0" from="90" fromLane="0" keepClear="true" to="99" toLane="0"/>
	<connection contPos="-4.0" from="90" fromLane="0" keepClear="true" to="97" toLane="0"/>
	<connection contPos="-4.0" from="93" fromLane="0" keepClear="true" to="101" toLane="0"/>
	<connection contPos="-4.0" from="93" fromLane="0" keepClear="true" to="96" toLane="0"/>
	<connection contPos="-4.0" from="94" fromLane="0" keepClear="true" to="100" toLane="0"/>
	<connection contPos="-4.0" from="94" fromLane="0" keepClear="true" to="98" toLane="0"/>
	<connection contPos="-4.0" from="96" fromLane="0" keepClear="true" to="91" toLane="0"/>
	<connection contPos="-4.0" from="97" fromLane="0" keepClear="true" to="92" toLane="0"/>
	<connection contPos="-4.0" from="98" fromLane="0" keepClear="true" to="91" toLane="0"/>
	<connection contPos="-4.0" from="99" fromLane="0" keepClear="true" to="95" toLane="0"/>
	<connection contPos="-4.0" from="100" fromLane="0" keepClear="true" to="92" toLane="0"/>
	<connection contPos="-4.0" from="101" fromLane="0" keepClear="true" to="95" toLane="0"/>
</connections>
