<routes>
	<vehicle depart="0.1" departLane="0" departPos="174.23692041725667" departSpeed="0.0" id="31" type="passenger">
		<route edges="90 97 92"/>
	</vehicle>
	<vehicle depart="0.1" departLane="0" departPos="85.84680646434272" departSpeed="0.0" id="32" type="passenger">
		<route edges="94 98 91"/>
	</vehicle>
	<vehicle depart="0.1" departLane="0" departPos="85.84680646434272" departSpeed="0.0" id="38" type="passenger">
		<route edges="94 98 91"/>
	</vehicle>
	<vehicle depart="0.1" departLane="0" departPos="0" departSpeed="0.0" id="39" type="passenger">
		<route edges="98 91"/>
	</vehicle>
	<vehicle depart="0.1" departLane="0" departPos="85.84680646434272" departSpeed="0.0" id="312" type="passenger">
		<route edges="94 98 91"/>
	</vehicle>
	<vehicle depart="0.1" departLane="0" departPos="0" departSpeed="0.0" id="313" type="passenger">
		<route edges="94 98 91"/>
	</vehicle>
	<vehicle depart="0.1" departLane="0" departPos="50.594592862542605" departSpeed="0.0" id="318" type="passenger">
		<route edges="94 98 91"/>
	</vehicle>
	<vehicle depart="0.1" departLane="0" departPos="135.42940062146997" departSpeed="7.1429" id="320" type="passenger">
		<route edges="91"/>
	</vehicle>
	<vehicle depart="0.1" departLane="0" departPos="43.09415442055002" departSpeed="0.0" id="323" type="passenger">
		<route edges="94 98 91"/>
	</vehicle>
	<vehicle depart="0.1" departLane="0" departPos="0" departSpeed="0.0" id="325" type="passenger">
		<route edges="94 98 91"/>
	</vehicle>
	<vehicle depart="0.1" departLane="0" departPos="108.61079316165333" departSpeed="8.4005" id="330" type="passenger">
		<route edges="91"/>
	</vehicle>
	<vehicle depart="0.1" departLane="0" departPos="0" departSpeed="0.0" id="332" type="passenger">
		<route edges="94 98 91"/>
	</vehicle>
	<vehicle depart="0.1" departLane="0" departPos="0" departSpeed="0.0" id="333" type="passenger">
		<route edges="94 98 91"/>
	</vehicle>
	<vehicle depart="0.1" departLane="0" departPos="92.43703838908469" departSpeed="8.428" id="338" type="passenger">
		<route edges="91"/>
	</vehicle>
	<vehicle depart="0.1" departLane="0" departPos="0" departSpeed="0.0" id="339" type="passenger">
		<route edges="94 98 91"/>
	</vehicle>
	<vehicle depart="0.1" departLane="0" departPos="69.44383115880727" departSpeed="8.1924" id="340" type="passenger">
		<route edges="95"/>
	</vehicle>
	<vehicle depart="0.1" departLane="0" departPos="46.02604644489915" departSpeed="7.3899" id="341" type="passenger">
		<route edges="95"/>
	</vehicle>
	<vehicle depart="0.1" departLane="0" departPos="0" departSpeed="0.0" id="342" type="passenger">
		<route edges="94 98 91"/>
	</vehicle>
	<vehicle depart="0.1" departLane="0" departPos="0" departSpeed="7.0231" id="343" type="passenger">
		<route edges="91"/>
	</vehicle>
	<vehicle depart="0.1" departLane="0" departPos="0" departSpeed="7.0732" id="344" type="passenger">
		<route edges="95"/>
	</vehicle>
	<vehicle depart="0.1" departLane="0" departPos="10.666794233324337" departSpeed="6.9922" id="345" type="passenger">
		<route edges="101 95"/>
	</vehicle>
	<vehicle depart="0.1" departLane="0" departPos="84.80157872712398" departSpeed="6.9351" id="347" type="passenger">
		<route edges="93 101 95"/>
	</vehicle>
	<vehicle depart="0.1" departLane="0" departPos="84.80157872712398" departSpeed="6.9042" id="348" type="passenger">
		<route edges="93 96 91"/>
	</vehicle>
	<vehicle depart="0.1" departLane="0" departPos="0" departSpeed="6.743" id="350" type="passenger">
		<route edges="93 96 91"/>
	</vehicle>
	<vehicle depart="0.1" departLane="0" departPos="0" departSpeed="6.5542" id="351" type="passenger">
		<route edges="93 96 91"/>
	</vehicle>
	<vehicle depart="0.1" departLane="0" departPos="0" departSpeed="1.1016" id="352" type="passenger">
		<route edges="90 97 92"/>
	</vehicle>
	<vehicle depart="0.1" departLane="0" departPos="0" departSpeed="6.273" id="353" type="passenger">
		<route edges="93 101 95"/>
	</vehicle>
	<vehicle depart="0.1" departLane="0" departPos="0" departSpeed="5.3986" id="354" type="passenger">
		<route edges="93 96 91"/>
	</vehicle>
	<vehicle depart="0.1" departLane="0" departPos="0" departSpeed="3.1798" id="355" type="passenger">
		<route edges="93 101 95"/>
	</vehicle>
</routes>
