<!-- generated on 2020-12-18 16:04:41.711441 by ipykernel_launcher.py v1_2_0+5214-53edc58fcd
-->
<nodes>
	<node id="1" type="from" x="171.6318" y="53.55695"/>
	<node id="2" type="to" x="3.32395" y="8.52495"/>
	<node id="3" type="from" x="4.0309" y="6.1282499999999995"/>
	<node id="4" type="to" x="172.28379999999999" y="51.14345"/>
	<node id="5" type="from" x="-2.4843" y="-2.25935"/>
	<node id="6" type="to" x="20.45035" y="-83.92320000000001"/>
	<node id="7" type="from" x="22.8572" y="-83.24725000000001"/>
	<node id="8" type="to" x="-0.07209999999999994" y="-1.6044"/>
	<node id="9" type="from" x="-27.10445" y="95.30395"/>
	<node id="10" type="to" x="-6.2783999999999995" y="12.0216"/>
	<node id="11" type="from" x="-3.8602499999999997" y="12.65435"/>
	<node id="12" type="to" x="-24.67915" y="95.91045"/>
</nodes>
