<routes>
	<vehicle depart="0.1" departLane="0" departPos="20.032003571899295" departSpeed="9.4994049" id="1" type="passenger">
		<route edges="50201 50213 50197"/>
	</vehicle>
	<vehicle depart="0.1" departLane="0" departPos="100.43893876765308" departSpeed="1.7052977" id="2" type="passenger">
		<route edges="50195 50211 50199"/>
	</vehicle>
	<vehicle depart="0.1" departLane="0" departPos="135.40233486723056" departSpeed="2.2774165" id="4" type="passenger">
		<route edges="50205 50207 50197"/>
	</vehicle>
	<vehicle depart="0.1" departLane="0" departPos="143.40238732875767" departSpeed="3.6892159" id="5" type="passenger">
		<route edges="50205 50217 50199"/>
	</vehicle>
	<vehicle depart="0.1" departLane="0" departPos="12.029682145098992" departSpeed="3.2128615" id="7" type="passenger">
		<route edges="50201 50213 50197"/>
	</vehicle>
</routes>
