<!-- generated on 2020-12-18 15:37:59.011840 by ipykernel_launcher.py v1_2_0+5214-53edc58fcd
-->
<edges>
	<edge from="1" function="normal" id="24" length="146.97641364474242" numLanes="1" priority="1" speed="36.11111111111111" spreadType="center" to="2">
		<lane allow="pedestrian rail private passenger ship delivery vip emergency bicycle rail_electric army rail_urban trailer coach bus custom2 tram taxi evehicle custom1 motorcycle authority truck hov moped" index="0" length="146.97641364474242" shape="-0.5858634949999999,5.67975365 72.8976095,4.84335735 146.38103,4.00691645" speed="36.11111111111111" width="3.4990641983678246"/>
	</edge>
	<edge from="3" function="normal" id="26" length="159.61103641073373" numLanes="2" priority="1" speed="36.11111111111111" spreadType="center" to="4">
		<lane allow="pedestrian rail private passenger ship delivery vip emergency bicycle rail_electric army rail_urban trailer coach bus custom2 tram taxi evehicle custom1 motorcycle authority truck hov moped" index="0" length="159.61103641073373" shape="-180.964565,5.20676955 -59.672035,5.46601955 -21.3546855,5.7256884" speed="36.11111111111111" width="3.4999296762578314"/>
		<lane allow="pedestrian rail private passenger ship delivery vip emergency bicycle rail_electric army rail_urban trailer coach bus custom2 tram taxi evehicle custom1 motorcycle authority truck hov moped" index="1" length="159.61103641073373" shape="-180.988205,8.70666365 -59.6957205,8.965968499999999 -21.346473500000002,9.22489915" speed="36.11111111111111" width="3.4982271741607485"/>
	</edge>
	<edge from="4" function="normal" id="27" length="20.768872805899264" numLanes="1" priority="1" speed="36.11111111111111" spreadType="center" to="1">
		<lane allow="pedestrian rail private passenger ship delivery vip emergency bicycle rail_electric army rail_urban trailer coach bus custom2 tram taxi evehicle custom1 motorcycle authority truck hov moped" index="0" length="20.768872805899264" shape="-21.3546855,5.7256884 -10.962278000000001,5.70250905 -0.5858634949999999,5.67975365" speed="36.11111111111111" width="3.4990641983678246"/>
	</edge>
	<edge from="4" function="normal" id="28" length="21.11745943976564" numLanes="1" priority="1" speed="36.11111111111111" spreadType="center" to="1">
		<lane allow="pedestrian rail private passenger ship delivery vip emergency bicycle rail_electric army rail_urban trailer coach custom2 tram taxi evehicle custom1 motorcycle authority truck hov moped" index="0" length="21.11745943976564" shape="-21.346473500000002,9.22489915 -18.2757455,9.0484539 -14.72086,8.432945199999999 -6.2104423,6.337787049999999 -2.6447714500000004,5.78997195 -0.5858634949999999,5.67975365" speed="36.11111111111111" width="3.4982271741607485"/>
	</edge>
</edges>
