<routes>
	<vehicle depart="0.1" departLane="1" departPos="113.6372016819923" departSpeed="4.0131595" id="1" type="passenger">
		<route edges="26 28 24"/>
	</vehicle>
	<vehicle depart="0.1" departLane="0" departPos="0" departSpeed="4.0" id="2" type="passenger">
		<route edges="26 27 24"/>
	</vehicle>
	<vehicle depart="0.1" departLane="0" departPos="0" departSpeed="14.469119" id="3" type="passenger">
		<route edges="26 27 24"/>
	</vehicle>
</routes>
