<!-- generated on 2020-12-18 15:41:03.669387 by ipykernel_launcher.py v1_2_0+5214-53edc58fcd
-->
<edges>
	<edge from="1" function="normal" id="8" length="171.75503742822903" numLanes="5" priority="1" speed="36.11111111111111" spreadType="center" to="2">
		<lane allow="pedestrian rail private passenger ship delivery vip emergency bicycle rail_electric army rail_urban trailer coach custom2 tram taxi evehicle custom1 motorcycle authority hov moped" index="0" length="171.75503742822903" shape="-40.55165,33.14005 -32.50385,24.0627 -31.48965,22.90965 -29.837699999999998,21.07695 -22.45195,13.1924 -19.8016,10.2494 -11.0487,1.02565 -1.5471000000000001,-8.6796 1.24565,-11.48205 8.84845,-19.0102 10.23085,-20.39675 11.7273,-21.85355 19.469250000000002,-29.213250000000002 22.3069,-31.97735 29.806350000000002,-38.98415 32.64405,-41.74825 37.18365,-45.99425 40.7018,-49.238600000000005 43.607299999999995,-51.9327 51.4193,-59.04945 51.99955,-59.5871 54.3613,-61.75875 61.6682,-68.374 62.467600000000004,-69.10640000000001 65.3868,-71.82265000000001 68.44905,-74.5719 73.26245,-78.74109999999999 76.20994999999999,-81.386 77.75835000000001,-82.72545 83.6965,-87.88945 83.70595,-87.89769999999999" speed="36.11111111111111" width="3.406064579540441"/>
		<lane allow="pedestrian rail private passenger ship delivery vip emergency bicycle rail_electric army rail_urban trailer coach custom2 tram taxi evehicle custom1 motorcycle authority hov moped" index="1" length="171.75503742822903" shape="-37.93,35.419 -31.86215,28.57475 -29.909599999999998,26.3461 -29.2624,25.601599999999998 -27.3468,23.467950000000002 -21.925150000000002,17.65965 -19.937849999999997,15.460249999999998 -19.325650000000003,14.75605 -17.40335,12.66685 0.9259999999999999,-6.24805 3.7088,-9.0684 8.824200000000001,-14.18305 11.2922,-16.6184 11.62695,-16.9532 14.05255,-19.293950000000002 19.57425,-24.4967 21.87425,-26.742150000000002 22.37395,-27.24185 24.633200000000002,-29.429000000000002 30.14685,-34.5517 32.20015,-36.5233 32.9399,-37.26305 34.9356,-39.1676 40.939750000000004,-44.67425 43.0873,-46.66555 43.844049999999996,-47.3712 45.9701,-49.33435 51.623000000000005,-54.4627 53.82815,-56.4834 54.51685,-57.125550000000004 56.694950000000006,-59.11425 62.8287,-64.62855 64.89949999999999,-66.52985000000001 65.7218,-67.29665 67.76025,-69.15369999999999 73.58420000000001,-74.2728 75.62035,-76.10595 76.4707,-76.8989 78.47014999999999,-78.70575 84.5831,-84.0335 85.9813,-85.29069999999999" speed="36.11111111111111" width="3.212244685574249"/>
		<lane allow="pedestrian rail private passenger ship delivery vip emergency bicycle rail_electric army rail_urban trailer coach bus custom2 tram taxi evehicle custom1 motorcycle authority truck hov moped" index="2" length="171.75503742822903" shape="-35.4451,37.5791 -34.76025,36.8042 -32.14335,33.8292 -29.42015,30.8352 -26.786250000000003,27.9062 -24.8827,25.852800000000002 -22.23655,22.9055 -19.495800000000003,19.98645 -16.86985,17.1012 -14.7545,14.89705 -12.0749,11.984549999999999 -4.63675,4.45365 -1.95715,1.54115 5.5667,-6.0249500000000005 8.24635,-8.9375 11.084800000000001,-11.747399999999999 13.93335,-14.531400000000001 15.943,-16.4272 18.79285,-19.177500000000002 21.87595,-22.0758 24.68235,-24.80875 26.55185,-26.57355 29.397599999999997,-29.32855 32.385099999999994,-32.1106 35.2,-34.816599999999994 37.454750000000004,-36.89015 40.3189,-39.6236 43.1822,-42.21615 46.0891,-44.87925 48.6997,-47.2483 51.6108,-49.93625 53.8568,-51.9824 56.760549999999995,-54.65375 59.48795,-57.1111 62.413650000000004,-59.78245 65.05924999999999,-62.15155 67.95945,-64.80365 70.5233,-67.0952 73.45185000000001,-69.76310000000001 75.71535,-71.72964999999999 78.64314999999999,-74.33135 81.406,-76.71635 84.34469999999999,-79.37209999999999 86.7842,-81.51495 88.1757,-82.77645" speed="36.11111111111111" width="3.1897109727998827"/>
		<lane allow="pedestrian rail private passenger ship delivery vip emergency bicycle rail_electric army rail_urban trailer coach custom2 tram taxi evehicle custom1 motorcycle authority hov moped" index="3" length="171.75503742822903" shape="-32.91345,39.7799 -32.7138,39.552049999999994 -32.2455,39.0158 -30.1181,36.56845 -29.7131,36.117900000000006 -22.83255,28.711399999999998 -22.32715,28.1477 -20.26165,25.7716 -19.82175,25.288899999999998 -12.50995,17.6104 -12.19105,17.25715 -9.954450000000001,14.684149999999999 -9.6784,14.379449999999999 -2.47145,6.9646 -2.21695,6.68615 0.061899999999999955,4.06465 7.79615,-3.5336 8.0119,-3.7702999999999998 10.31945,-6.4248 18.24185,-13.9422 18.46575,-14.1587 21.09845,-16.78885 21.342100000000002,-17.0254 28.8525,-24.0916 29.01655,-24.24975 31.710949999999997,-26.94135 31.9134,-27.1343 39.735749999999996,-34.421949999999995 39.74825,-34.43445 42.53805,-37.1271 42.7177,-37.2949 50.70865,-44.547 50.9715,-44.78825 53.586749999999995,-47.227000000000004 53.850049999999996,-47.4705 61.55685,-54.50295 61.72665,-54.659400000000005 64.43934999999999,-57.189 64.5726,-57.31055 72.58275,-64.4784 72.75985,-64.64075 75.45824999999999,-67.15705 75.57985,-67.26689999999999 83.61705,-74.18865 83.70135,-74.26480000000001 86.55535,-76.92394999999999 86.67355,-77.03020000000001 90.3928,-80.2362" speed="36.11111111111111" width="3.1336799150519505"/>
		<lane allow="pedestrian rail private passenger ship delivery vip emergency bicycle rail_electric army rail_urban trailer coach custom2 tram taxi evehicle custom1 motorcycle authority hov moped" index="4" length="171.75503742822903" shape="-30.29325,42.0576 -30.10275,41.8399 -30.084699999999998,41.81925 -27.49925,38.845 -27.4411,38.781800000000004 -20.283900000000003,31.079950000000004 -20.274900000000002,31.0696 -17.64415,28.04695 -17.5688,27.967100000000002 -9.9803,20.02095 -9.971350000000001,20.0106 -7.32335,16.9713 -7.2553,16.89845 -0.07474999999999998,9.2918 -0.06574999999999998,9.28145 2.57485,6.24915 2.69875,6.127 10.151399999999999,-1.1271 10.160350000000001,-1.13745 12.856850000000001,-4.21905 13.00775,-4.36225 20.884050000000002,-11.73655 21.0803,-11.926549999999999 23.73115,-14.57465 23.972250000000003,-14.806049999999999 31.46695,-21.797449999999998 31.663400000000003,-21.98725 34.316649999999996,-24.63745 34.5539,-24.865949999999998 42.1826,-32.02155 42.4679,-32.28835 45.0764,-34.72085 45.379400000000004,-35.000600000000006 53.02485,-41.9952 53.3156,-42.2637 55.9363,-44.707449999999994 56.2375,-44.9859 63.8608,-51.97839999999999 64.1513,-52.2471 66.7704,-54.68925 67.09135,-54.981449999999995 74.8692,-61.92275 75.16155,-62.18945 77.7986,-64.64735 78.13495,-64.94975 85.9854,-71.80895000000001 86.2791,-72.07405 88.9302,-74.54384999999999 89.29294999999999,-74.8626 92.6283,-77.67484999999999" speed="36.11111111111111" width="3.479396558312951"/>
	</edge>
	<edge from="2" function="normal" id="30" length="10.41681850793918" numLanes="6" priority="1" speed="36.11111111111111" spreadType="center" to="3">
		<lane allow="pedestrian rail private passenger ship delivery vip emergency bicycle rail_electric army rail_urban trailer coach bus custom2 tram taxi evehicle custom1 motorcycle authority truck hov moped" index="0" length="10.41681850793918" shape="81.2397,-90.7234 83.40395000000001,-92.5784 84.12735,-93.22425 86.7972,-95.53825 87.52055,-96.1841 89.19665,-97.6593" speed="36.11111111111111" width="3.8311452073760024"/>
		<lane allow="pedestrian rail private passenger ship delivery vip emergency bicycle rail_electric army rail_urban trailer coach custom2 tram taxi evehicle custom1 motorcycle authority truck hov moped" index="1" length="10.41681850793918" shape="83.70595,-87.89769999999999 84.3118,-88.41454999999999 85.89235,-89.81755 86.60525,-90.4751 87.2444,-91.04554999999999 89.08915,-92.57165 89.74375,-93.12639999999999 89.85669999999999,-93.2175 90.449,-93.71635 90.63045,-93.8814 91.64935,-94.8023" speed="36.11111111111111" width="3.504353214217989"/>
		<lane allow="pedestrian rail private passenger ship delivery vip emergency bicycle rail_electric army rail_urban trailer coach custom2 tram taxi evehicle custom1 motorcycle authority truck hov moped" index="2" length="10.41681850793918" shape="85.9813,-85.29069999999999 86.58725,-85.83680000000001 87.46955,-86.65960000000001 89.34565,-88.32755 89.5085,-88.4605 92.88015,-91.2308 93.92185,-92.1551" speed="36.11111111111111" width="3.21798541482089"/>
		<lane allow="pedestrian rail private passenger ship delivery vip emergency bicycle rail_electric army rail_urban trailer coach custom2 tram taxi evehicle custom1 motorcycle authority hov moped" index="3" length="10.41681850793918" shape="88.1757,-82.77645 89.6464,-84.1095 89.74664999999999,-84.19575 92.62295,-86.68039999999999 95.5851,-89.3099 96.03675000000001,-89.69155" speed="36.11111111111111" width="3.2077841978537216"/>
		<lane allow="pedestrian rail private passenger ship delivery vip emergency bicycle rail_electric army rail_urban trailer coach custom2 tram taxi evehicle custom1 motorcycle authority hov moped" index="4" length="10.41681850793918" shape="90.3928,-80.2362 94.70155,-83.95025 94.89405,-84.12565000000001 97.56604999999999,-86.6173 97.62719999999999,-86.67435 97.75380000000001,-86.78225 98.20439999999999,-87.1665" speed="36.11111111111111" width="3.3195808229353334"/>
		<lane allow="pedestrian rail private passenger ship delivery vip emergency bicycle rail_electric army rail_urban trailer coach custom2 tram taxi evehicle custom1 motorcycle authority hov moped" index="5" length="10.41681850793918" shape="92.6283,-77.67484999999999 96.96135000000001,-81.3284 97.19325,-81.53115 97.31825,-81.6474 99.92949999999999,-84.07679999999999 100.28190000000001,-84.39025000000001 100.458,-84.5414" speed="36.11111111111111" width="3.479396558312951"/>
	</edge>
	<edge from="4" function="normal" id="4" length="129.83857091673113" numLanes="1" priority="1" speed="36.11111111111111" spreadType="center" to="2">
		<lane allow="pedestrian rail private passenger ship delivery vip emergency bicycle rail_electric army rail_urban trailer coach custom2 tram taxi evehicle custom1 motorcycle authority hov moped" index="0" length="129.83857091673113" shape="-24.633499999999998,-29.20365 -22.8371,-27.8106 -22.3867,-27.499450000000003 -20.54445,-26.5958 -18.9755,-25.93385 -16.93105,-25.16075 -16.2326,-24.93605 -14.33935,-24.5714 -12.0748,-24.25255 -11.079049999999999,-24.13055 -9.25585,-24.197049999999997 -7.2153,-24.3521 -5.0771,-24.62275 -4.33415,-24.85425 -2.5893,-25.456049999999998 3.26625,-28.20295 3.7819,-28.49915 6.3683,-30.19455 8.24925,-31.40805 9.3667,-32.1786 14.99915,-36.29 16.404600000000002,-37.36005 24.3311,-43.4387 30.76785,-48.5758 35.896,-52.74975 43.617599999999996,-59.0355 45.27175,-60.40215 53.823350000000005,-67.50545 65.6684,-77.29085 65.9896,-77.5563 71.84645,-82.53805 75.3064,-85.54294999999999 81.2397,-90.7234" speed="36.11111111111111" width="3.518357493206168"/>
	</edge>
</edges>
