<routes>
	<vehicle depart="0.1" departLane="1" departPos="89.6636873670149" departSpeed="10.8909" id="525" type="passenger">
		<route edges="8 30"/>
	</vehicle>
	<vehicle depart="0.1" departLane="3" departPos="60.23241104340773" departSpeed="11.4071" id="529" type="passenger">
		<route edges="8 30"/>
	</vehicle>
	<vehicle depart="0.1" departLane="0" departPos="86.80601967547463" departSpeed="8.7792" id="531" type="passenger">
		<route edges="8 30"/>
	</vehicle>
	<vehicle depart="0.1" departLane="2" departPos="64.76188585685928" departSpeed="8.619" id="533" type="passenger">
		<route edges="8 30"/>
	</vehicle>
	<vehicle depart="0.1" departLane="2" departPos="38.58337514565807" departSpeed="10.8895" id="542" type="passenger">
		<route edges="8 30"/>
	</vehicle>
	<vehicle depart="0.1" departLane="1" departPos="78.4578625003524" departSpeed="8.1414" id="545" type="passenger">
		<route edges="8 30"/>
	</vehicle>
	<vehicle depart="0.1" departLane="1" departPos="50.02377443923163" departSpeed="8.6324" id="546" type="passenger">
		<route edges="8 30"/>
	</vehicle>
	<vehicle depart="0.1" departLane="0" departPos="39.72487416116265" departSpeed="11.0706" id="549" type="passenger">
		<route edges="8 30"/>
	</vehicle>
	<vehicle depart="0.1" departLane="3" departPos="68.14740107453625" departSpeed="10.8741" id="555" type="passenger">
		<route edges="8 30"/>
	</vehicle>
	<vehicle depart="0.1" departLane="4" departPos="51.052748161069104" departSpeed="4.5051" id="566" type="passenger">
		<route edges="8 30"/>
	</vehicle>
	<vehicle depart="0.1" departLane="4" departPos="71.23827386338857" departSpeed="4.2214" id="571" type="passenger">
		<route edges="8 30"/>
	</vehicle>
</routes>
