<routes>
	<vehicle depart="0.1" departLane="0" departPos="2.5" departSpeed="0.84689521" id="34" type="passenger">
		<route edges=":19_10 22053"/>
	</vehicle>
	<vehicle depart="0.1" departLane="0" departPos="14.146716208317702" departSpeed="0.99996431" id="36" type="passenger">
		<route edges="22050 21968"/>
	</vehicle>
	<vehicle depart="0.1" departLane="0" departPos="12.380646922758798" departSpeed="1.21455" id="316" type="passenger">
		<route edges=":19_7 21968"/>
	</vehicle>
	<vehicle depart="0.1" departLane="0" departPos="18.953517635299843" departSpeed="7.0613762" id="317" type="passenger">
		<route edges=":19_2 22053"/>
	</vehicle>
	<vehicle depart="0.1" departLane="0" departPos="16.928429009045015" departSpeed="0.081025829" id="319" type="passenger">
		<route edges="21967 22053"/>
	</vehicle>
	<vehicle depart="0.1" departLane="0" departPos="22.93029328303618" departSpeed="0.76998804" id="320" type="passenger">
		<route edges="22593 21967 22053"/>
	</vehicle>
	<vehicle depart="0.1" departLane="0" departPos="17.11319821523996" departSpeed="4.6903088" id="321" type="passenger">
		<route edges=":19_8 22049"/>
	</vehicle>
	<vehicle depart="0.1" departLane="0" departPos="11.665668054165474" departSpeed="2.9670759" id="323" type="passenger">
		<route edges="22593 21967 22053"/>
	</vehicle>
	<vehicle depart="0.1" departLane="0" departPos="2.5" departSpeed="2.408003" id="324" type="passenger">
		<route edges="22593 21967"/>
	</vehicle>
	<vehicle depart="0.1" departLane="0" departPos="43.83131715214558" departSpeed="2.000439" id="33" type="motorcycle">
		<route edges="22052 22049"/>
	</vehicle>
</routes>
