<!-- generated on Tue Feb  9 22:16:11 2021 by Eclipse SUMO netconvert Version 1.8.0
<configuration xmlns:xsi="http://www.w3.org/2001/XMLSchema-instance" xsi:noNamespaceSchemaLocation="http://sumo.dlr.de/xsd/netconvertConfiguration.xsd">

    <input>
        <node-files value="./converted_scenarios/scenario-factory/DEU_Guetersloh-5_1_I-1-1/DEU_Guetersloh-5_1_I-1-1.nod.xml"/>
        <edge-files value="./converted_scenarios/scenario-factory/DEU_Guetersloh-5_1_I-1-1/DEU_Guetersloh-5_1_I-1-1.edg.xml"/>
        <connection-files value="./converted_scenarios/scenario-factory/DEU_Guetersloh-5_1_I-1-1/DEU_Guetersloh-5_1_I-1-1.con.xml"/>
        <tllogic-files value="./converted_scenarios/scenario-factory/DEU_Guetersloh-5_1_I-1-1/DEU_Guetersloh-5_1_I-1-1.tll.xml"/>
        <type-files value="/home/zen/commonroad-interactive-benchmarks/install/commonroad-map-tool/crmapconverter/sumo_map/templates/DEU.typ.xml"/>
    </input>

    <output>
        <output-file value="./converted_scenarios/scenario-factory/DEU_Guetersloh-5_1_I-1-1/DEU_Guetersloh-5_1_I-1-1.net.xml"/>
    </output>

    <processing>
        <geometry.remove.keep-edges.explicit value="true"/>
        <geometry.avoid-overlap value="true"/>
        <offset.disable-normalization value="true"/>
    </processing>

    <junctions>
        <no-turnarounds value="true"/>
        <junctions.internal-link-detail value="20"/>
    </junctions>

    <report>
        <aggregate-warnings value="5"/>
    </report>

    <random_number>
        <seed value="1234"/>
    </random_number>

</configuration>
--><net xmlns:xsi="http://www.w3.org/2001/XMLSchema-instance" version="1.6" junctionCornerDetail="5" junctionLinkDetail="20" limitTurnSpeed="5.50" xsi:noNamespaceSchemaLocation="http://sumo.dlr.de/xsd/net_file.xsd">

    <location netOffset="0.00,0.00" convBoundary="-1036.09,-350.40,-724.63,-121.56" origBoundary="-1036.09,-350.40,-724.63,-121.56" projParameter="!"/>

    <type id="highway.bridleway" priority="1" speed="2.78" allow="pedestrian" oneway="1" width="2.00"/>
    <type id="highway.bus_guideway" priority="1" speed="27.78" allow="bus" oneway="1"/>
    <type id="highway.cycleway" priority="1" speed="8.33" allow="bicycle" oneway="0" width="1.00"/>
    <type id="highway.footway" priority="1" speed="2.78" allow="pedestrian" oneway="1" width="2.00"/>
    <type id="highway.ford" priority="1" speed="2.78" allow="army" oneway="0"/>
    <type id="highway.living_street" priority="2" speed="2.78" disallow="tram rail_urban rail rail_electric rail_fast ship" oneway="0"/>
    <type id="highway.motorway" priority="14" speed="39.44" allow="private emergency authority army vip passenger hov taxi bus coach delivery truck trailer motorcycle evehicle custom1 custom2" oneway="1"/>
    <type id="highway.motorway_link" priority="9" speed="22.22" allow="private emergency authority army vip passenger hov taxi bus coach delivery truck trailer motorcycle evehicle custom1 custom2" oneway="1"/>
    <type id="highway.path" priority="1" speed="2.78" allow="pedestrian bicycle" oneway="0" width="2.00"/>
    <type id="highway.pedestrian" priority="1" speed="2.78" allow="pedestrian" oneway="1" width="2.00"/>
    <type id="highway.primary" priority="12" speed="27.78" disallow="pedestrian tram rail_urban rail rail_electric rail_fast ship" oneway="0"/>
    <type id="highway.primary_link" priority="7" speed="22.22" disallow="pedestrian tram rail_urban rail rail_electric rail_fast ship" oneway="0"/>
    <type id="highway.raceway" priority="15" speed="83.33" allow="vip" oneway="0"/>
    <type id="highway.residential" priority="3" speed="13.89" disallow="pedestrian tram rail_urban rail rail_electric rail_fast ship" oneway="0"/>
    <type id="highway.secondary" priority="11" speed="27.78" disallow="pedestrian tram rail_urban rail rail_electric rail_fast ship" oneway="0"/>
    <type id="highway.secondary_link" priority="6" speed="22.22" disallow="pedestrian tram rail_urban rail rail_electric rail_fast ship" oneway="0"/>
    <type id="highway.service" priority="1" speed="5.56" allow="pedestrian delivery bicycle" oneway="0"/>
    <type id="highway.stairs" priority="1" speed="1.39" allow="pedestrian" oneway="1" width="2.00"/>
    <type id="highway.step" priority="1" speed="1.39" allow="pedestrian" oneway="1" width="2.00"/>
    <type id="highway.steps" priority="1" speed="1.39" allow="pedestrian" oneway="1" width="2.00"/>
    <type id="highway.tertiary" priority="10" speed="22.22" disallow="pedestrian tram rail_urban rail rail_electric rail_fast ship" oneway="0"/>
    <type id="highway.tertiary_link" priority="5" speed="22.22" disallow="pedestrian tram rail_urban rail rail_electric rail_fast ship" oneway="0"/>
    <type id="highway.track" priority="1" speed="5.56" allow="pedestrian motorcycle moped bicycle" oneway="0"/>
    <type id="highway.trunk" priority="13" speed="27.78" disallow="pedestrian bicycle tram rail_urban rail rail_electric rail_fast ship" oneway="0"/>
    <type id="highway.trunk_link" priority="8" speed="22.22" disallow="pedestrian bicycle tram rail_urban rail rail_electric rail_fast ship" oneway="0"/>
    <type id="highway.unclassified" priority="4" speed="13.89" disallow="pedestrian tram rail_urban rail rail_electric rail_fast ship" oneway="0"/>
    <type id="highway.unsurfaced" priority="1" speed="8.33" disallow="tram rail_urban rail rail_electric rail_fast ship" oneway="0"/>
    <type id="railway.highspeed" priority="21" speed="69.44" allow="rail_fast" oneway="1"/>
    <type id="railway.light_rail" priority="19" speed="27.78" allow="rail_urban" oneway="1"/>
    <type id="railway.preserved" priority="16" speed="27.78" allow="rail" oneway="1"/>
    <type id="railway.rail" priority="20" speed="44.44" allow="rail" oneway="1"/>
    <type id="railway.subway" priority="18" speed="27.78" allow="rail_urban" oneway="1"/>
    <type id="railway.tram" priority="17" speed="13.89" allow="tram" oneway="1"/>

    <edge id=":71_0" function="internal">
        <lane id=":71_0_0" index="0" disallow="pedestrian tram rail_urban rail rail_electric rail_fast ship" speed="36.11" length="0.34" width="3.48" shape="-881.49,-311.41 -881.47,-311.39 -881.46,-311.37 -881.45,-311.35 -881.44,-311.34 -881.43,-311.32 -881.42,-311.31 -881.42,-311.30 -881.41,-311.29 -881.40,-311.28 -881.39,-311.27 -881.38,-311.26 -881.38,-311.25 -881.37,-311.23 -881.36,-311.22 -881.34,-311.21 -881.33,-311.20 -881.32,-311.18 -881.30,-311.17 -881.29,-311.15"/>
    </edge>
    <edge id=":72_0" function="internal">
        <lane id=":72_0_0" index="0" disallow="pedestrian tram rail_urban rail rail_electric rail_fast ship" speed="36.11" length="32.58" width="3.50" shape="-855.38,-191.15 -871.52,-193.31 -887.67,-195.47"/>
    </edge>
    <edge id=":72_1" function="internal">
        <lane id=":72_1_0" index="0" disallow="pedestrian tram rail_urban rail rail_electric rail_fast ship" speed="11.00" length="30.23" width="3.50" shape="-855.38,-191.15 -858.02,-191.69 -859.39,-192.14 -860.69,-192.74 -861.94,-193.49 -863.09,-194.41 -864.11,-195.49 -864.97,-196.68 -865.66,-197.96 -866.19,-199.29 -866.56,-200.65 -866.82,-202.01 -866.96,-203.39 -867.00,-206.03 -866.78,-208.65 -866.38,-211.22 -865.52,-214.96"/>
    </edge>
    <edge id=":72_2" function="internal">
        <lane id=":72_2_0" index="0" disallow="pedestrian tram rail_urban rail rail_electric rail_fast ship" speed="9.85" length="24.16" width="3.50" shape="-862.14,-214.06 -862.88,-210.84 -863.24,-208.68 -863.45,-206.49 -863.47,-204.29 -863.38,-203.20 -863.22,-202.11 -862.97,-201.04 -862.61,-200.00 -862.14,-199.01 -861.55,-198.08 -860.84,-197.25 -860.01,-196.53 -859.09,-195.92 -858.11,-195.44 -857.07,-195.07 -854.93,-194.62"/>
    </edge>
    <edge id=":72_3" function="internal">
        <lane id=":72_3_0" index="0" disallow="pedestrian tram rail_urban rail rail_electric rail_fast ship" speed="12.98" length="35.27" width="3.50" shape="-862.14,-214.06 -863.26,-210.45 -864.74,-206.97 -865.95,-204.76 -867.37,-202.68 -869.02,-200.77 -870.90,-199.09 -872.99,-197.69 -875.26,-196.60 -877.66,-195.83 -880.13,-195.36 -882.65,-195.17 -885.17,-195.22 -887.67,-195.47"/>
    </edge>
    <edge id=":72_4" function="internal">
        <lane id=":72_4_0" index="0" disallow="pedestrian tram rail_urban rail rail_electric rail_fast ship" speed="12.03" length="30.19" width="3.50" shape="-887.22,-198.94 -885.01,-198.72 -882.83,-198.67 -880.69,-198.84 -878.60,-199.24 -876.60,-199.90 -874.72,-200.81 -872.99,-201.99 -871.43,-203.40 -870.05,-205.01 -868.84,-206.79 -867.80,-208.69 -866.51,-211.76 -865.52,-214.96"/>
    </edge>
    <edge id=":72_5" function="internal">
        <lane id=":72_5_0" index="0" disallow="pedestrian tram rail_urban rail rail_electric rail_fast ship" speed="36.11" length="32.58" width="3.50" shape="-887.22,-198.94 -871.06,-196.78 -854.93,-194.62"/>
    </edge>
    <edge id=":73_0" function="internal">
        <lane id=":73_0_0" index="0" disallow="pedestrian tram rail_urban rail rail_electric rail_fast ship" speed="11.02" length="28.47" width="3.50" shape="-901.55,-197.38 -904.83,-197.66 -907.02,-197.62 -909.20,-197.36 -911.32,-196.82 -912.35,-196.43 -913.34,-195.96 -914.28,-195.41 -915.17,-194.77 -916.00,-194.05 -916.76,-193.26 -917.45,-192.41 -918.07,-191.50 -919.09,-189.57 -919.87,-187.51 -920.42,-185.39 -920.93,-182.18"/>
    </edge>
    <edge id=":73_1" function="internal">
        <lane id=":73_1_0" index="0" disallow="pedestrian tram rail_urban rail rail_electric rail_fast ship" speed="36.11" length="37.15" width="3.50" shape="-901.55,-197.38 -916.91,-199.29 -934.33,-201.41 -938.41,-201.99"/>
    </edge>
    <edge id=":73_2" function="internal">
        <lane id=":73_2_0" index="0" disallow="pedestrian tram rail_urban rail rail_electric rail_fast ship" speed="36.11" length="37.09" width="3.50" shape="-937.91,-205.45 -933.85,-204.88 -916.45,-202.76 -901.11,-200.85"/>
    </edge>
    <edge id=":73_3" function="internal">
        <lane id=":73_3_0" index="0" disallow="pedestrian tram rail_urban rail rail_electric rail_fast ship" speed="12.11" length="32.65" width="3.50" shape="-937.91,-205.45 -935.40,-204.98 -932.93,-204.28 -930.51,-203.31 -928.23,-202.02 -927.12,-201.22 -926.10,-200.34 -925.15,-199.37 -924.29,-198.32 -923.53,-197.21 -922.85,-196.00 -921.85,-193.58 -921.18,-191.04 -920.83,-188.48 -920.73,-185.91 -920.93,-182.18"/>
    </edge>
    <edge id=":73_4" function="internal">
        <lane id=":73_4_0" index="0" disallow="pedestrian tram rail_urban rail rail_electric rail_fast ship" speed="11.08" length="27.22" width="3.50" shape="-924.41,-182.54 -924.23,-185.77 -924.32,-187.95 -924.61,-190.11 -925.15,-192.23 -925.97,-194.24 -926.50,-195.20 -927.11,-196.10 -927.80,-196.95 -928.56,-197.73 -929.38,-198.45 -930.26,-199.09 -932.15,-200.17 -934.17,-200.99 -936.27,-201.59 -938.41,-201.99"/>
    </edge>
    <edge id=":73_5" function="internal">
        <lane id=":73_5_0" index="0" disallow="pedestrian tram rail_urban rail rail_electric rail_fast ship" speed="12.03" length="34.14" width="3.50" shape="-924.41,-182.54 -923.82,-186.27 -923.16,-188.78 -922.24,-191.22 -921.01,-193.54 -920.24,-194.68 -919.39,-195.74 -918.44,-196.72 -917.41,-197.61 -916.29,-198.41 -915.12,-199.10 -913.89,-199.68 -912.60,-200.16 -910.06,-200.81 -907.46,-201.13 -904.86,-201.17 -901.11,-200.85"/>
    </edge>
    <edge id=":74_0" function="internal">
        <lane id=":74_0_0" index="0" disallow="pedestrian tram rail_urban rail rail_electric rail_fast ship" speed="8.28" length="15.42" width="3.50" shape="-825.75,-187.13 -829.29,-187.45 -832.24,-187.39 -834.57,-187.07 -836.84,-186.43 -838.46,-185.71 -839.96,-184.77 -840.46,-184.34"/>
    </edge>
    <edge id=":74_1" function="internal">
        <lane id=":74_1_0" index="0" disallow="pedestrian tram rail_urban rail rail_electric rail_fast ship" speed="36.11" length="29.65" width="3.50" shape="-825.75,-187.13 -840.44,-189.12 -855.13,-191.12"/>
    </edge>
    <edge id=":74_2" function="internal">
        <lane id=":74_2_0" index="0" disallow="pedestrian tram rail_urban rail rail_electric rail_fast ship" speed="36.11" length="29.67" width="3.50" shape="-854.69,-194.59 -839.97,-192.59 -825.29,-190.60"/>
    </edge>
    <edge id=":74_3" function="internal">
        <lane id=":74_3_0" index="0" disallow="pedestrian tram rail_urban rail rail_electric rail_fast ship" speed="8.07" length="14.26" width="3.50" shape="-854.69,-194.59 -852.99,-194.25 -851.38,-193.66 -849.90,-192.78 -848.62,-191.64 -847.58,-190.27 -846.76,-188.76 -846.00,-186.60 -845.68,-184.98"/>
    </edge>
    <edge id=":75_0" function="internal">
        <lane id=":75_0_0" index="0" disallow="pedestrian tram rail_urban rail rail_electric rail_fast ship" speed="10.99" length="29.19" width="3.50" shape="-824.58,-284.86 -827.99,-285.85 -830.23,-286.26 -832.48,-286.43 -834.72,-286.29 -835.75,-286.10 -836.79,-285.83 -837.79,-285.45 -838.75,-284.99 -839.65,-284.43 -840.51,-283.79 -841.30,-283.07 -842.03,-282.30 -843.37,-280.49 -844.47,-278.52 -845.38,-276.42 -846.46,-273.04"/>
    </edge>
    <edge id=":75_1" function="internal">
        <lane id=":75_1_0" index="0" disallow="pedestrian tram rail_urban rail rail_electric rail_fast ship" speed="36.11" length="27.21" width="3.50" shape="-849.44,-296.27 -843.84,-294.45 -827.80,-289.62 -823.47,-288.17"/>
    </edge>
    <edge id=":75_2" function="internal">
        <lane id=":75_2_0" index="0" disallow="pedestrian tram rail_urban rail rail_electric rail_fast ship" speed="10.52" length="22.58" width="3.50" shape="-850.30,-294.20 -849.48,-293.35 -848.13,-291.56 -847.03,-289.59 -846.20,-287.50 -845.65,-285.32 -845.31,-282.53 -845.33,-279.71 -845.73,-276.36 -846.46,-273.04"/>
    </edge>
    <edge id=":75_3" function="internal">
        <lane id=":75_3_0" index="0" disallow="pedestrian tram rail_urban rail rail_electric rail_fast ship" speed="12.00" length="35.03" width="3.50" shape="-849.85,-273.94 -848.60,-277.81 -847.53,-280.28 -846.22,-282.63 -844.61,-284.79 -843.69,-285.77 -842.69,-286.68 -841.62,-287.48 -840.47,-288.19 -839.26,-288.77 -837.99,-289.24 -836.69,-289.59 -835.37,-289.83 -832.68,-289.98 -830.00,-289.79 -827.35,-289.30 -823.47,-288.17"/>
    </edge>
    <edge id=":76_0" function="internal">
        <lane id=":76_0_0" index="0" disallow="pedestrian tram rail_urban rail rail_electric rail_fast ship" speed="36.11" length="31.86" width="3.50" shape="-938.65,-202.02 -942.90,-202.82 -948.07,-204.20 -954.11,-206.23 -960.99,-208.96 -968.66,-212.40"/>
    </edge>
    <edge id=":76_1" function="internal">
        <lane id=":76_1_0" index="0" disallow="pedestrian tram rail_urban rail rail_electric rail_fast ship" speed="8.59" length="18.61" width="3.50" shape="-938.65,-202.02 -941.07,-202.50 -943.40,-203.27 -945.06,-204.07 -946.58,-205.11 -947.90,-206.39 -948.97,-207.89 -949.76,-209.55 -950.27,-211.32 -950.59,-213.75 -950.59,-213.94"/>
    </edge>
    <edge id=":76_2" function="internal">
        <lane id=":76_2_0" index="0" disallow="pedestrian tram rail_urban rail rail_electric rail_fast ship" speed="7.29" length="12.55" width="3.50" shape="-967.19,-215.58 -964.97,-214.67 -962.66,-214.07 -960.88,-213.87 -959.10,-213.97 -957.36,-214.39 -955.73,-215.14 -955.23,-215.49"/>
    </edge>
    <edge id=":76_3" function="internal">
        <lane id=":76_3_0" index="0" disallow="pedestrian tram rail_urban rail rail_electric rail_fast ship" speed="36.11" length="30.84" width="3.50" shape="-967.19,-215.58 -959.68,-212.20 -953.00,-209.55 -947.16,-207.58 -942.20,-206.25 -938.15,-205.48"/>
    </edge>
    <edge id=":77_0" function="internal">
        <lane id=":77_0_0" index="0" disallow="pedestrian tram rail_urban rail rail_electric rail_fast ship" speed="36.11" length="38.80" width="3.50" shape="-779.89,-180.62 -799.09,-183.35 -818.30,-186.08"/>
    </edge>
    <edge id=":77_1" function="internal">
        <lane id=":77_1_0" index="0" disallow="pedestrian tram rail_urban rail rail_electric rail_fast ship" speed="12.03" length="33.97" width="3.50" shape="-779.89,-180.62 -782.37,-181.07 -784.83,-181.70 -787.26,-182.57 -789.61,-183.72 -791.79,-185.18 -792.83,-186.08 -793.78,-187.05 -794.64,-188.10 -795.40,-189.22 -796.06,-190.40 -796.61,-191.63 -797.06,-192.92 -797.65,-195.46 -797.91,-198.05 -797.90,-200.64 -797.49,-204.40"/>
    </edge>
    <edge id=":77_2" function="internal">
        <lane id=":77_2_0" index="0" disallow="pedestrian tram rail_urban rail rail_electric rail_fast ship" speed="11.02" length="28.33" width="3.48" shape="-794.04,-203.84 -794.39,-200.59 -794.40,-198.41 -794.18,-196.24 -793.69,-194.12 -793.33,-193.09 -792.88,-192.10 -792.35,-191.15 -791.74,-190.25 -791.05,-189.40 -790.28,-188.62 -789.46,-187.91 -787.65,-186.70 -785.69,-185.74 -783.64,-185.01 -781.53,-184.47 -779.38,-184.09"/>
    </edge>
    <edge id=":77_3" function="internal">
        <lane id=":77_3_0" index="0" disallow="pedestrian tram rail_urban rail rail_electric rail_fast ship" speed="12.36" length="34.33" width="3.50" shape="-794.04,-203.84 -794.88,-199.97 -795.70,-197.46 -796.77,-195.05 -798.14,-192.79 -798.94,-191.74 -799.82,-190.76 -800.78,-189.85 -801.81,-189.03 -802.91,-188.30 -804.07,-187.66 -805.28,-187.13 -807.79,-186.33 -810.39,-185.88 -813.03,-185.72 -815.67,-185.80 -818.30,-186.08"/>
    </edge>
    <edge id=":77_4" function="internal">
        <lane id=":77_4_0" index="0" disallow="pedestrian tram rail_urban rail rail_electric rail_fast ship" speed="11.36" length="28.84" width="3.50" shape="-817.83,-189.55 -815.52,-189.30 -813.24,-189.23 -811.00,-189.37 -808.82,-189.74 -806.71,-190.41 -805.76,-190.83 -804.82,-191.34 -803.94,-191.93 -803.11,-192.59 -802.33,-193.32 -801.62,-194.12 -800.98,-194.95 -799.82,-196.85 -798.92,-198.89 -798.22,-201.02 -797.49,-204.40"/>
    </edge>
    <edge id=":77_5" function="internal">
        <lane id=":77_5_0" index="0" disallow="pedestrian tram rail_urban rail rail_electric rail_fast ship" speed="36.11" length="38.84" width="3.48" shape="-817.83,-189.55 -798.60,-186.82 -779.38,-184.09"/>
    </edge>
    <edge id=":78_0" function="internal">
        <lane id=":78_0_0" index="0" disallow="pedestrian tram rail_urban rail rail_electric rail_fast ship" speed="10.26" length="25.47" width="3.50" shape="-968.87,-212.50 -970.98,-213.36 -973.14,-213.92 -974.17,-214.04 -975.22,-214.07 -976.26,-213.99 -977.27,-213.80 -978.26,-213.49 -979.20,-213.06 -980.11,-212.53 -980.96,-211.90 -981.78,-211.18 -982.53,-210.41 -983.94,-208.62 -985.16,-206.67 -986.23,-204.61 -987.61,-201.34"/>
    </edge>
    <edge id=":78_1" function="internal">
        <lane id=":78_1_0" index="0" disallow="pedestrian tram rail_urban rail rail_electric rail_fast ship" speed="36.11" length="34.12" width="3.50" shape="-968.87,-212.50 -991.22,-223.30 -999.55,-227.42"/>
    </edge>
    <edge id=":78_2" function="internal">
        <lane id=":78_2_0" index="0" disallow="pedestrian tram rail_urban rail rail_electric rail_fast ship" speed="36.11" length="34.02" width="3.50" shape="-997.99,-230.56 -989.68,-226.44 -967.40,-215.68"/>
    </edge>
    <edge id=":78_3" function="internal">
        <lane id=":78_3_0" index="0" disallow="pedestrian tram rail_urban rail rail_electric rail_fast ship" speed="12.77" length="34.71" width="3.50" shape="-997.99,-230.56 -995.78,-229.35 -993.66,-227.95 -991.66,-226.34 -989.85,-224.48 -988.27,-222.38 -987.01,-220.07 -986.11,-217.59 -985.58,-215.02 -985.39,-212.42 -985.51,-209.86 -985.88,-207.34 -986.46,-204.88 -987.61,-201.34"/>
    </edge>
    <edge id=":78_4" function="internal">
        <lane id=":78_4_0" index="0" disallow="pedestrian tram rail_urban rail rail_electric rail_fast ship" speed="11.81" length="29.52" width="3.50" shape="-990.89,-202.57 -989.87,-205.69 -989.37,-207.82 -989.04,-209.98 -988.94,-212.16 -989.08,-214.35 -989.51,-216.49 -990.24,-218.55 -991.28,-220.47 -992.58,-222.23 -994.11,-223.79 -995.81,-225.17 -997.63,-226.38 -999.55,-227.42"/>
    </edge>
    <edge id=":78_5" function="internal">
        <lane id=":78_5_0" index="0" disallow="pedestrian tram rail_urban rail rail_electric rail_fast ship" speed="11.34" length="31.33" width="3.50" shape="-990.89,-202.57 -989.29,-206.33 -988.03,-208.74 -986.56,-211.04 -984.84,-213.15 -983.88,-214.12 -982.84,-215.00 -981.73,-215.78 -980.54,-216.44 -979.28,-216.97 -977.97,-217.35 -976.63,-217.57 -975.27,-217.65 -973.91,-217.59 -972.56,-217.40 -969.93,-216.71 -967.40,-215.68"/>
    </edge>
    <edge id=":79_0" function="internal">
        <lane id=":79_0_0" index="0" disallow="pedestrian tram rail_urban rail rail_electric rail_fast ship" speed="4.12" length="3.07" width="3.50" shape="-936.73,-278.59 -935.66,-278.92 -934.05,-279.71 -933.92,-279.80"/>
    </edge>
    <edge id=":79_1" function="internal">
        <lane id=":79_1_0" index="0" disallow="pedestrian tram rail_urban rail rail_electric rail_fast ship" speed="36.11" length="11.50" width="3.50" shape="-934.40,-267.81 -932.44,-273.59 -930.71,-278.70"/>
    </edge>
    <edge id=":80_0" function="internal">
        <lane id=":80_0_0" index="0" disallow="pedestrian tram rail_urban rail rail_electric rail_fast ship" speed="6.24" length="8.11" width="3.48" shape="-921.37,-323.51 -919.73,-323.22 -918.07,-323.16 -916.98,-323.30 -915.93,-323.64 -915.04,-324.28 -914.28,-325.56"/>
    </edge>
    <edge id=":80_1" function="internal">
        <lane id=":80_1_0" index="0" disallow="pedestrian tram rail_urban rail rail_electric rail_fast ship" speed="36.11" length="11.04" width="3.48" shape="-918.12,-315.21 -916.11,-320.90 -914.28,-325.56"/>
    </edge>
    <edge id=":81_0" function="internal">
        <lane id=":81_0_0" index="0" disallow="pedestrian tram rail_urban rail rail_electric rail_fast ship" speed="11.23" length="28.64" width="3.50" shape="-760.12,-263.02 -762.34,-263.63 -764.56,-264.06 -766.77,-264.26 -768.95,-264.21 -771.10,-263.84 -772.09,-263.55 -773.07,-263.17 -774.02,-262.70 -774.92,-262.16 -775.76,-261.56 -777.36,-260.08 -778.74,-258.38 -779.93,-256.51 -780.94,-254.51 -782.19,-251.30"/>
    </edge>
    <edge id=":81_1" function="internal">
        <lane id=":81_1_0" index="0" disallow="pedestrian tram rail_urban rail rail_electric rail_fast ship" speed="36.11" length="38.35" width="3.50" shape="-760.12,-263.02 -780.84,-269.73 -796.52,-275.08"/>
    </edge>
    <edge id=":81_2" function="internal">
        <lane id=":81_2_0" index="0" disallow="pedestrian tram rail_urban rail rail_electric rail_fast ship" speed="36.11" length="38.22" width="3.50" shape="-795.37,-278.39 -779.73,-273.05 -759.09,-266.36"/>
    </edge>
    <edge id=":81_3" function="internal">
        <lane id=":81_3_0" index="0" disallow="pedestrian tram rail_urban rail rail_electric rail_fast ship" speed="12.30" length="34.36" width="3.50" shape="-795.37,-278.39 -792.98,-277.46 -790.65,-276.34 -788.41,-274.99 -786.31,-273.38 -784.44,-271.49 -783.58,-270.39 -782.84,-269.25 -782.19,-268.04 -781.65,-266.79 -781.22,-265.49 -780.90,-264.17 -780.68,-262.81 -780.54,-260.18 -780.72,-257.56 -781.16,-254.99 -782.19,-251.30"/>
    </edge>
    <edge id=":81_4" function="internal">
        <lane id=":81_4_0" index="0" disallow="pedestrian tram rail_urban rail rail_electric rail_fast ship" speed="11.31" length="28.84" width="3.50" shape="-785.51,-252.39 -784.62,-255.61 -784.24,-257.80 -784.09,-260.01 -784.21,-262.22 -784.38,-263.32 -784.64,-264.40 -784.99,-265.45 -785.43,-266.47 -785.95,-267.45 -786.56,-268.37 -787.24,-269.25 -788.79,-270.83 -790.55,-272.18 -792.45,-273.32 -794.45,-274.28 -796.52,-275.08"/>
    </edge>
    <edge id=":81_5" function="internal">
        <lane id=":81_5_0" index="0" disallow="pedestrian tram rail_urban rail rail_electric rail_fast ship" speed="12.23" length="34.15" width="3.50" shape="-785.51,-252.39 -784.07,-256.07 -782.89,-258.42 -781.48,-260.63 -779.82,-262.66 -777.89,-264.44 -776.82,-265.21 -775.70,-265.89 -774.52,-266.46 -773.29,-266.93 -772.03,-267.30 -769.44,-267.74 -766.82,-267.80 -764.21,-267.56 -761.63,-267.06 -759.09,-266.36"/>
    </edge>
    <edge id=":82_0" function="internal">
        <lane id=":82_0_0" index="0" disallow="pedestrian tram rail_urban rail rail_electric rail_fast ship" speed="6.60" length="9.22" width="3.50" shape="-914.21,-325.74 -914.03,-326.54 -914.03,-327.70 -914.37,-328.80 -914.96,-329.79 -916.12,-331.07 -917.96,-332.47 -918.74,-332.91"/>
    </edge>
    <edge id=":82_1" function="internal">
        <lane id=":82_1_0" index="0" disallow="pedestrian tram rail_urban rail rail_electric rail_fast ship" speed="6.29" length="8.02" width="3.48" shape="-914.21,-325.74 -913.78,-326.40 -912.98,-327.18 -912.00,-327.72 -910.38,-328.13 -908.71,-328.20 -907.07,-328.03"/>
    </edge>
    <edge id=":83_0" function="internal">
        <lane id=":83_0_0" index="0" disallow="pedestrian tram rail_urban rail rail_electric rail_fast ship" speed="6.22" length="8.69" width="3.50" shape="-929.57,-337.27 -930.09,-337.40 -931.80,-337.62 -933.51,-337.56 -934.62,-337.27 -935.61,-336.70 -936.36,-335.84 -936.85,-334.65"/>
    </edge>
    <edge id=":83_1" function="internal">
        <lane id=":83_1_0" index="0" disallow="pedestrian tram rail_urban rail rail_electric rail_fast ship" speed="7.14" length="10.52" width="3.50" shape="-939.29,-343.90 -938.57,-343.35 -937.35,-342.05 -936.70,-341.06 -936.24,-339.97 -936.01,-338.80 -936.01,-337.62 -936.41,-335.88 -936.85,-334.65"/>
    </edge>

    <edge id="60598" from="76" to="78" priority="3" type="highway.residential" spreadType="center" length="0.27" shape="-952.39,-210.51 -985.62,-213.28">
        <lane id="60598_0" index="0" disallow="pedestrian tram rail_urban rail rail_electric rail_fast ship" speed="36.11" length="0.27" width="3.50" customShape="1" shape="-968.66,-212.40 -968.90,-212.52"/>
    </edge>
    <edge id="60599" from="78" to="76" priority="3" type="highway.residential" spreadType="center" length="0.28" shape="-985.33,-216.76 -952.10,-214.00">
        <lane id="60599_0" index="0" disallow="pedestrian tram rail_urban rail rail_electric rail_fast ship" speed="36.11" length="0.28" width="3.50" customShape="1" shape="-967.40,-215.68 -967.30,-215.63 -967.15,-215.56"/>
    </edge>
    <edge id="60601" from="73" to="76" priority="3" type="highway.residential" spreadType="center" length="0.29" shape="-921.56,-193.53 -953.15,-210.76">
        <lane id="60601_0" index="0" disallow="pedestrian tram rail_urban rail rail_electric rail_fast ship" speed="36.11" length="0.29" width="3.50" customShape="1" shape="-938.41,-201.99 -938.54,-202.00 -938.70,-202.03"/>
    </edge>
    <edge id="60602" from="76" to="73" priority="3" type="highway.residential" spreadType="center" length="0.26" shape="-951.48,-213.83 -919.88,-196.60">
        <lane id="60602_0" index="0" disallow="pedestrian tram rail_urban rail rail_electric rail_fast ship" speed="36.11" length="0.26" width="3.50" customShape="1" shape="-938.15,-205.48 -938.03,-205.47 -937.89,-205.45"/>
    </edge>
    <edge id="60604" from="72" to="73" priority="3" type="highway.residential" spreadType="center" length="14.05" shape="-868.60,-199.80 -920.56,-193.32">
        <lane id="60604_0" index="0" disallow="pedestrian tram rail_urban rail rail_electric rail_fast ship" speed="36.11" length="14.05" width="3.50" customShape="1" shape="-887.67,-195.47 -894.61,-196.43 -901.59,-197.39"/>
    </edge>
    <edge id="60605" from="73" to="72" priority="3" type="highway.residential" spreadType="center" length="14.04" shape="-920.99,-196.79 -869.03,-203.27">
        <lane id="60605_0" index="0" disallow="pedestrian tram rail_urban rail rail_electric rail_fast ship" speed="36.11" length="14.04" width="3.50" customShape="1" shape="-901.11,-200.85 -894.13,-199.89 -887.20,-198.94"/>
    </edge>
    <edge id="60607" from="74" to="72" priority="3" type="highway.residential" spreadType="center" length="0.29" shape="-842.00,-185.79 -869.62,-199.98">
        <lane id="60607_0" index="0" disallow="pedestrian tram rail_urban rail rail_electric rail_fast ship" speed="36.11" length="0.29" width="3.50" customShape="1" shape="-855.13,-191.12 -855.25,-191.13 -855.42,-191.16"/>
    </edge>
    <edge id="60608" from="72" to="74" priority="3" type="highway.residential" spreadType="center" length="0.27" shape="-868.02,-203.09 -840.40,-188.89">
        <lane id="60608_0" index="0" disallow="pedestrian tram rail_urban rail rail_electric rail_fast ship" speed="36.11" length="0.27" width="3.50" customShape="1" shape="-854.93,-194.62 -854.80,-194.61 -854.66,-194.59"/>
    </edge>
    <edge id="60610" from="77" to="74" priority="3" type="highway.residential" spreadType="center" length="7.54" shape="-797.59,-189.70 -841.13,-185.64">
        <lane id="60610_0" index="0" disallow="pedestrian tram rail_urban rail rail_electric rail_fast ship" speed="36.11" length="7.54" width="3.50" customShape="1" shape="-818.30,-186.08 -822.03,-186.61 -825.77,-187.13"/>
    </edge>
    <edge id="60611" from="74" to="77" priority="3" type="highway.residential" spreadType="center" length="7.55" shape="-841.45,-189.13 -797.92,-193.18">
        <lane id="60611_0" index="0" disallow="pedestrian tram rail_urban rail rail_electric rail_fast ship" speed="36.11" length="7.55" width="3.50" customShape="1" shape="-825.29,-190.60 -821.54,-190.07 -817.81,-189.55"/>
    </edge>
    <edge id="60613" from="60" to="77" priority="3" type="highway.residential" spreadType="center" length="69.99" shape="-724.63,-198.40 -797.66,-189.69">
        <lane id="60613_0" index="0" disallow="pedestrian tram rail_urban rail rail_electric rail_fast ship" speed="36.11" length="69.99" width="3.50" customShape="1" shape="-724.63,-198.40 -726.11,-193.50 -728.08,-188.14 -730.38,-182.92 -732.05,-179.70 -733.29,-178.03 -734.43,-176.98 -735.30,-176.41 -736.24,-175.97 -737.73,-175.52 -739.79,-175.30 -746.53,-175.63 -751.68,-176.20 -762.42,-178.05 -779.90,-180.63"/>
    </edge>
    <edge id="60614" from="77" to="44" priority="3" type="highway.residential" spreadType="center" length="70.00" shape="-798.13,-193.14 -726.75,-204.25">