<routes>
	<vehicle depart="0.1" departLane="0" departPos="48.98471326765759" departSpeed="0.0" id="38" type="passenger">
		<route edges="60967 60610"/>
	</vehicle>
	<vehicle depart="0.1" departLane="0" departPos="41.540602526621775" departSpeed="1.5389446e-05" id="317" type="passenger">
		<route edges="60967 60610"/>
	</vehicle>
	<vehicle depart="0.1" departLane="0" departPos="34.10140012705281" departSpeed="18.063935" id="343" type="passenger">
		<route edges=":77_3 60610 60607 60604"/>
	</vehicle>
	<vehicle depart="0.1" departLane="0" departPos="54.2299664638827" departSpeed="17.303141" id="346" type="passenger">
		<route edges="60613 60610 60607"/>
	</vehicle>
	<vehicle depart="0.1" departLane="0" departPos="36.08316412329079" departSpeed="8.0865031" id="352" type="passenger">
		<route edges="60613 60610"/>
	</vehicle>
</routes>
