<routes>
	<vehicle depart="0.1" departLane="0" departPos="45.567286532331416" departSpeed="0.0" id="38" type="bicycle">
		<route edges="44433 44381"/>
	</vehicle>
	<vehicle depart="0.1" departLane="0" departPos="17.67219373669495" departSpeed="5.7497301" id="311" type="bicycle">
		<route edges=":51_1 44377"/>
	</vehicle>
	<vehicle depart="0.1" departLane="0" departPos="49.81771785788421" departSpeed="6.7002281" id="338" type="bus">
		<route edges="44380 44377"/>
	</vehicle>
	<vehicle depart="0.1" departLane="0" departPos="42.17816159091101" departSpeed="0.62880881" id="316" type="passenger">
		<route edges="44381 44590"/>
	</vehicle>
	<vehicle depart="0.1" departLane="0" departPos="34.25089345410778" departSpeed="1.0139058" id="318" type="passenger">
		<route edges="44381 44590"/>
	</vehicle>
	<vehicle depart="0.1" departLane="0" departPos="26.749068347271702" departSpeed="0.24208769" id="320" type="passenger">
		<route edges="44381 44590"/>
	</vehicle>
	<vehicle depart="0.1" departLane="0" departPos="18.623077397999168" departSpeed="0.034480198" id="331" type="passenger">
		<route edges="44381 44590"/>
	</vehicle>
	<vehicle depart="0.1" departLane="0" departPos="8.838567558788974" departSpeed="0.74714547" id="339" type="passenger">
		<route edges="44381 44590"/>
	</vehicle>
	<vehicle depart="0.1" departLane="0" departPos="45.49237130219627" departSpeed="0.0" id="34" type="motorcycle">
		<route edges="44433 44381"/>
	</vehicle>
	<vehicle depart="0.1" departLane="0" departPos="34.13761534285989" departSpeed="0.58363117" id="30" type="truck">
		<route edges=":51_5 44381 44590"/>
	</vehicle>
</routes>
