<!-- generated on 2020-12-18 15:53:55.104950 by ipykernel_launcher.py v1_2_0+5214-53edc58fcd
-->
<connections>
	<connection contPos="-4.0" from="73" fromLane="5" keepClear="true" to="24" toLane="4"/>
	<connection contPos="-4.0" from="73" fromLane="4" keepClear="true" to="24" toLane="3"/>
	<connection contPos="-4.0" from="73" fromLane="3" keepClear="true" to="24" toLane="2"/>
	<connection contPos="-4.0" from="73" fromLane="2" keepClear="true" to="24" toLane="1"/>
	<connection contPos="-4.0" from="73" fromLane="1" keepClear="true" to="24" toLane="0"/>
	<connection contPos="-4.0" from="73" fromLane="0" keepClear="true" to="74" toLane="0"/>
</connections>
