<routes>
	<vehicle depart="0.1" departLane="1" departPos="20.995004557906228" departSpeed="16.764" id="8" type="passenger">
		<route edges="24"/>
	</vehicle>
	<vehicle depart="0.1" departLane="4" departPos="15.56835314805918" departSpeed="15.24" id="12" type="passenger">
		<route edges="24"/>
	</vehicle>
	<vehicle depart="0.1" departLane="1" departPos="122.23775257609512" departSpeed="10.1346" id="14" type="passenger">
		<route edges="73 24"/>
	</vehicle>
	<vehicle depart="0.1" departLane="2" departPos="12.433347839580787" departSpeed="16.767" id="20" type="passenger">
		<route edges="24"/>
	</vehicle>
	<vehicle depart="0.1" departLane="2" departPos="153.54076443925962" departSpeed="15.6454" id="21" type="passenger">
		<route edges="73 24"/>
	</vehicle>
	<vehicle depart="0.1" departLane="3" departPos="17.733973269175785" departSpeed="16.764" id="22" type="passenger">
		<route edges="24"/>
	</vehicle>
	<vehicle depart="0.1" departLane="5" departPos="153.80196456107873" departSpeed="15.24" id="23" type="passenger">
		<route edges="73 24"/>
	</vehicle>
	<vehicle depart="0.1" departLane="2" departPos="114.37572556005112" departSpeed="14.481" id="25" type="passenger">
		<route edges="73 24"/>
	</vehicle>
	<vehicle depart="0.1" departLane="4" departPos="153.71270672455225" departSpeed="16.8097" id="26" type="passenger">
		<route edges="73 24"/>
	</vehicle>
	<vehicle depart="0.1" departLane="5" departPos="117.49814063404625" departSpeed="13.716" id="27" type="passenger">
		<route edges="73 24"/>
	</vehicle>
	<vehicle depart="0.1" departLane="1" departPos="104.4325726497805" departSpeed="12.9083" id="31" type="passenger">
		<route edges="73 73 24"/>
	</vehicle>
	<vehicle depart="0.1" departLane="4" departPos="121.09240258630807" departSpeed="16.764" id="32" type="passenger">
		<route edges="73 24"/>
	</vehicle>
	<vehicle depart="0.1" departLane="1" departPos="83.91223968799072" departSpeed="10.668" id="33" type="passenger">
		<route edges="73 24"/>
	</vehicle>
	<vehicle depart="0.1" departLane="2" departPos="91.99835343517391" departSpeed="13.8714" id="34" type="passenger">
		<route edges="73 24"/>
	</vehicle>
	<vehicle depart="0.1" departLane="0" departPos="0" departSpeed="25.8867" id="35" type="passenger">
		<route edges="74"/>
	</vehicle>
	<vehicle depart="0.1" departLane="4" departPos="97.16716525738103" departSpeed="13.716" id="37" type="passenger">
		<route edges="73 24"/>
	</vehicle>
	<vehicle depart="0.1" departLane="5" departPos="101.78391730670133" departSpeed="12.5669" id="39" type="passenger">
		<route edges="73 24"/>
	</vehicle>
	<vehicle depart="0.1" departLane="3" departPos="118.62454027196625" departSpeed="17.523" id="40" type="passenger">
		<route edges="73 24"/>
	</vehicle>
	<vehicle depart="0.1" departLane="1" departPos="71.10000061847333" departSpeed="10.668" id="42" type="passenger">
		<route edges="73 24"/>
	</vehicle>
	<vehicle depart="0.1" departLane="5" departPos="84.68864397436464" departSpeed="14.6578" id="43" type="passenger">
		<route edges="73 24"/>
	</vehicle>
	<vehicle depart="0.1" departLane="3" departPos="91.15866987418353" departSpeed="19.5042" id="44" type="passenger">
		<route edges="73 24"/>
	</vehicle>
	<vehicle depart="0.1" departLane="3" departPos="71.96291743478709" departSpeed="15.24" id="47" type="passenger">
		<route edges="73 24"/>
	</vehicle>
	<vehicle depart="0.1" departLane="1" departPos="56.1457301946233" departSpeed="11.0795" id="48" type="passenger">
		<route edges="73 24"/>
	</vehicle>
	<vehicle depart="0.1" departLane="4" departPos="61.450751416743124" departSpeed="17.3797" id="49" type="passenger">
		<route edges="73 24"/>
	</vehicle>
	<vehicle depart="0.1" departLane="0" departPos="60.196897691088736" departSpeed="21.0251" id="53" type="passenger">
		<route edges="73 74"/>
	</vehicle>
	<vehicle depart="0.1" departLane="5" departPos="51.79973963950819" departSpeed="18.0076" id="54" type="passenger">
		<route edges="73 24"/>
	</vehicle>
	<vehicle depart="0.1" departLane="4" departPos="29.358577184314672" departSpeed="14.8377" id="56" type="passenger">
		<route edges="73 73 24"/>
	</vehicle>
	<vehicle depart="0.1" departLane="3" departPos="27.508465079776997" departSpeed="16.1148" id="57" type="passenger">
		<route edges="73 24"/>
	</vehicle>
	<vehicle depart="0.1" departLane="5" departPos="11.733405725294638" departSpeed="15.7886" id="59" type="passenger">
		<route edges="73 24"/>
	</vehicle>
	<vehicle depart="0.1" departLane="1" departPos="22.657697904601577" departSpeed="14.3652" id="60" type="passenger">
		<route edges="73 24"/>
	</vehicle>
	<vehicle depart="0.1" departLane="2" departPos="19.95280658960901" departSpeed="14.0391" id="62" type="passenger">
		<route edges="73 24"/>
	</vehicle>
	<vehicle depart="0.1" departLane="1" departPos="12.93571516132383" departSpeed="14.3439" id="63" type="passenger">
		<route edges="73 24"/>
	</vehicle>
	<vehicle depart="0.1" departLane="3" departPos="0" departSpeed="18.096" id="64" type="passenger">
		<route edges="73 73 24"/>
	</vehicle>
</routes>
