<routes>
	<vehicle depart="0.1" departLane="0" departPos="30.709873863457698" departSpeed="0.0" id="30" type="passenger">
		<route edges="31966 31669"/>
	</vehicle>
	<vehicle depart="0.1" departLane="0" departPos="18.43362351659722" departSpeed="7.5650825" id="37" type="passenger">
		<route edges=":42_0 31673"/>
	</vehicle>
	<vehicle depart="0.1" departLane="0" departPos="33.677674928152015" departSpeed="9.305171" id="315" type="passenger">
		<route edges=":42_0 31673"/>
	</vehicle>
	<vehicle depart="0.1" departLane="0" departPos="25.47708821092413" departSpeed="0.0" id="317" type="passenger">
		<route edges="31669 31715"/>
	</vehicle>
	<vehicle depart="0.1" departLane="0" departPos="24.039457209594488" departSpeed="0.0" id="320" type="passenger">
		<route edges="31966 31669"/>
	</vehicle>
	<vehicle depart="0.1" departLane="0" departPos="17.539114673810282" departSpeed="0.45749079" id="325" type="passenger">
		<route edges="31669 31715"/>
	</vehicle>
	<vehicle depart="0.1" departLane="0" departPos="18.39120212706889" departSpeed="8.4147015" id="329" type="passenger">
		<route edges=":42_5 31669"/>
	</vehicle>
	<vehicle depart="0.1" departLane="0" departPos="56.52619731751381" departSpeed="1.1669338" id="332" type="passenger">
		<route edges="31672 31669"/>
	</vehicle>
	<vehicle depart="0.1" departLane="0" departPos="49.03909774374497" departSpeed="0.61066011" id="334" type="passenger">
		<route edges="31672 31669"/>
	</vehicle>
	<vehicle depart="0.1" departLane="0" departPos="12.494180961995625" departSpeed="7.497382" id="346" type="motorcycle">
		<route edges="31670 31673"/>
	</vehicle>
</routes>
