<?xml version="1.0" encoding="UTF-8"?>

<!-- generated on Fri Dec 18 16:27:29 2020 by Eclipse SUMO netconvert Version 1.8.0
<configuration xmlns:xsi="http://www.w3.org/2001/XMLSchema-instance" xsi:noNamespaceSchemaLocation="http://sumo.dlr.de/xsd/netconvertConfiguration.xsd">

    <input>
        <node-files value="./converted_scenarios/SUMO/DEU_Muc-28_1_I-1-1/nodes.net.xml"/>
        <edge-files value="./converted_scenarios/SUMO/DEU_Muc-28_1_I-1-1/edges.net.xml"/>
        <connection-files value="./converted_scenarios/SUMO/DEU_Muc-28_1_I-1-1/_connections.net.xml"/>
        <tllogic-files value="./converted_scenarios/SUMO/DEU_Muc-28_1_I-1-1/_tll.net.xml"/>
    </input>

    <output>
        <output-file value="./converted_scenarios/SUMO/DEU_Muc-28_1_I-1-1/DEU_Muc-28_1_I-1-1.net.xml"/>
    </output>

    <processing>
        <plain.extend-edge-shape value="true"/>
        <geometry.remove.keep-edges.explicit value="true"/>
        <geometry.avoid-overlap value="true"/>
        <offset.disable-normalization value="true"/>
    </processing>

    <junctions>
        <no-turnarounds value="true"/>
        <junctions.internal-link-detail value="20"/>
    </junctions>

    <report>
        <aggregate-warnings value="5"/>
    </report>

    <random_number>
        <seed value="1234"/>
    </random_number>

</configuration>
-->

<net version="1.6" junctionCornerDetail="5" junctionLinkDetail="20" limitTurnSpeed="5.50" xmlns:xsi="http://www.w3.org/2001/XMLSchema-instance" xsi:noNamespaceSchemaLocation="http://sumo.dlr.de/xsd/net_file.xsd">

    <location netOffset="0.00,0.00" convBoundary="-54.13,-70.39,71.06,72.75" origBoundary="-54.13,-70.39,71.06,72.75" projParameter="!"/>

    <edge id=":12_0" function="internal">
        <lane id=":12_0_0" index="0" disallow="bus truck rail_fast" speed="6.14" length="8.12" width="2.50" shape="5.64,-40.23 5.50,-39.48 5.38,-38.77 5.28,-38.10 5.19,-37.46 5.13,-36.87 5.08,-36.31 5.05,-35.79 5.03,-35.31 5.04,-34.87 5.06,-34.46 5.10,-34.10 5.16,-33.77 5.24,-33.48 5.33,-33.23 5.45,-33.02 5.58,-32.85 5.72,-32.71 5.89,-32.62 6.07,-32.56"/>
    </edge>
    <edge id=":12_1" function="internal">
        <lane id=":12_1_0" index="0" disallow="rail_fast" speed="36.11" length="9.30" width="2.50" shape="5.64,-40.23 3.91,-31.09"/>
    </edge>
    <edge id=":13_0" function="internal">
        <lane id=":13_0_0" index="0" disallow="bus truck rail_fast" speed="19.35" length="6.83" width="2.50" shape="-9.50,20.82 -9.24,20.38 -9.00,19.99 -8.79,19.63 -8.60,19.31 -8.43,19.01 -8.27,18.73 -8.14,18.46 -8.01,18.21 -7.90,17.95 -7.80,17.70 -7.71,17.44 -7.62,17.17 -7.54,16.89 -7.47,16.58 -7.39,16.24 -7.31,15.87 -7.23,15.46 -7.15,15.01 -7.05,14.52"/>
    </edge>
    <edge id=":13_1" function="internal">
        <lane id=":13_1_0" index="0" disallow="bus truck rail_fast" speed="36.11" length="8.93" width="2.50" shape="-8.70,23.30 -7.05,14.52"/>
    </edge>
    <edge id=":14_0" function="internal">
        <lane id=":14_0_0" index="0" disallow="rail_fast" speed="36.11" length="8.56" width="2.50" shape="-0.17,-22.85 1.40,-31.26"/>
    </edge>
    <edge id=":14_1" function="internal">
        <lane id=":14_1_0" index="0" disallow="bus truck rail_fast" speed="8.36" length="9.57" width="2.50" shape="-0.17,-22.85 -0.04,-23.55 0.11,-24.21 0.27,-24.85 0.44,-25.45 0.63,-26.03 0.82,-26.57 1.03,-27.08 1.25,-27.56 1.48,-28.01 1.72,-28.43 1.97,-28.81 2.23,-29.17 2.51,-29.49 2.80,-29.79 3.09,-30.05 3.41,-30.28 3.73,-30.48 4.06,-30.65 4.41,-30.79"/>
    </edge>
    <edge id=":15_0" function="internal">
        <lane id=":15_0_0" index="0" disallow="bus truck rail_fast" speed="12.00" length="6.95" width="2.50" shape="5.12,-28.49 4.79,-28.11 4.49,-27.75 4.22,-27.43 3.98,-27.13 3.77,-26.85 3.59,-26.58 3.42,-26.33 3.28,-26.08 3.15,-25.83 3.04,-25.57 2.94,-25.31 2.85,-25.04 2.76,-24.74 2.68,-24.42 2.61,-24.08 2.53,-23.70 2.45,-23.29 2.36,-22.83 2.27,-22.33"/>
    </edge>
    <edge id=":15_1" function="internal">
        <lane id=":15_1_0" index="0" disallow="rail_fast" speed="36.11" length="8.72" width="2.50" shape="3.88,-30.89 2.27,-22.33"/>
    </edge>
    <edge id=":16_0" function="internal">
        <lane id=":16_0_0" index="0" disallow="bus truck rail_fast" speed="36.11" length="8.84" width="2.50" shape="-4.60,15.02 -6.23,23.71"/>
    </edge>
    <edge id=":16_1" function="internal">
        <lane id=":16_1_0" index="0" disallow="bus truck rail_fast" speed="8.64" length="9.81" width="2.50" shape="-4.60,15.02 -4.74,15.71 -4.89,16.38 -5.05,17.01 -5.23,17.61 -5.42,18.19 -5.62,18.73 -5.83,19.25 -6.06,19.74 -6.30,20.19 -6.55,20.62 -6.81,21.01 -7.09,21.38 -7.38,21.72 -7.68,22.03 -8.00,22.30 -8.33,22.55 -8.67,22.77 -9.02,22.96 -9.39,23.12"/>
    </edge>
    <edge id=":18_0" function="internal">
        <lane id=":18_0_0" index="0" disallow="bus truck rail_fast" speed="7.86" length="6.73" width="2.50" shape="11.86,-29.29 11.26,-29.31 10.69,-29.33 10.14,-29.34 9.63,-29.34 9.14,-29.34 8.68,-29.33 8.25,-29.31 7.84,-29.29 7.47,-29.27 7.12,-29.23 6.80,-29.19 6.51,-29.14 6.24,-29.09 6.01,-29.03 5.80,-28.97 5.62,-28.90 5.47,-28.82 5.35,-28.73 5.25,-28.65"/>
    </edge>
    <edge id=":18_1" function="internal">
        <lane id=":18_1_0" index="0" disallow="bus truck rail_fast" speed="8.47" length="7.64" width="2.50" shape="11.86,-29.29 11.22,-29.32 10.61,-29.36 10.03,-29.40 9.48,-29.45 8.96,-29.51 8.46,-29.57 7.99,-29.64 7.55,-29.72 7.14,-29.80 6.76,-29.89 6.40,-29.99 6.07,-30.09 5.77,-30.20 5.50,-30.32 5.26,-30.44 5.04,-30.57 4.86,-30.71 4.70,-30.85 4.56,-31.00"/>
    </edge>
    <edge id=":19_0" function="internal">
        <lane id=":19_0_0" index="0" disallow="bus truck rail_fast" speed="36.11" length="6.21" width="2.50" shape="6.27,-32.52 6.73,-32.43 7.14,-32.35 7.51,-32.27 7.84,-32.21 8.15,-32.15 8.44,-32.10 8.70,-32.05 8.96,-32.01 9.20,-31.98 9.45,-31.95 9.69,-31.92 9.95,-31.90 10.22,-31.88 10.51,-31.86 10.82,-31.84 11.16,-31.83 11.54,-31.81 11.96,-31.80 12.42,-31.78"/>
    </edge>
    <edge id=":19_1" function="internal">
        <lane id=":19_1_0" index="0" disallow="bus truck rail_fast" speed="19.98" length="7.97" width="2.50" shape="4.59,-30.85 5.15,-31.04 5.66,-31.21 6.12,-31.36 6.54,-31.48 6.93,-31.59 7.29,-31.68 7.63,-31.75 7.95,-31.80 8.27,-31.84 8.58,-31.87 8.91,-31.89 9.24,-31.89 9.59,-31.89 9.96,-31.88 10.37,-31.87 10.81,-31.85 11.29,-31.82 11.83,-31.80 12.42,-31.78"/>
    </edge>
    <edge id=":2_0" function="internal">
        <lane id=":2_0_0" index="0" disallow="rail_fast" speed="36.11" length="3.00" width="2.50" shape="-12.99,52.30 -12.57,49.33"/>
    </edge>
    <edge id=":22_0" function="internal">
        <lane id=":22_0_0" index="0" disallow="bus truck rail_fast" speed="6.85" length="8.27" width="2.50" shape="-2.08,46.44 -2.67,46.32 -3.24,46.22 -3.79,46.15 -4.32,46.10 -4.82,46.07 -5.30,46.08 -5.76,46.10 -6.19,46.15 -6.61,46.23 -7.00,46.33 -7.37,46.45 -7.71,46.60 -8.03,46.78 -8.33,46.98 -8.61,47.20 -8.87,47.45 -9.10,47.72 -9.31,48.02 -9.49,48.34"/>
    </edge>
    <edge id=":22_1" function="internal">
        <lane id=":22_1_0" index="0" disallow="bus truck rail_fast" speed="10.46" length="7.54" width="2.50" shape="-2.08,46.44 -2.62,46.33 -3.11,46.25 -3.58,46.19 -4.01,46.14 -4.41,46.11 -4.78,46.09 -5.14,46.06 -5.47,46.03 -5.79,46.00 -6.10,45.95 -6.40,45.88 -6.69,45.78 -6.99,45.66 -7.28,45.50 -7.58,45.30 -7.89,45.06 -8.21,44.77 -8.55,44.42 -8.91,44.01"/>
    </edge>
    <edge id=":23_0" function="internal">
        <lane id=":23_0_0" index="0" disallow="bus truck rail_fast" speed="36.11" length="5.57" width="2.50" shape="-11.20,24.77 -11.61,24.66 -11.97,24.55 -12.29,24.46 -12.59,24.38 -12.86,24.30 -13.11,24.23 -13.34,24.17 -13.57,24.11 -13.78,24.06 -14.00,24.01 -14.22,23.97 -14.44,23.93 -14.68,23.89 -14.94,23.85 -15.22,23.81 -15.52,23.77 -15.86,23.74 -16.23,23.70 -16.65,23.65"/>
    </edge>
    <edge id=":23_1" function="internal">
        <lane id=":23_1_0" index="0" disallow="bus truck rail_fast" speed="13.90" length="7.22" width="2.50" shape="-9.57,23.19 -10.07,23.38 -10.52,23.54 -10.94,23.67 -11.31,23.78 -11.66,23.87 -11.99,23.94 -12.30,23.99 -12.59,24.02 -12.88,24.03 -13.17,24.03 -13.47,24.02 -13.77,24.00 -14.09,23.97 -14.43,23.92 -14.80,23.88 -15.20,23.82 -15.64,23.77 -16.12,23.71 -16.65,23.65"/>
    </edge>
    <edge id=":26_0" function="internal">
        <lane id=":26_0_0" index="0" disallow="bus truck rail_fast" speed="7.04" length="7.27" width="2.50" shape="-16.77,21.13 -16.58,21.15 -16.32,21.17 -15.99,21.21 -15.62,21.24 -15.20,21.28 -14.75,21.31 -14.27,21.35 -13.77,21.38 -13.27,21.41 -12.76,21.42 -12.26,21.43 -11.78,21.43 -11.33,21.42 -10.91,21.39 -10.53,21.35 -10.20,21.29 -9.93,21.21 -9.73,21.11 -9.61,20.99"/>
    </edge>
    <edge id=":26_1" function="internal">
        <lane id=":26_1_0" index="0" disallow="bus truck rail_fast" speed="9.10" length="8.03" width="2.50" shape="-16.77,21.13 -16.14,21.20 -15.53,21.27 -14.95,21.35 -14.40,21.44 -13.87,21.54 -13.37,21.64 -12.89,21.75 -12.44,21.86 -12.02,21.98 -11.63,22.11 -11.26,22.24 -10.92,22.38 -10.61,22.52 -10.32,22.67 -10.06,22.83 -9.82,22.99 -9.61,23.16 -9.43,23.34 -9.28,23.52"/>
    </edge>
    <edge id=":3_0" function="internal">
        <lane id=":3_0_0" index="0" disallow="bus truck rail_fast" speed="16.94" length="4.23" width="2.50" shape="-9.59,48.52 -9.73,48.80 -9.85,49.05 -9.96,49.29 -10.04,49.50 -10.12,49.70 -10.18,49.88 -10.22,50.06 -10.26,50.23 -10.29,50.40 -10.31,50.57 -10.33,50.74 -10.35,50.92 -10.36,51.10 -10.37,51.30 -10.39,51.52 -10.41,51.75 -10.43,52.01 -10.47,52.30 -10.51,52.61"/>
    </edge>
    <edge id=":3_1" function="internal">
        <lane id=":3_1_0" index="0" disallow="rail_fast" speed="36.11" length="3.12" width="2.50" shape="-10.08,49.52 -10.51,52.61"/>
    </edge>
    <edge id=":5_0" function="internal">
        <lane id=":5_0_0" index="0" disallow="bus truck rail_fast" speed="8.99" length="8.03" width="2.50" shape="-9.04,43.86 -9.28,43.56 -9.50,43.24 -9.71,42.92 -9.90,42.58 -10.08,42.23 -10.24,41.88 -10.38,41.51 -10.50,41.13 -10.61,40.74 -10.70,40.34 -10.77,39.93 -10.83,39.51 -10.87,39.08 -10.90,38.63 -10.90,38.18 -10.89,37.72 -10.87,37.24 -10.82,36.76 -10.77,36.26"/>
    </edge>
    <edge id=":5_1" function="internal">
        <lane id=":5_1_0" index="0" disallow="rail_fast" speed="36.11" length="9.43" width="2.50" shape="-12.06,45.60 -10.77,36.26"/>
    </edge>
    <edge id=":6_0" function="internal">
        <lane id=":6_0_0" index="0" disallow="bus truck rail_fast" speed="6.33" length="7.78" width="2.50" shape="-10.21,32.20 -10.12,31.50 -10.04,30.83 -9.98,30.19 -9.94,29.59 -9.90,29.02 -9.89,28.50 -9.88,28.00 -9.90,27.54 -9.92,27.12 -9.97,26.73 -10.02,26.38 -10.09,26.06 -10.18,25.78 -10.28,25.53 -10.40,25.32 -10.53,25.14 -10.68,25.00 -10.84,24.90 -11.01,24.83"/>
    </edge>
    <edge id=":6_1" function="internal">
        <lane id=":6_1_0" index="0" disallow="bus truck rail_fast" speed="36.11" length="8.83" width="2.50" shape="-10.21,32.20 -8.73,23.49"/>
    </edge>
    <edge id=":7_0" function="internal">
        <lane id=":7_0_0" index="0" disallow="bus truck rail_fast" speed="36.11" length="8.78" width="2.50" shape="-6.27,23.90 -7.74,32.56"/>
    </edge>
    <edge id=":7_1" function="internal">
        <lane id=":7_1_0" index="0" disallow="bus truck rail_fast" speed="10.13" length="9.43" width="2.50" shape="-9.16,23.68 -8.76,24.22 -8.41,24.73 -8.11,25.20 -7.86,25.64 -7.66,26.05 -7.49,26.45 -7.37,26.84 -7.28,27.22 -7.22,27.60 -7.19,27.99 -7.19,28.38 -7.21,28.79 -7.25,29.22 -7.30,29.68 -7.38,30.17 -7.46,30.69 -7.55,31.27 -7.64,31.89 -7.74,32.56"/>
    </edge>
    <edge id=":8_0" function="internal">
        <lane id=":8_0_0" index="0" disallow="rail_fast" speed="36.11" length="3.00" width="2.50" shape="-8.32,36.86 -8.73,39.83"/>
    </edge>
    <edge id=":9_0" function="internal">
        <lane id=":9_0_0" index="0" disallow="bus truck rail_fast" speed="9.87" length="9.91" width="2.50" shape="4.44,-31.16 4.19,-31.51 3.96,-31.87 3.76,-32.25 3.57,-32.65 3.40,-33.07 3.25,-33.50 3.12,-33.95 3.02,-34.42 2.93,-34.91 2.86,-35.41 2.82,-35.93 2.79,-36.46 2.79,-37.02 2.80,-37.59 2.84,-38.18 2.89,-38.78 2.97,-39.40 3.07,-40.04 3.18,-40.70"/>
    </edge>
    <edge id=":9_1" function="internal">
        <lane id=":9_1_0" index="0" disallow="rail_fast" speed="36.11" length="9.41" width="2.50" shape="1.44,-31.46 3.18,-40.70"/>
    </edge>

    <edge id="36" from="1" to="2" priority="1" spreadType="center" length="21.81">
        <lane id="36_0" index="0" disallow="rail_fast" speed="36.11" length="21.81" width="2.50" customShape="1" shape="-15.80,72.41 -14.29,61.61 -12.99,52.30"/>
    </edge>
    <edge id="37" from="3" to="4" priority="1" spreadType="center" length="21.80">
        <lane id="37_0" index="0" disallow="rail_fast" speed="36.11" length="21.80" width="2.50" customShape="1" shape="-10.51,52.61 -11.81,61.96 -13.32,72.75"/>
    </edge>
    <edge id="38" from="5" to="6" priority="1" spreadType="center" length="7.54">
        <lane id="38_0" index="0" disallow="rail_fast" speed="36.11" length="7.54" width="2.50" customShape="1" shape="-10.77,36.26 -10.49,34.26 -10.21,32.20"/>
    </edge>
    <edge id="39" from="7" to="8" priority="1" spreadType="center" length="7.53">
        <lane id="39_0" index="0" disallow="rail_fast" speed="36.11" length="7.53" width="2.50" customShape="1" shape="-7.74,32.56 -8.02,34.61 -8.32,36.86"/>
    </edge>
    <edge id="40" from="9" to="10" priority="1" spreadType="center" length="32.08">
        <lane id="40_0" index="0" disallow="rail_fast" speed="36.11" length="32.08" width="2.50" customShape="1" shape="3.18,-40.70 5.84,-54.63 8.85,-70.39"/>
    </edge>
    <edge id="41" from="11" to="12" priority="1" spreadType="center" length="32.06">
        <lane id="41_0" index="0" disallow="rail_fast" speed="36.11" length="32.06" width="2.50" customShape="1" shape="11.30,-69.92 8.30,-54.16 5.64,-40.23"/>
    </edge>
    <edge id="42" from="13" to="14" priority="1" spreadType="center" length="41.34">
        <lane id="42_0" index="0" disallow="rail_fast" speed="36.11" length="41.34" width="2.50" customShape="1" shape="-7.05,14.52 -3.62,-4.13 -0.17,-22.85"/>
    </edge>
    <edge id="43" from="15" to="16" priority="1" spreadType="center" length="41.34">
        <lane id="43_0" index="0" disallow="rail_fast" speed="36.11" length="41.34" width="2.50" customShape="1" shape="2.27,-22.33 -1.16,-3.67 -4.60,15.02"/>
    </edge>
    <edge id="44" from="17" to="18" priority="1" spreadType="center" length="14.23">
        <lane id="44_0" index="0" disallow="bus truck rail_fast" speed="36.11" length="14.23" width="2.50" customShape="1" shape="24.12,-30.20 23.74,-29.77 23.30,-29.41 22.80,-29.13 21.70,-28.88 19.42,-28.83 15.44,-29.15 11.86,-29.29"/>
    </edge>
    <edge id="45" from="19" to="20" priority="1" spreadType="center" length="12.08">
        <lane id="45_0" index="0" disallow="bus truck rail_fast" speed="36.11" length="12.08" width="2.50" customShape="1" shape="12.42,-31.78 15.14,-31.68 18.80,-31.37 20.78,-31.35 21.66,-31.47 21.97,-31.56 22.22,-31.82"/>
    </edge>
    <edge id="46" from="21" to="22" priority="1" spreadType="center" length="76.96">
        <lane id="46_0" index="0" disallow="rail_fast" speed="36.11" length="76.96" width="2.50" customShape="1" shape="71.06,62.85 33.51,54.43 -2.08,46.44"/>
    </edge>
    <edge id="47" from="23" to="24" priority="1" spreadType="center" length="41.12">
        <lane id="47_0" index="0" disallow="bus truck rail_fast" speed="36.11" length="41.12" width="2.50" customShape="1" shape="-16.65,23.65 -17.66,23.55 -25.83,22.61 -30.39,21.78 -34.36,20.72 -37.75,19.49 -38.69,19.08 -39.95,18.19 -41.10,17.17 -42.44,16.40 -45.28,15.21 -54.13,12.47"/>
    </edge>
    <edge id="48" from="25" to="26" priority="1" spreadType="center" length="40.58">
        <lane id="48_0" index="0" disallow="bus truck rail_fast" speed="36.11" length="40.58" width="2.50" customShape="1" shape="-53.35,10.09 -44.52,12.83 -41.58,14.04 -40.08,14.85 -38.74,15.92 -37.70,16.75 -36.98,17.10 -33.72,18.30 -29.88,19.34 -25.45,20.14 -17.37,21.07 -16.77,21.13"/>
    </edge>
    <edge id="49" from="18" to="9" priority="1" spreadType="center" length="14.48">
        <lane id="49_0" index="0" disallow="bus truck rail_fast" speed="36.11" length="14.48" width="2.50" customShape="1" shape="4.56,-31.00 4.44,-31.16"/>
    </edge>
    <edge id="50" from="16" to="7" priority="1" spreadType="center" length="14.45">
        <lane id="50_0" index="0" disallow="bus truck rail_fast" speed="36.11" length="14.45" width="2.50" customShape="1" shape="-6.23,23.71 -6.27,23.90"/>
    </edge>
    <edge id="51" from="12" to="19" priority="1" spreadType="center" length="10.08">
        <lane id="51_0" index="0" disallow="bus truck rail_fast" speed="36.11" length="10.08" width="2.50" customShape="1" shape="6.07,-32.56 6.27,-32.52"/>
    </edge>
    <edge id="52" from="12" to="15" priority="1" spreadType="center" length="14.69">
        <lane id="52_0" index="0" disallow="rail_fast" speed="36.11" length="14.69" width="2.50" customShape="1" shape="3.91,-31.09 3.88,-30.89"/>
    </edge>
    <edge id="53" from="14" to="19" priority="1" spreadType="center" length="14.02">
        <lane id="53_0" index="0" disallow="bus truck rail_fast" speed="36.11" length="14.02" width="2.50" customShape="1" shape="4.41,-30.79 4.59,-30.85"/>
    </edge>
    <edge id="54" from="18" to="15" priority="1" spreadType="center" length="10.48">
        <lane id="54_0" index="0" disallow="bus truck rail_fast" speed="36.11" length="10.48" width="2.50" customShape="1" shape="5.25,-28.65 5.12,-28.49"/>
    </edge>
    <edge id="55" from="2" to="5" priority="1" spreadType="center" length="12.92">
        <lane id="55_0" index="0" disallow="rail_fast" speed="36.11" length="12.92" width="2.50" customShape="1" shape="-12.57,49.33 -12.06,45.60"/>
    </edge>
    <edge id="56" from="26" to="7" priority="1" spreadType="center" length="13.94">
        <lane id="56_0" index="0" disallow="bus truck rail_fast" speed="36.11" length="13.94" width="2.50" customShape="1" shape="-9.28,23.52 -9.16,23.68"/>
    </edge>
    <edge id="57" from="14" to="9" priority="1" spreadType="center" length="14.66">
        <lane id="57_0" index="0" disallow="rail_fast" speed="36.11" length="14.66" width="2.50" customShape="1" shape="1.40,-31.26 1.44,-31.46"/>
    </edge>
    <edge id="58" from="16" to="23" priority="1" spreadType="center" length="14.04">
        <lane id="58_0" index="0" disallow="bus truck rail_fast" speed="36.11" length="14.04" width="2.50" customShape="1" shape="-9.39,23.12 -9.57,23.19"/>
    </edge>
    <edge id="59" from="8" to="3" priority="1" spreadType="center" length="12.94">
        <lane id="59_0" index="0" disallow="rail_fast" speed="36.11" length="12.94" width="2.50" customShape="1" shape="-8.73,39.83 -10.08,49.52"/>
    </edge>
    <edge id="60" from="26" to="13" priority="1" spreadType="center" length="10.29">
        <lane id="60_0" index="0" disallow="bus truck rail_fast" speed="36.11" length="10.29" width="2.50" customShape="1" shape="-9.61,20.99 -9.50,20.82"/>
    </edge>
    <edge id="61" from="22" to="3" priority="1" spreadType="center" length="9.47">
        <lane id="61_0" index="0" disallow="bus truck rail_fast" speed="36.11" length="9.47" width="2.50" customShape="1" shape="-9.49,48.34 -9.59,48.52"/>
    </edge>
    <edge id="62" from="6" to="23" priority="1" spreadType="center" length="9.88">
        <lane id="62_0" index="0" disallow="bus truck rail_fast" speed="36.11" length="9.88" width="2.50" customShape="1" shape="-11.01,24.83 -11.20,24.77"/>
    </edge>
    <edge id="63" from="22" to="5" priority="1" spreadType="center" length="11.88">
        <lane id="63_0" index="0" disallow="bus truck rail_fast" speed="36.11" length="11.88" width="2.50" customShape="1" shape="-8.91,44.01 -9.04,43.86"/>
    </edge>
    <edge id="64" from="6" to="13" priority="1" spreadType="center" length="14.59">
        <lane id="64_0" index="0" disallow="bus truck rail_fast" speed="36.11" length="14.59" width="2.50" customShape="1" shape="-8.73,23.49 -8.70,23.30"/>
    </edge>

    <junction id="1" type="dead_end" x="-15.80" y="72.41" incLanes="" intLanes="" shape="-14.56,72.58 -17.03,72.23"/>
    <junction id="10" type="dead_end" x="8.85" y="-70.39" incLanes="40_0" intLanes="" shape="7.62,-70.62 10.07,-70.15"/>
    <junction id="11" type="dead_end" x="11.30" y="-69.92" incLanes="" intLanes="" shape="10.07,-70.15 12.53,-69.68"/>
    <junction id="12" type="priority" x="5.29" y="-38.43" incLanes="41_0" intLanes=":12_0_0 :12_1_0" shape="6.93,-31.25 11.15,-33.05 6.87,-40.00 4.41,-40.47 2.60,-30.86 5.05,-30.40 5.39,-31.15 5.66,-31.35 6.01,-31.43 6.43,-31.40">
        <request index="0" response="00" foes="00" cont="0"/>
        <request index="1" response="00" foes="00" cont="0"/>
    </junction>
    <junction id="13" type="priority" x="-7.36" y="16.19" incLanes="60_0 64_0" intLanes=":13_0_0 :13_1_0" shape="-5.82,14.74 -8.28,14.29 -9.48,17.65 -10.42,18.79 -11.59,19.58 -12.98,20.01 -14.59,20.09 -11.27,22.40 -10.45,22.40 -10.19,22.54 -10.03,22.77 -9.97,23.09 -10.01,23.51 -7.55,23.97">
        <request index="0" response="00" foes="10" cont="0"/>
        <request index="1" response="01" foes="01" cont="0"/>
    </junction>
    <junction id="14" type="priority" x="0.12" y="-24.47" incLanes="42_0" intLanes=":14_0_0 :14_1_0" shape="7.19,-30.34 4.02,-31.90 3.29,-31.66 3.07,-31.73 2.93,-31.92 2.89,-32.23 2.94,-32.66 0.48,-33.12 -1.40,-23.08 1.06,-22.62 1.57,-24.70 2.29,-26.46 3.21,-27.91 4.33,-29.03 5.66,-29.85">
        <request index="0" response="00" foes="00" cont="0"/>
        <request index="1" response="00" foes="00" cont="0"/>
    </junction>
    <junction id="15" type="priority" x="2.58" y="-23.99" incLanes="54_0 52_0" intLanes=":15_0_0 :15_1_0" shape="9.70,-28.10 6.41,-30.14 5.61,-30.02 5.36,-30.13 5.20,-30.35 5.15,-30.69 5.19,-31.13 2.74,-31.59 1.04,-22.55 3.50,-22.10 4.67,-25.41 5.60,-26.57 6.74,-27.41 8.11,-27.92">
        <request index="0" response="00" foes="10" cont="0"/>
        <request index="1" response="01" foes="01" cont="0"/>
    </junction>
    <junction id="16" type="priority" x="-4.91" y="16.67" incLanes="43_0" intLanes=":16_0_0 :16_1_0" shape="-3.37,15.24 -5.83,14.79 -6.39,17.10 -7.15,19.01 -8.10,20.51 -9.25,21.61 -10.60,22.30 -12.08,22.57 -8.86,24.26 -8.14,24.11 -7.91,24.19 -7.77,24.37 -7.71,24.66 -7.75,25.05 -5.30,25.51">
        <request index="0" response="00" foes="00" cont="0"/>
        <request index="1" response="00" foes="00" cont="0"/>
    </junction>
    <junction id="17" type="dead_end" x="24.12" y="-30.20" incLanes="" intLanes="" shape="23.17,-31.01 25.06,-29.38"/>
    <junction id="18" type="priority" x="10.33" y="-29.35" incLanes="44_0" intLanes=":18_0_0 :18_1_0" shape="11.81,-28.04 11.91,-30.54 9.88,-30.70 8.16,-30.99 6.74,-31.42 5.63,-31.99 4.82,-32.70 4.32,-33.54 3.56,-30.32 3.97,-29.83 4.01,-29.55 3.95,-29.24 3.78,-28.90 3.57,-28.59 4.25,-25.23 5.62,-26.91 6.73,-27.47 8.14,-27.85 9.83,-28.04">
        <request index="0" response="00" foes="00" cont="0"/>
        <request index="1" response="00" foes="00" cont="0"/>
    </junction>
    <junction id="19" type="priority" x="10.40" y="-31.85" incLanes="51_0 53_0" intLanes=":19_0_0 :19_1_0" shape="12.37,-30.53 12.47,-33.02 10.45,-33.22 8.84,-33.66 7.64,-34.33 6.84,-35.24 6.45,-36.38 6.46,-37.75 4.20,-34.04 4.39,-33.01 4.32,-32.58 4.13,-32.19 3.83,-31.86 3.41,-31.58 3.63,-28.67 6.45,-30.43 7.63,-30.71 8.90,-30.74 10.42,-30.65">
        <request index="0" response="00" foes="10" cont="0"/>
        <request index="1" response="01" foes="01" cont="0"/>
    </junction>
    <junction id="2" type="priority" x="-12.78" y="50.81" incLanes="36_0" intLanes=":2_0_0" shape="-11.34,49.50 -13.81,49.15 -14.23,52.12 -11.75,52.47">
        <request index="0" response="0" foes="0" cont="0"/>
    </junction>
    <junction id="20" type="dead_end" x="22.22" y="-31.82" incLanes="45_0" intLanes="" shape="21.31,-32.67 23.12,-30.96"/>
    <junction id="21" type="dead_end" x="71.06" y="62.85" incLanes="" intLanes="" shape="71.34,61.63 70.79,64.06"/>
    <junction id="22" type="priority" x="-4.03" y="46.00" incLanes="46_0" intLanes=":22_0_0 :22_1_0" shape="-2.35,47.66 -1.81,45.22 -5.40,44.19 -6.78,43.60 -7.89,42.96 -8.71,42.27 -9.25,41.53 -10.30,44.30 -9.86,45.08 -9.79,45.50 -9.81,45.94 -9.92,46.40 -10.13,46.87 -9.00,50.90 -7.94,48.48 -6.98,47.79 -5.73,47.42 -4.19,47.38">
        <request index="0" response="00" foes="00" cont="0"/>
        <request index="1" response="00" foes="00" cont="0"/>
    </junction>
    <junction id="23" type="priority" x="-15.12" y="23.81" incLanes="62_0 58_0" intLanes=":23_0_0 :23_1_0" shape="-11.13,29.42 -9.21,25.95 -9.39,25.15 -9.34,24.83 -9.20,24.56 -8.96,24.33 -8.62,24.16 -8.64,21.22 -11.27,22.60 -12.34,22.80 -13.45,22.77 -14.79,22.62 -16.52,22.41 -16.78,24.90 -13.47,25.67 -12.35,26.33 -11.59,27.18 -11.18,28.21">
        <request index="0" response="00" foes="10" cont="0"/>
        <request index="1" response="01" foes="01" cont="0"/>
    </junction>
    <junction id="24" type="dead_end" x="-54.13" y="12.47" incLanes="47_0" intLanes="" shape="-54.50,13.66 -53.76,11.27"/>
    <junction id="25" type="dead_end" x="-53.35" y="10.09" incLanes="" intLanes="" shape="-53.72,11.29 -52.98,8.90"/>
    <junction id="26" type="priority" x="-14.86" y="21.32" incLanes="48_0" intLanes=":26_0_0 :26_1_0" shape="-9.09,26.13 -8.11,23.00 -8.54,22.15 -8.59,21.75 -8.53,21.36 -8.35,20.97 -8.06,20.60 -8.84,16.98 -10.10,18.92 -11.23,19.52 -12.70,19.88 -14.50,20.00 -16.65,19.88 -16.90,22.37 -14.87,22.66 -13.14,23.09 -11.69,23.64 -10.53,24.34 -9.67,25.16">
        <request index="0" response="00" foes="00" cont="0"/>
        <request index="1" response="00" foes="00" cont="0"/>
    </junction>
    <junction id="3" type="priority" x="-10.31" y="51.16" incLanes="61_0 59_0" intLanes=":3_0_0 :3_1_0" shape="-8.34,48.82 -10.55,47.67 -11.29,49.33 -11.45,49.95 -11.54,50.60 -11.62,51.39 -11.75,52.44 -9.27,52.78 -8.84,49.69 -11.32,49.35 -11.42,52.41 -11.06,52.73 -10.42,52.23 -9.52,50.93">
        <request index="0" response="10" foes="10" cont="0"/>
        <request index="1" response="00" foes="01" cont="0"/>
    </junction>
    <junction id="4" type="dead_end" x="-13.32" y="72.75" incLanes="37_0" intLanes="" shape="-12.08,72.93 -14.56,72.58"/>
    <junction id="5" type="priority" x="-11.00" y="38.01" incLanes="63_0 55_0" intLanes=":5_0_0 :5_1_0" shape="-9.20,45.16 -5.40,44.30 -8.08,42.76 -8.93,41.59 -9.45,40.14 -9.65,38.42 -9.53,36.43 -12.00,36.10 -13.29,45.43 -10.82,45.77 -10.54,44.97 -10.30,44.79 -10.00,44.76 -9.63,44.88">
        <request index="0" response="10" foes="10" cont="0"/>
        <request index="1" response="00" foes="01" cont="0"/>
    </junction>
    <junction id="6" type="priority" x="-9.99" y="30.54" incLanes="38_0" intLanes=":6_0_0 :6_1_0" shape="-7.41,23.24 -9.88,22.86 -10.18,23.53 -10.43,23.70 -10.73,23.76 -11.11,23.70 -11.54,23.54 -15.57,25.00 -11.45,32.03 -8.97,32.37">
        <request index="0" response="00" foes="00" cont="0"/>
        <request index="1" response="00" foes="00" cont="0"/>
    </junction>
    <junction id="7" type="priority" x="-7.51" y="30.88" incLanes="50_0 56_0" intLanes=":7_0_0 :7_1_0" shape="-4.74,22.53 -7.21,22.14 -7.47,22.75 -7.67,22.87 -7.93,22.87 -8.23,22.75 -8.59,22.51 -12.26,23.17 -9.95,24.75 -9.26,26.10 -8.86,27.83 -8.77,29.92 -8.98,32.39 -6.50,32.73">
        <request index="0" response="00" foes="10" cont="0"/>
        <request index="1" response="01" foes="01" cont="0"/>
    </junction>
    <junction id="8" type="priority" x="-8.53" y="38.35" incLanes="39_0" intLanes=":8_0_0" shape="-7.09,37.03 -9.56,36.69 -9.97,39.66 -7.49,40.00">
        <request index="0" response="0" foes="0" cont="0"/>
    </junction>
    <junction id="9" type="priority" x="2.83" y="-38.88" incLanes="49_0 57_0" intLanes=":9_0_0 :9_1_0" shape="3.93,-30.06 7.83,-30.93 5.21,-32.44 4.45,-33.82 4.07,-35.62 4.05,-37.83 4.41,-40.46 1.95,-40.93 -0.10,-30.06 2.36,-29.59 2.65,-30.27 2.88,-30.41 3.17,-30.42 3.52,-30.31">
        <request index="0" response="10" foes="10" cont="0"/>
        <request index="1" response="00" foes="01" cont="0"/>
    </junction>

    <connection from="36" to="55" fromLane="0" toLane="0" contPos="-4.00" via=":2_0_0" dir="s" state="M"/>
    <connection from="38" to="62" fromLane="0" toLane="0" contPos="-4.00" via=":6_0_0" dir="r" state="M"/>
    <connection from="38" to="64" fromLane="0" toLane="0" contPos="-4.00" via=":6_1_0" dir="s" state="M"/>
    <connection from="39" to="59" fromLane="0" toLane="0" contPos="-4.00" via=":8_0_0" dir="s" state="M"/>
    <connection from="41" to="51" fromLane="0" toLane="0" contPos="-4.00" via=":12_0_0" dir="r" state="M"/>
    <connection from="41" to="52" fromLane="0" toLane="0" contPos="-4.00" via=":12_1_0" dir="s" state="M"/>
    <connection from="42" to="57" fromLane="0" toLane="0" contPos="-4.00" via=":14_0_0" dir="s" state="M"/>
    <connection from="42" to="53" fromLane="0" toLane="0" contPos="-4.00" via=":14_1_0" dir="L" state="M"/>
    <connection from="43" to="50" fromLane="0" toLane="0" contPos="-4.00" via=":16_0_0" dir="s" state="M"/>
    <connection from="43" to="58" fromLane="0" toLane="0" contPos="-4.00" via=":16_1_0" dir="l" state="M"/>
    <connection from="44" to="54" fromLane="0" toLane="0" contPos="-4.00" via=":18_0_0" dir="s" state="M"/>
    <connection from="44" to="49" fromLane="0" toLane="0" contPos="-4.00" via=":18_1_0" dir="l" state="M"/>
    <connection from="46" to="61" fromLane="0" toLane="0" contPos="-4.00" via=":22_0_0" dir="r" state="M"/>
    <connection from="46" to="63" fromLane="0" toLane="0" contPos="-4.00" via=":22_1_0" dir="s" state="M"/>
    <connection from="48" to="60" fromLane="0" toLane="0" contPos="-4.00" via=":26_0_0" dir="r" state="M"/>
    <connection from="48" to="56" fromLane="0" toLane="0" contPos="-4.00" via=":26_1_0" dir="s" state="M"/>