<!-- generated on 2020-12-18 16:27:29.018150 by ipykernel_launcher.py v1_2_0+5214-53edc58fcd
-->
<nodes>
	<node id="1" type="from" x="-15.796700000000001" y="72.4075"/>
	<node id="2" type="to" x="-12.78045" y="50.811099999999996"/>
	<node id="3" type="from" x="-10.305250000000001" y="51.16175"/>
	<node id="4" type="to" x="-13.3207" y="72.75325000000001"/>
	<node id="5" type="from" x="-11.00305" y="38.0112"/>
	<node id="6" type="to" x="-9.9851" y="30.5383"/>
	<node id="7" type="from" x="-7.5092" y="30.881300000000003"/>
	<node id="8" type="to" x="-8.5256" y="38.3455"/>
	<node id="9" type="from" x="2.8346999999999998" y="-38.87905"/>
	<node id="10" type="to" x="8.84695" y="-70.3872"/>
	<node id="11" type="from" x="11.30265" y="-69.9186"/>
	<node id="12" type="to" x="5.29385" y="-38.431200000000004"/>
	<node id="13" type="from" x="-7.3607499999999995" y="16.1895"/>
	<node id="14" type="to" x="0.12445000000000006" y="-24.47065"/>
	<node id="15" type="from" x="2.5774500000000002" y="-23.9914"/>
	<node id="16" type="to" x="-4.9076" y="16.668"/>
	<node id="17" type="from" x="24.11605" y="-30.19715"/>
	<node id="18" type="to" x="10.3269" y="-29.3548"/>
	<node id="19" type="from" x="10.3994" y="-31.852899999999998"/>
	<node id="20" type="to" x="22.2171" y="-31.81895"/>
	<node id="21" type="from" x="71.06365" y="62.84739999999999"/>
	<node id="22" type="to" x="-4.033799999999999" y="46.0038"/>
	<node id="23" type="from" x="-15.1227" y="23.8086"/>
	<node id="24" type="to" x="-54.1271" y="12.4679"/>
	<node id="25" type="from" x="-53.349000000000004" y="10.092400000000001"/>
	<node id="26" type="to" x="-14.8575" y="21.32375"/>
</nodes>
