<!-- generated on 2020-12-18 15:38:53.490707 by ipykernel_launcher.py v1_2_0+5214-53edc58fcd
-->
<tlLogics/>
