<routes>
	<vehicle depart="0.1" departLane="0" departPos="1.0" departSpeed="1.9926953" id="37" type="bicycle">
		<route edges=":54_2 459 519 516"/>
	</vehicle>
	<vehicle depart="0.1" departLane="0" departPos="6.165513574631392" departSpeed="0.0" id="312" type="bicycle">
		<route edges="523 10"/>
	</vehicle>
	<vehicle depart="0.1" departLane="0" departPos="69.26456555610051" departSpeed="0.0" id="338" type="bicycle">
		<route edges="8 11"/>
	</vehicle>
	<vehicle depart="0.1" departLane="0" departPos="8.327158628477068" departSpeed="6.9385724" id="365" type="bicycle">
		<route edges="459 519 516"/>
	</vehicle>
	<vehicle depart="0.1" departLane="0" departPos="11.170459898590842" departSpeed="0.31918997" id="336" type="bus">
		<route edges="11 14"/>
	</vehicle>
	<vehicle depart="0.1" departLane="0" departPos="15.737054866392953" departSpeed="13.372456" id="360" type="bus">
		<route edges="457 1433 517 1497"/>
	</vehicle>
	<vehicle depart="0.1" departLane="0" departPos="62.54350198194912" departSpeed="0.00023974241" id="31" type="passenger">
		<route edges="64 463"/>
	</vehicle>
	<vehicle depart="0.1" departLane="0" departPos="9.569684924600129" departSpeed="13.052974" id="32" type="passenger">
		<route edges="10 349"/>
	</vehicle>
	<vehicle depart="0.1" departLane="0" departPos="55.55778800268377" departSpeed="0.0026092729" id="34" type="passenger">
		<route edges="64 463"/>
	</vehicle>
	<vehicle depart="0.1" departLane="0" departPos="9.57665320909333" departSpeed="14.008953" id="36" type="passenger">
		<route edges="460 463"/>
	</vehicle>
	<vehicle depart="0.1" departLane="0" departPos="30.95136993341525" departSpeed="0.027850407" id="39" type="passenger">
		<route edges="459 519"/>
	</vehicle>
	<vehicle depart="0.1" departLane="0" departPos="61.091714517430944" departSpeed="0.0024222573" id="313" type="passenger">
		<route edges="350 11"/>
	</vehicle>
	<vehicle depart="0.1" departLane="0" departPos="9.097013755280956" departSpeed="6.3382137" id="315" type="passenger">
		<route edges=":55_2 13 10 7"/>
	</vehicle>
	<vehicle depart="0.1" departLane="0" departPos="16.92446863091339" departSpeed="0.0" id="316" type="passenger">
		<route edges="14 516"/>
	</vehicle>
	<vehicle depart="0.1" departLane="0" departPos="18.573926807938964" departSpeed="0.025505852" id="318" type="passenger">
		<route edges="11 14"/>
	</vehicle>
	<vehicle depart="0.1" departLane="0" departPos="11.664863778147492" departSpeed="0.0" id="320" type="passenger">
		<route edges="523 10"/>
	</vehicle>
	<vehicle depart="0.1" departLane="0" departPos="69.90183925559656" departSpeed="0.0" id="322" type="passenger">
		<route edges="64 459 519"/>
	</vehicle>
	<vehicle depart="0.1" departLane="0" departPos="54.1133400119242" departSpeed="0.020669362" id="324" type="passenger">
		<route edges="350 11"/>
	</vehicle>
	<vehicle depart="0.1" departLane="0" departPos="46.67646465918673" departSpeed="0.08314728" id="328" type="passenger">
		<route edges="350 11"/>
	</vehicle>
	<vehicle depart="0.1" departLane="0" departPos="5.785473279471786" departSpeed="0.0048719526" id="329" type="passenger">
		<route edges="14 516"/>
	</vehicle>
	<vehicle depart="0.1" departLane="0" departPos="25.564658156925752" departSpeed="0.0" id="330" type="passenger">
		<route edges="11 14"/>
	</vehicle>
	<vehicle depart="0.1" departLane="0" departPos="12.564725439243116" departSpeed="0.0" id="331" type="passenger">
		<route edges="519 516"/>
	</vehicle>
	<vehicle depart="0.1" departLane="0" departPos="48.418156647833634" departSpeed="0.01361931" id="334" type="passenger">
		<route edges="64 463"/>
	</vehicle>
	<vehicle depart="0.1" departLane="0" departPos="39.364634376046155" departSpeed="0.21043258" id="335" type="passenger">
		<route edges="350 11"/>
	</vehicle>
	<vehicle depart="0.1" departLane="0" departPos="5.516922961134462" departSpeed="0.00051783311" id="339" type="passenger">
		<route edges="519 516"/>
	</vehicle>
	<vehicle depart="0.1" departLane="0" departPos="5.116001257107859" departSpeed="8.4341906" id="342" type="passenger">
		<route edges="1433 517 13 522"/>
	</vehicle>
	<vehicle depart="0.1" departLane="0" departPos="41.09919971089838" departSpeed="0.050308949" id="343" type="passenger">
		<route edges="64 463"/>
	</vehicle>
	<vehicle depart="0.1" departLane="0" departPos="23.440092568873414" departSpeed="11.365676" id="344" type="passenger">
		<route edges="349"/>
	</vehicle>
	<vehicle depart="0.1" departLane="0" departPos="32.16077489800854" departSpeed="0.44308572" id="345" type="passenger">
		<route edges="350 11"/>
	</vehicle>
	<vehicle depart="0.1" departLane="0" departPos="33.80834568779797" departSpeed="0.13591988" id="347" type="passenger">
		<route edges="64 463"/>
	</vehicle>
	<vehicle depart="0.1" departLane="0" departPos="69.0320914347889" departSpeed="0.0" id="352" type="passenger">
		<route edges="8 11"/>
	</vehicle>
	<vehicle depart="0.1" departLane="0" departPos="67.74492826760968" departSpeed="17.394182" id="354" type="passenger">
		<route edges="457 1433 517 13 522"/>
	</vehicle>
	<vehicle depart="0.1" departLane="0" departPos="26.212528600785433" departSpeed="0.28542136" id="355" type="passenger">
		<route edges="64 463"/>
	</vehicle>
	<vehicle depart="0.1" departLane="0" departPos="60.633917286800056" departSpeed="0.90118336" id="358" type="passenger">
		<route edges="8 11"/>
	</vehicle>
	<vehicle depart="0.1" departLane="0" departPos="23.64594578911937" departSpeed="0.22034963" id="359" type="passenger">
		<route edges="459 519"/>
	</vehicle>
	<vehicle depart="0.1" departLane="0" departPos="18.525869684957744" departSpeed="0.92709113" id="361" type="passenger">
		<route edges="350 11"/>
	</vehicle>
	<vehicle depart="0.1" departLane="0" departPos="50.45702680042532" departSpeed="2.3034079" id="363" type="passenger">
		<route edges="8 11"/>
	</vehicle>
	<vehicle depart="0.1" departLane="0" departPos="18.671304744106674" departSpeed="0.53982838" id="364" type="passenger">
		<route edges="64 463"/>
	</vehicle>
	<vehicle depart="0.1" departLane="0" departPos="6.705056767400801" departSpeed="12.602422" id="366" type="passenger">
		<route edges=":53_3 457 1433 517"/>
	</vehicle>
	<vehicle depart="0.1" departLane="0" departPos="39.27700101509281" departSpeed="3.3639458" id="368" type="passenger">
		<route edges="8 11"/>
	</vehicle>
	<vehicle depart="0.1" departLane="0" departPos="57.166076368369815" departSpeed="12.384489" id="369" type="passenger">
		<route edges="454 457 1433"/>
	</vehicle>
	<vehicle depart="0.1" departLane="0" departPos="11.187374981504808" departSpeed="0.74388021" id="372" type="passenger">
		<route edges="64 463"/>
	</vehicle>
	<vehicle depart="0.1" departLane="0" departPos="10.108976448518977" departSpeed="1.0752816" id="374" type="passenger">
		<route edges="350 11"/>
	</vehicle>
	<vehicle depart="0.1" departLane="0" departPos="18.135611295744784" departSpeed="4.0946011" id="375" type="passenger">
		<route edges="8 11"/>
	</vehicle>
	<vehicle depart="0.1" departLane="0" departPos="6.408669570846978" departSpeed="0.1162316" id="377" type="passenger">
		<route edges="462 459"/>
	</vehicle>
	<vehicle depart="0.1" departLane="0" departPos="8.58242528509192" departSpeed="2.8750736" id="378" type="passenger">
		<route edges="8 11"/>
	</vehicle>
	<vehicle depart="0.1" departLane="0" departPos="9.989354455155985" departSpeed="0.0" id="33" type="motorcycle">
		<route edges="14 516"/>
	</vehicle>
	<vehicle depart="0.1" departLane="0" departPos="11.26302137274722" departSpeed="10.773404" id="332" type="motorcycle">
		<route edges="13 10 7"/>
	</vehicle>
	<vehicle depart="0.1" departLane="0" departPos="12.896532315710395" departSpeed="0.0" id="340" type="motorcycle">
		<route edges="519 516 1492 456 453"/>
	</vehicle>
	<vehicle depart="0.1" departLane="0" departPos="24.29011956308921" departSpeed="0.67737513" id="353" type="motorcycle">
		<route edges="350 11"/>
	</vehicle>
	<vehicle depart="0.1" departLane="0" departPos="27.58954509344823" departSpeed="3.9221902" id="370" type="motorcycle">
		<route edges="8 11"/>
	</vehicle>
	<vehicle depart="0.1" departLane="0" departPos="21.58741278576902" departSpeed="0.0" id="30" type="truck">
		<route edges="523 10"/>
	</vehicle>
	<vehicle depart="0.1" departLane="0" departPos="70.29480594120548" departSpeed="0.0" id="321" type="truck">
		<route edges="350 11"/>
	</vehicle>
	<vehicle depart="0.1" departLane="0" departPos="15.266252701215318" departSpeed="1.3027829" id="362" type="truck">
		<route edges="459 519"/>
	</vehicle>
	<vehicle depart="0.1" departLane="0" departPos="16.527436327270568" departSpeed="0.0" id="371" type="truck">
		<route edges="462 459"/>
	</vehicle>
</routes>
