<routes>
	<vehicle depart="0.1" departLane="0" departPos="19.117114945598853" departSpeed="0.24259913" id="315" type="bicycle">
		<route edges=":17_6 38215"/>
	</vehicle>
	<vehicle depart="0.1" departLane="0" departPos="19.53358639390226" departSpeed="0.54875577" id="317" type="bicycle">
		<route edges=":17_6 38215"/>
	</vehicle>
	<vehicle depart="0.1" departLane="0" departPos="39.85270835486903" departSpeed="15.653446" id="32" type="passenger">
		<route edges=":17_0 37691"/>
	</vehicle>
	<vehicle depart="0.1" departLane="0" departPos="20.80542167007997" departSpeed="11.272918" id="36" type="passenger">
		<route edges=":17_1 38030"/>
	</vehicle>
	<vehicle depart="0.1" departLane="0" departPos="53.9216244380182" departSpeed="8.6549871" id="39" type="passenger">
		<route edges="38214 37691"/>
	</vehicle>
	<vehicle depart="0.1" departLane="0" departPos="23.378045909399106" departSpeed="0.98485021" id="320" type="passenger">
		<route edges=":17_7 37699"/>
	</vehicle>
	<vehicle depart="0.1" departLane="0" departPos="71.25100487639585" departSpeed="1.5840833" id="325" type="passenger">
		<route edges="37690 38215"/>
	</vehicle>
	<vehicle depart="0.1" departLane="0" departPos="60.12917086668069" departSpeed="0.17062985" id="329" type="passenger">
		<route edges="37690 38030"/>
	</vehicle>
	<vehicle depart="0.1" departLane="0" departPos="63.77890064376549" departSpeed="0.14393196" id="30" type="truck">
		<route edges="38029 37699"/>
	</vehicle>
	<vehicle depart="0.1" departLane="0" departPos="33.699100276924874" departSpeed="4.4185121" id="324" type="truck">
		<route edges="38214 37691"/>
	</vehicle>
</routes>
