<routes>
	<vehicle depart="0.1" departLane="0" departPos="22.255039284917213" departSpeed="7.7787797" id="312" type="passenger">
		<route edges=":55_1 4866 4863"/>
	</vehicle>
	<vehicle depart="0.1" departLane="0" departPos="12.108382065609838" departSpeed="3.0268013" id="316" type="passenger">
		<route edges=":57_0 4903"/>
	</vehicle>
	<vehicle depart="0.1" departLane="0" departPos="40.14849471857593" departSpeed="13.624515" id="341" type="passenger">
		<route edges=":53_1 4867 4902 4899"/>
	</vehicle>
	<vehicle depart="0.1" departLane="0" departPos="69.16978131062176" departSpeed="3.2191103" id="322" type="motorcycle">
		<route edges="4900 4903"/>
	</vehicle>
	<vehicle depart="0.1" departLane="0" departPos="17.186185395513572" departSpeed="0.07555097" id="330" type="truck">
		<route edges=":55_5 4902"/>
	</vehicle>
</routes>
