<routes>
	<vehicle depart="0.1" departLane="0" departPos="8.322207450797142" departSpeed="0.70132114" id="311" type="bicycle">
		<route edges=":37_5 4156"/>
	</vehicle>
	<vehicle depart="0.1" departLane="0" departPos="11.08730039018934" departSpeed="5.9402881" id="333" type="bicycle">
		<route edges="4171 4156"/>
	</vehicle>
	<vehicle depart="0.1" departLane="0" departPos="42.67144770542789" departSpeed="0.0" id="31" type="passenger">
		<route edges="4216 4163"/>
	</vehicle>
	<vehicle depart="0.1" departLane="0" departPos="39.46271074059741" departSpeed="4.7924838" id="32" type="passenger">
		<route edges=":39_3 4159 4172"/>
	</vehicle>
	<vehicle depart="0.1" departLane="0" departPos="35.169306016389086" departSpeed="0.0" id="34" type="passenger">
		<route edges="4216 4163"/>
	</vehicle>
	<vehicle depart="0.1" departLane="0" departPos="20.990796506441196" departSpeed="0.02562459" id="36" type="passenger">
		<route edges="4162 4159"/>
	</vehicle>
	<vehicle depart="0.1" departLane="0" departPos="11.973352358802968" departSpeed="6.0841754" id="319" type="passenger">
		<route edges=":37_3 4172 4236"/>
	</vehicle>
	<vehicle depart="0.1" departLane="0" departPos="11.100589337780713" departSpeed="0.49316727" id="320" type="passenger">
		<route edges="4162 4159"/>
	</vehicle>
	<vehicle depart="0.1" departLane="0" departPos="26.818220635727034" departSpeed="1.025566" id="327" type="passenger">
		<route edges=":37_4 4160 4215"/>
	</vehicle>
	<vehicle depart="0.1" departLane="0" departPos="16.55830899860998" departSpeed="2.3466917" id="35" type="motorcycle">
		<route edges=":39_3 4159"/>
	</vehicle>
</routes>
