<!-- generated on Tue Feb  9 22:21:21 2021 by Eclipse SUMO netconvert Version 1.8.0
<configuration xmlns:xsi="http://www.w3.org/2001/XMLSchema-instance" xsi:noNamespaceSchemaLocation="http://sumo.dlr.de/xsd/netconvertConfiguration.xsd">

    <input>
        <node-files value="./converted_scenarios/scenario-factory/BEL_Putte-3_1_I-1-1/BEL_Putte-3_1_I-1-1.nod.xml"/>
        <edge-files value="./converted_scenarios/scenario-factory/BEL_Putte-3_1_I-1-1/BEL_Putte-3_1_I-1-1.edg.xml"/>
        <connection-files value="./converted_scenarios/scenario-factory/BEL_Putte-3_1_I-1-1/BEL_Putte-3_1_I-1-1.con.xml"/>
        <tllogic-files value="./converted_scenarios/scenario-factory/BEL_Putte-3_1_I-1-1/BEL_Putte-3_1_I-1-1.tll.xml"/>
        <type-files value="/home/zen/commonroad-interactive-benchmarks/install/commonroad-map-tool/crmapconverter/sumo_map/templates/DEU.typ.xml"/>
    </input>

    <output>
        <output-file value="./converted_scenarios/scenario-factory/BEL_Putte-3_1_I-1-1/BEL_Putte-3_1_I-1-1.net.xml"/>
    </output>

    <processing>
        <geometry.remove.keep-edges.explicit value="true"/>
        <geometry.avoid-overlap value="true"/>
        <offset.disable-normalization value="true"/>
    </processing>

    <junctions>
        <no-turnarounds value="true"/>
        <junctions.internal-link-detail value="20"/>
    </junctions>

    <report>
        <aggregate-warnings value="5"/>
    </report>

    <random_number>
        <seed value="1234"/>
    </random_number>

</configuration>
--><net xmlns:xsi="http://www.w3.org/2001/XMLSchema-instance" version="1.6" junctionCornerDetail="5" junctionLinkDetail="20" limitTurnSpeed="5.50" xsi:noNamespaceSchemaLocation="http://sumo.dlr.de/xsd/net_file.xsd">

    <location netOffset="0.00,0.00" convBoundary="563.69,-620.49,761.03,-521.67" origBoundary="563.69,-620.49,761.03,-521.67" projParameter="!"/>

    <type id="highway.bridleway" priority="1" speed="2.78" allow="pedestrian" oneway="1" width="2.00"/>
    <type id="highway.bus_guideway" priority="1" speed="27.78" allow="bus" oneway="1"/>
    <type id="highway.cycleway" priority="1" speed="8.33" allow="bicycle" oneway="0" width="1.00"/>
    <type id="highway.footway" priority="1" speed="2.78" allow="pedestrian" oneway="1" width="2.00"/>
    <type id="highway.ford" priority="1" speed="2.78" allow="army" oneway="0"/>
    <type id="highway.living_street" priority="2" speed="2.78" disallow="tram rail_urban rail rail_electric rail_fast ship" oneway="0"/>
    <type id="highway.motorway" priority="14" speed="39.44" allow="private emergency authority army vip passenger hov taxi bus coach delivery truck trailer motorcycle evehicle custom1 custom2" oneway="1"/>
    <type id="highway.motorway_link" priority="9" speed="22.22" allow="private emergency authority army vip passenger hov taxi bus coach delivery truck trailer motorcycle evehicle custom1 custom2" oneway="1"/>
    <type id="highway.path" priority="1" speed="2.78" allow="pedestrian bicycle" oneway="0" width="2.00"/>
    <type id="highway.pedestrian" priority="1" speed="2.78" allow="pedestrian" oneway="1" width="2.00"/>
    <type id="highway.primary" priority="12" speed="27.78" disallow="pedestrian tram rail_urban rail rail_electric rail_fast ship" oneway="0"/>
    <type id="highway.primary_link" priority="7" speed="22.22" disallow="pedestrian tram rail_urban rail rail_electric rail_fast ship" oneway="0"/>
    <type id="highway.raceway" priority="15" speed="83.33" allow="vip" oneway="0"/>
    <type id="highway.residential" priority="3" speed="13.89" disallow="pedestrian tram rail_urban rail rail_electric rail_fast ship" oneway="0"/>
    <type id="highway.secondary" priority="11" speed="27.78" disallow="pedestrian tram rail_urban rail rail_electric rail_fast ship" oneway="0"/>
    <type id="highway.secondary_link" priority="6" speed="22.22" disallow="pedestrian tram rail_urban rail rail_electric rail_fast ship" oneway="0"/>
    <type id="highway.service" priority="1" speed="5.56" allow="pedestrian delivery bicycle" oneway="0"/>
    <type id="highway.stairs" priority="1" speed="1.39" allow="pedestrian" oneway="1" width="2.00"/>
    <type id="highway.step" priority="1" speed="1.39" allow="pedestrian" oneway="1" width="2.00"/>
    <type id="highway.steps" priority="1" speed="1.39" allow="pedestrian" oneway="1" width="2.00"/>
    <type id="highway.tertiary" priority="10" speed="22.22" disallow="pedestrian tram rail_urban rail rail_electric rail_fast ship" oneway="0"/>
    <type id="highway.tertiary_link" priority="5" speed="22.22" disallow="pedestrian tram rail_urban rail rail_electric rail_fast ship" oneway="0"/>
    <type id="highway.track" priority="1" speed="5.56" allow="pedestrian motorcycle moped bicycle" oneway="0"/>
    <type id="highway.trunk" priority="13" speed="27.78" disallow="pedestrian bicycle tram rail_urban rail rail_electric rail_fast ship" oneway="0"/>
    <type id="highway.trunk_link" priority="8" speed="22.22" disallow="pedestrian bicycle tram rail_urban rail rail_electric rail_fast ship" oneway="0"/>
    <type id="highway.unclassified" priority="4" speed="13.89" disallow="pedestrian tram rail_urban rail rail_electric rail_fast ship" oneway="0"/>
    <type id="highway.unsurfaced" priority="1" speed="8.33" disallow="tram rail_urban rail rail_electric rail_fast ship" oneway="0"/>
    <type id="railway.highspeed" priority="21" speed="69.44" allow="rail_fast" oneway="1"/>
    <type id="railway.light_rail" priority="19" speed="27.78" allow="rail_urban" oneway="1"/>
    <type id="railway.preserved" priority="16" speed="27.78" allow="rail" oneway="1"/>
    <type id="railway.rail" priority="20" speed="44.44" allow="rail" oneway="1"/>
    <type id="railway.subway" priority="18" speed="27.78" allow="rail_urban" oneway="1"/>
    <type id="railway.tram" priority="17" speed="13.89" allow="tram" oneway="1"/>

    <edge id=":1_0" function="internal">
        <lane id=":1_0_0" index="0" disallow="pedestrian tram rail_urban rail rail_electric rail_fast ship" speed="36.11" length="3.00" width="3.50" shape="634.94,-611.04 631.95,-611.30"/>
    </edge>
    <edge id=":19_0" function="internal">
        <lane id=":19_0_0" index="0" disallow="pedestrian tram rail_urban rail rail_electric rail_fast ship" speed="36.11" length="3.01" width="3.38" shape="710.25,-583.27 711.89,-585.79"/>
    </edge>
    <edge id=":23_0" function="internal">
        <lane id=":23_0_0" index="0" disallow="pedestrian tram rail_urban rail rail_electric rail_fast ship" speed="36.11" length="7.99" width="3.50" shape="629.76,-615.00 637.72,-614.31"/>
        <lane id=":23_0_1" index="1" disallow="pedestrian tram rail_urban rail rail_electric rail_fast ship" speed="36.11" length="7.99" width="3.50" shape="629.76,-615.00 637.72,-614.31"/>
    </edge>
    <edge id=":25_0" function="internal">
        <lane id=":25_0_0" index="0" disallow="pedestrian tram rail_urban rail rail_electric rail_fast ship" speed="36.11" length="23.52" width="3.50" shape="755.24,-597.04 750.68,-597.57 743.64,-598.88 736.10,-600.33 732.05,-600.87"/>
    </edge>
    <edge id=":25_1" function="internal">
        <lane id=":25_1_0" index="0" disallow="pedestrian tram rail_urban rail rail_electric rail_fast ship" speed="8.99" length="18.44" width="3.50" shape="745.03,-610.26 744.83,-608.69 744.47,-607.20 743.93,-605.77 743.16,-604.44 742.17,-603.28 740.97,-602.33 739.60,-601.63 738.15,-601.15 736.64,-600.87 735.11,-600.75 733.58,-600.76 732.05,-600.87"/>
    </edge>
    <edge id=":25_2" function="internal">
        <lane id=":25_2_0" index="0" disallow="pedestrian tram rail_urban rail rail_electric rail_fast ship" speed="7.50" length="12.72" width="3.50" shape="732.38,-604.35 733.59,-604.26 734.76,-604.25 735.89,-604.33 736.98,-604.52 737.98,-604.83 738.87,-605.26 739.63,-605.84 740.26,-606.55 740.76,-607.38 741.14,-608.34 741.39,-609.39 741.54,-610.46"/>
    </edge>
    <edge id=":25_3" function="internal">
        <lane id=":25_3_0" index="0" disallow="pedestrian tram rail_urban rail rail_electric rail_fast ship" speed="36.11" length="23.42" width="3.50" shape="732.38,-604.35 736.97,-604.06 744.10,-604.11 751.73,-604.21 755.79,-604.02"/>
    </edge>
    <edge id=":26_0" function="internal">
        <lane id=":26_0_0" index="0" disallow="pedestrian tram rail_urban rail rail_electric rail_fast ship" speed="10.12" length="15.75" width="3.48" shape="731.83,-600.89 729.41,-601.02 728.28,-600.98 727.16,-600.85 726.12,-600.63 725.17,-600.28 724.34,-599.82 723.67,-599.25 723.15,-598.55 720.53,-592.83"/>
    </edge>
    <edge id=":26_1" function="internal">
        <lane id=":26_1_0" index="0" disallow="pedestrian tram rail_urban rail rail_electric rail_fast ship" speed="36.11" length="18.06" width="3.50" shape="731.83,-600.89 728.22,-601.05 721.59,-600.70 717.50,-600.58 713.79,-600.85"/>
    </edge>
    <edge id=":26_2" function="internal">
        <lane id=":26_2_0" index="0" disallow="pedestrian tram rail_urban rail rail_electric rail_fast ship" speed="36.11" length="18.06" width="3.50" shape="714.45,-607.82 719.18,-607.15 729.12,-604.82 732.16,-604.37"/>
    </edge>
    <edge id=":26_3" function="internal">
        <lane id=":26_3_0" index="0" disallow="pedestrian tram rail_urban rail rail_electric rail_fast ship" speed="7.93" length="18.19" width="3.48" shape="714.12,-604.34 717.24,-603.94 719.14,-603.49 720.95,-602.74 722.42,-601.46 723.05,-599.65 720.53,-592.83"/>
    </edge>
    <edge id=":26_4" function="internal">
        <lane id=":26_4_0" index="0" disallow="pedestrian tram rail_urban rail rail_electric rail_fast ship" speed="6.49" length="11.73" width="3.50" shape="717.39,-594.38 719.82,-599.01 719.33,-599.64 718.51,-600.01 717.46,-600.32 716.23,-600.56 713.79,-600.85"/>
    </edge>
    <edge id=":26_5" function="internal">
        <lane id=":26_5_0" index="0" disallow="pedestrian tram rail_urban rail rail_electric rail_fast ship" speed="11.39" length="20.00" width="3.50" shape="717.39,-594.38 720.06,-600.23 720.92,-601.46 722.01,-602.50 723.28,-603.30 724.68,-603.87 726.14,-604.24 727.63,-604.44 729.14,-604.52 732.16,-604.37"/>
    </edge>
    <edge id=":7_0" function="internal">
        <lane id=":7_0_0" index="0" disallow="pedestrian tram rail_urban rail rail_electric rail_fast ship" speed="36.11" length="3.00" width="3.50" shape="714.82,-583.88 713.19,-581.36"/>
    </edge>

    <edge id="7549" from="1" to="2" priority="3" type="highway.residential" spreadType="center" length="68.50">
        <lane id="7549_0" index="0" disallow="pedestrian tram rail_urban rail rail_electric rail_fast ship" speed="36.11" length="68.50" width="3.50" customShape="1" shape="631.95,-611.30 585.97,-615.14 563.69,-617.00"/>
    </edge>
    <edge id="7550" from="24" to="23" priority="3" type="highway.residential" spreadType="center" length="66.01">
        <lane id="7550_0" index="0" disallow="pedestrian tram rail_urban rail rail_electric rail_fast ship" speed="36.11" length="66.01" width="3.50" customShape="1" shape="563.98,-620.49 586.26,-618.63 629.76,-615.00"/>
    </edge>
    <edge id="7570" from="18" to="25" priority="3" type="highway.residential" spreadType="center" length="2.75" shape="758.13,-598.57 742.34,-601.25">
        <lane id="7570_0" index="0" disallow="pedestrian tram rail_urban rail rail_electric rail_fast ship" speed="36.11" length="2.77" width="3.50" customShape="1" shape="757.99,-596.82 755.50,-597.02 755.37,-597.03 755.23,-597.04"/>
        <lane id="7570_1" index="1" disallow="pedestrian tram rail_urban rail rail_electric rail_fast ship" speed="36.11" length="2.75" width="3.50" customShape="1" shape="758.26,-600.31 755.65,-600.52 755.52,-600.53"/>
    </edge>
    <edge id="7572" from="25" to="13" priority="3" type="highway.residential" spreadType="center" length="5.26" shape="743.76,-606.24 761.03,-603.60">
        <lane id="7572_0" index="0" disallow="pedestrian tram rail_urban rail rail_electric rail_fast ship" speed="36.11" length="5.26" width="3.50" customShape="1" shape="755.79,-604.02 755.92,-604.01 756.05,-604.00 761.03,-603.60"/>
    </edge>
    <edge id="7629" from="25" to="26" priority="3" type="highway.residential" spreadType="center" length="0.24" shape="743.90,-602.76 722.89,-599.91">
        <lane id="7629_0" index="0" disallow="pedestrian tram rail_urban rail rail_electric rail_fast ship" speed="36.11" length="0.24" width="3.50" customShape="1" shape="732.05,-600.87 731.81,-600.89"/>
    </edge>
    <edge id="7630" from="26" to="25" priority="3" type="highway.residential" spreadType="center" length="0.26" shape="722.42,-603.36 743.43,-606.22">
        <lane id="7630_0" index="0" disallow="pedestrian tram rail_urban rail rail_electric rail_fast ship" speed="36.11" length="0.26" width="3.50" customShape="1" shape="732.16,-604.37 732.28,-604.36 732.42,-604.35"/>
    </edge>
    <edge id="7644" from="23" to="26" priority="3" type="highway.residential" spreadType="center" length="77.05" shape="633.74,-614.67 723.30,-605.12">
        <lane id="7644_0" index="0" disallow="pedestrian tram rail_urban rail rail_electric rail_fast ship" speed="36.11" length="77.05" width="3.50" customShape="1" shape="637.72,-614.31 647.36,-613.44 660.97,-612.20 661.10,-612.19 661.22,-612.18 667.82,-611.74 683.57,-611.31 689.65,-610.83 690.67,-610.72 691.66,-610.60 692.65,-610.47 704.01,-609.03 714.45,-607.82"/>
        <lane id="7644_1" index="1" disallow="pedestrian tram rail_urban rail rail_electric rail_fast ship" speed="36.11" length="77.10" width="3.50" customShape="1" shape="637.72,-614.31 647.36,-613.44 660.97,-612.20 661.10,-612.19 661.22,-612.18 666.44,-611.52 674.71,-610.01 685.04,-608.01 690.23,-607.24 691.23,-607.12 692.23,-607.00 703.64,-605.55 714.12,-604.34"/>
    </edge>
    <edge id="7676" from="7" to="8" priority="3" type="highway.residential" spreadType="center" length="68.50">
        <lane id="7676_0" index="0" disallow="pedestrian tram rail_urban rail rail_electric rail_fast ship" speed="36.11" length="68.50" width="3.50" customShape="1" shape="713.19,-581.36 705.26,-569.17 698.68,-558.51 692.72,-548.06 687.80,-538.75 682.95,-528.85 679.79,-521.67"/>
    </edge>
    <edge id="7677" from="20" to="19" priority="3" type="highway.residential" spreadType="center" length="68.49">
        <lane id="7677_0" index="0" disallow="pedestrian tram rail_urban rail rail_electric rail_fast ship" speed="36.11" length="68.49" width="3.50" customShape="1" shape="676.82,-523.60 679.84,-530.47 684.73,-540.44 689.68,-549.81 695.68,-560.32 702.30,-571.05 710.25,-583.27"/>
    </edge>
    <edge id="7683" from="19" to="26" priority="3" type="highway.residential" spreadType="center" length="10.20" shape="711.07,-584.53 721.40,-602.61">
        <lane id="7683_0" index="0" disallow="pedestrian tram rail_urban rail rail_electric rail_fast ship" speed="36.11" length="10.20" width="3.38" customShape="1" shape="711.89,-585.79 713.84,-588.80 716.61,-593.06 716.68,-593.17 716.75,-593.28 717.39,-594.38"/>
    </edge>
    <edge id="7687" from="17" to="25" priority="3" type="highway.residential" spreadType="center" length="5.25" shape="745.46,-615.44 745.39,-604.21">
        <lane id="7687_0" index="0" disallow="pedestrian tram rail_urban rail rail_electric rail_fast ship" speed="36.11" length="5.25" width="3.49" customShape="1" shape="745.46,-615.44 745.05,-610.46 745.04,-610.33 745.03,-610.21"/>
    </edge>
    <edge id="7688" from="25" to="14" priority="3" type="highway.residential" spreadType="center" length="5.30" shape="741.94,-604.23 741.97,-615.74">
        <lane id="7688_0" index="0" disallow="pedestrian tram rail_urban rail rail_electric rail_fast ship" speed="36.11" length="5.30" width="3.50" customShape="1" shape="741.54,-610.46 741.55,-610.62 741.56,-610.76 741.97,-615.74"/>
    </edge>
    <edge id="8287" from="26" to="7" priority="3" type="highway.residential" spreadType="center" length="10.62" shape="724.38,-600.92 714.00,-582.62">
        <lane id="8287_0" index="0" disallow="pedestrian tram rail_urban rail rail_electric rail_fast ship" speed="36.11" length="10.62" width="3.48" customShape="1" shape="720.53,-592.83 719.71,-591.42 719.62,-591.27 719.55,-591.16 716.78,-586.89 714.82,-583.88"/>
    </edge>
    <edge id="8392" from="26" to="1" priority="3" type="highway.residential" spreadType="center" length="79.56" shape="722.61,-599.92 633.44,-611.18">
        <lane id="8392_0" index="0" disallow="pedestrian tram rail_urban rail rail_electric rail_fast ship" speed="36.11" length="79.56" width="3.50" customShape="1" shape="713.79,-600.85 703.24,-602.07 691.81,-603.53 690.81,-603.65 689.79,-603.77 684.54,-604.54 674.20,-606.55 666.00,-608.05 660.86,-608.70 660.76,-608.71 660.64,-608.72 647.04,-609.95 634.94,-611.04"/>
    </edge>

    <junction id="1" type="priority" x="633.44" y="-611.18" incLanes="8392_0" intLanes=":1_0_0" shape="634.78,-609.30 635.09,-612.79 632.10,-613.05 631.80,-609.56" rightOfWay="edgePriority">
        <request index="0" response="0" foes="0" cont="0"/>
    </junction>
    <junction id="13" type="dead_end" x="761.03" y="-603.60" incLanes="7572_0" intLanes="" shape="761.17,-605.35 760.89,-601.86" rightOfWay="edgePriority"/>
    <junction id="14" type="dead_end" x="741.97" y="-615.74" incLanes="7688_0" intLanes="" shape="740.23,-615.88 743.71,-615.59" rightOfWay="edgePriority"/>
    <junction id="17" type="dead_end" x="745.46" y="-615.44" incLanes="" intLanes="" shape="743.72,-615.59 747.20,-615.30" rightOfWay="edgePriority"/>
    <junction id="18" type="dead_end" x="758.13" y="-598.57" incLanes="" intLanes="" shape="758.40,-602.05 757.85,-595.08" rightOfWay="edgePriority"/>
    <junction id="19" type="priority" x="711.07" y="-584.53" incLanes="7677_0" intLanes=":19_0_0" shape="713.31,-584.87 710.47,-586.71 708.79,-584.23 711.72,-582.32" rightOfWay="edgePriority">
        <request index="0" response="0" foes="0" cont="0"/>
    </junction>
    <junction id="2" type="dead_end" x="563.69" y="-617.00" incLanes="7549_0" intLanes="" shape="563.54,-615.26 563.83,-618.75" rightOfWay="edgePriority"/>
    <junction id="20" type="dead_end" x="676.82" y="-523.60" incLanes="" intLanes="" shape="678.42,-522.90 675.22,-524.31" rightOfWay="edgePriority"/>
    <junction id="23" type="priority" x="633.74" y="-614.67" incLanes="7550_0" intLanes=":23_0_0 :23_0_1" shape="637.57,-612.56 637.88,-616.05 629.90,-616.74 629.61,-613.26" rightOfWay="edgePriority">
        <request index="0" response="00" foes="00" cont="0"/>
        <request index="1" response="00" foes="00" cont="0"/>
    </junction>
    <junction id="24" type="dead_end" x="563.98" y="-620.49" incLanes="" intLanes="" shape="563.84,-618.74 564.13,-622.23" rightOfWay="edgePriority"/>
    <junction id="25" type="priority" x="743.67" y="-604.49" incLanes="7570_0 7570_1 7687_0 7630_0" intLanes=":25_0_0 :25_1_0 :25_2_0 :25_3_0" shape="755.11,-595.29 755.93,-605.76 753.05,-606.09 750.71,-606.58 748.91,-607.23 747.66,-608.05 746.94,-609.02 746.77,-610.16 739.79,-610.56 738.86,-607.75 737.85,-606.84 736.47,-606.25 734.72,-606.00 732.61,-606.08 731.86,-599.13">
        <request index="0" response="0000" foes="0010" cont="0"/>
        <request index="1" response="1001" foes="1001" cont="0"/>
        <request index="2" response="0000" foes="0000" cont="0"/>
        <request index="3" response="0000" foes="0010" cont="0"/>
    </junction>
    <junction id="26" type="priority" x="722.79" y="-601.65" incLanes="7629_0 7644_0 7644_1 7683_0" intLanes=":26_0_0 :26_1_0 :26_2_0 :26_3_0 :26_4_0 :26_5_0" shape="731.63,-599.15 732.33,-606.11 728.52,-606.63 725.75,-607.24 721.22,-608.56 718.44,-609.18 714.63,-609.70 713.62,-599.11 715.78,-598.45 716.33,-597.87 716.52,-597.12 716.37,-596.20 715.86,-595.12 722.10,-592.06 723.60,-594.38 725.14,-596.24 726.71,-597.65 728.32,-598.61 729.96,-599.11">
        <request index="0" response="000000" foes="001000" cont="0"/>
        <request index="1" response="000000" foes="111000" cont="0"/>
        <request index="2" response="000000" foes="100000" cont="0"/>
        <request index="3" response="000011" foes="100011" cont="0"/>
        <request index="4" response="000010" foes="000010" cont="0"/>
        <request index="5" response="001110" foes="001110" cont="0"/>
    </junction>
    <junction id="7" type="priority" x="714.00" y="-582.62" incLanes="8287_0" intLanes=":7_0_0" shape="716.28,-582.93 713.36,-584.83 711.72,-582.32 714.65,-580.41" rightOfWay="edgePriority">
        <request index="0" response="0" foes="0" cont="0"/>
    </junction>
    <junction id="8" type="dead_end" x="679.79" y="-521.67" incLanes="7676_0" intLanes="" shape="681.39,-520.96 678.19,-522.37" rightOfWay="edgePriority"/>

    <connection from="7550" to="7644" fromLane="0" toLane="0" contPos="-4.00" via=":23_0_0" dir="s" state="M"/>
    <connection from="7550" to="7644" fromLane="0" toLane="1" contPos="-4.00" via=":23_0_1" dir="s" state="M"/>
    <connection from="7570" to="7629" fromLane="0" toLane="0" contPos="-4.00" shape="755.23,-597.04 750.68,-597.57 743.64,-598.88 736.10,-600.33 732.05,-600.87" via=":25_0_0" dir="s" state="M"/>
    <connection from="7629" to="8287" fromLane="0" toLane="0" contPos="-4.00" shape="731.83,-600.89 729.41,-601.02 728.28,-600.98 727.16,-600.85 726.12,-600.63 725.17,-600.28 724.34,-599.82 723.67,-599.25 723.15,-598.55 722.74,-597.65" via=":26_0_0" dir="r" state="M"/>
    <connection from="7629" to="8392" fromLane="0" toLane="0" contPos="-4.00" shape="731.83,-600.89 728.22,-601.05 721.59,-600.70 717.50,-600.58 714.93,-600.73" via=":26_1_0" dir="s" state="M"/>
    <connection from="7630" to="7688" fromLane="0" toLane="0" contPos="-4.00" shape="732.38,-604.35 733.59,-604.26 734.76,-604.25 735.89,-604.33 736.98,-604.52 737.98,-604.83 738.87,-605.26 739.63,-605.84 740.26,-606.55 740.76,-607.38 741.14,-608.34 741.39,-609.39 741.54,-610.46" via=":25_2_0" dir="r" state="M"/>
    <connection from="7630" to="7572" fromLane="0" toLane="0" contPos="-4.00" shape="732.38,-604.35 736.97,-604.06 744.10,-604.11 751.73,-604.21 755.79,-604.02" via=":25_3_0" dir="s" state="M"/>
    <connection from="7644" to="7630" fromLane="0" toLane="0" contPos="-4.00" shape="715.66,-607.69 719.18,-607.15 729.12,-604.82 732.16,-604.37" via=":26_2_0" dir="s" state="M"/>
    <connection from="7644" to="8287" fromLane="1" toLane="0" contPos="-4.00" shape="715.27,-604.21 717.24,-603.94 719.14,-603.49 720.95,-602.74 722.42,-601.46 723.05,-599.65 722.74,-597.65" via=":26_3_0" dir="l" state="m"/>
    <connection from="7677" to="7683" fromLane="0" toLane="0" contPos="-4.00" via=":19_0_0" dir="s" state="M"/>
    <connection from="7683" to="8392" fromLane="0" toLane="0" contPos="-4.00" shape="719.44,-598.60 719.82,-599.01 719.33,-599.64 718.51,-600.01 717.46,-600.32 716.23,-600.56 714.93,-600.73" via=":26_4_0" dir="r" state="m"/>
    <connection from="7683" to="7630" fromLane="0" toLane="0" contPos="-4.00" shape="719.44,-598.60 720.06,-600.23 720.92,-601.46 722.01,-602.50 723.28,-603.30 724.68,-603.87 726.14,-604.24 727.63,-604.44 729.14,-604.52 732.16,-604.37" via=":26_5_0" dir="l" state="m"/>
    <connection from="7687" to="7629" fromLane="0" toLane="0" contPos="-4.00" shape="745.03,-610.21 744.83,-608.69 744.47,-607.20 743.93,-605.77 743.16,-604.44 742.17,-603.28 740.97,-602.33 739.60,-601.63 738.15,-601.15 736.64,-600.87 735.11,-600.75 733.58,-600.76 732.05,-600.87" via=":25_1_0" dir="l" state="m"/>
    <connection from="8287" to="7676" fromLane="0" toLane="0" contPos="-4.00" via=":7_0_0" dir="s" state="M"/>
    <connection from="8392" to="7549" fromLane="0" toLane="0" contPos="-4.00" via=":1_0_0" dir="s" state="M"/>

    <connection from=":1_0" to="7549" fromLane="0" toLane="0" dir="s" state="M"/>
    <connection from=":19_0" to="7683" fromLane="0" toLane="0" dir="s" state="M"/>
    <connection from=":23_0" to="7644" fromLane="0" toLane="0" dir="s" state="M"/>
    <connection from=":23_0" to="7644" fromLane="1" toLane="1" dir="s" state="M"/>
    <connection from=":25_0" to="7629" fromLane="0" toLane="0" dir="s" state="M"/>
    <connection from=":25_1" to="7629" fromLane="0" toLane="0" dir="l" state="M"/>
    <connection from=":25_2" to="7688" fromLane="0" toLane="0" dir="r" state="M"/>
    <connection from=":25_3" to="7572" fromLane="0" toLane="0" dir="s" state="M"/>
    <connection from=":26_0" to="8287" fromLane="0" toLane="0" dir="r" state="M"/>
    <connection from=":26_1" to="8392" fromLane="0" toLane="0" dir="s" state="M"/>
    <connection from=":26_2" to="7630" fromLane="0" toLane="0" dir="s" state="M"/>
    <connection from=":26_3" to="8287" fromLane="0" toLane="0" dir="l" state="M"/>
    <connection from=":26_4" to="8392" fromLane="0" toLane="0" dir="r" state="M"/>
    <connection from=":26_5" to="7630" fromLane="0" toLane="0" dir="l" state="M"/>
    <connection from=":7_0" to="7676" fromLane="0" toLane="0" dir="s" state="M"/>

</net>