<routes>
	<vehicle depart="0.1" departLane="0" departPos="11.600101289465181" departSpeed="0.0" id="34" type="passenger">
		<route edges="7683 8392"/>
	</vehicle>
	<vehicle depart="0.1" departLane="0" departPos="2.5" departSpeed="0.0" id="35" type="passenger">
		<route edges="7683 8392"/>
	</vehicle>
	<vehicle depart="0.1" departLane="0" departPos="67.20577038001156" departSpeed="0.0" id="36" type="passenger">
		<route edges="7677 7683"/>
	</vehicle>
	<vehicle depart="0.1" departLane="1" departPos="84.29078060343394" departSpeed="1.3337378" id="310" type="passenger">
		<route edges="7644 8287"/>
	</vehicle>
	<vehicle depart="0.1" departLane="0" departPos="2.5" departSpeed="11.999825" id="319" type="passenger">
		<route edges="8287 7676"/>
	</vehicle>
	<vehicle depart="0.1" departLane="0" departPos="3.75" departSpeed="0.16268366" id="30" type="truck">
		<route edges="7570 7629"/>
	</vehicle>
</routes>
