<routes>
	<vehicle depart="0.1" departLane="0" departPos="33.017331177436816" departSpeed="0.0" id="331" type="passenger">
		<route edges="5900 5662"/>
	</vehicle>
	<vehicle depart="0.1" departLane="0" departPos="25.41007848175804" departSpeed="0.1150578" id="335" type="passenger">
		<route edges="5900 5662"/>
	</vehicle>
	<vehicle depart="0.1" departLane="0" departPos="13.828564294635164" departSpeed="2.0920227" id="357" type="passenger">
		<route edges=":245_11 5896"/>
	</vehicle>
	<vehicle depart="0.1" departLane="0" departPos="10.23568465298402" departSpeed="2.7675828" id="373" type="passenger">
		<route edges="5899 6229"/>
	</vehicle>
	<vehicle depart="0.1" departLane="0" departPos="6.320991800217221" departSpeed="0.38890826" id="393" type="passenger">
		<route edges=":245_11 5896"/>
	</vehicle>
	<vehicle depart="0.1" departLane="0" departPos="12.535871265962742" departSpeed="4.0202038" id="3150" type="passenger">
		<route edges="5900 5662"/>
	</vehicle>
	<vehicle depart="0.1" departLane="0" departPos="25.404971027728287" departSpeed="5.3018638" id="3162" type="passenger">
		<route edges=":245_1 5900"/>
	</vehicle>
	<vehicle depart="0.1" departLane="0" departPos="30.093246594202867" departSpeed="0.021758089" id="3179" type="passenger">
		<route edges="5897 6229"/>
	</vehicle>
	<vehicle depart="0.1" departLane="0" departPos="21.22968705361519" departSpeed="0.8836461" id="3194" type="passenger">
		<route edges="5897 6229"/>
	</vehicle>
	<vehicle depart="0.1" departLane="0" departPos="26.456850732964526" departSpeed="4.8289408" id="3204" type="passenger">
		<route edges=":251_9 5897 6229"/>
	</vehicle>
</routes>
