<!-- generated on 2020-12-18 15:42:06.452213 by ipykernel_launcher.py v1_2_0+5214-53edc58fcd
-->
<edges>
	<edge from="1" function="normal" id="20" length="90.29569646162706" numLanes="5" priority="1" speed="36.11111111111111" spreadType="center" to="2">
		<lane allow="pedestrian rail private passenger ship delivery vip emergency bicycle rail_electric army rail_urban trailer coach custom2 tram taxi evehicle custom1 motorcycle authority hov moped" index="0" length="90.29569646162706" shape="-41.57,-4.525 -37.849999999999994,-4.484999999999999 -33.89,-4.5 -23.63,-4.305 -19.67,-4.32 -13.45,-4.205 -8.665,-4.085 -4.705,-3.995 5.859999999999999,-3.66 6.645,-3.6550000000000002 9.86,-3.565 19.705,-3.2249999999999996 20.795,-3.1900000000000004 24.78,-3.115 28.884999999999998,-2.955 35.25,-2.595 39.2,-2.44 41.25,-2.3249999999999997 49.105000000000004,-1.9 49.115,-1.9000000000000001" speed="36.11111111111111" width="3.4602312061479363"/>
		<lane allow="pedestrian rail private passenger ship delivery vip emergency bicycle rail_electric army rail_urban trailer coach custom2 tram taxi evehicle custom1 motorcycle authority hov moped" index="1" length="90.29569646162706" shape="-41.635000000000005,-1.04 -41.06,-1.025 -37.845,-1.04 -37.135,-1.05 -33.99,-1.0399999999999998 -26.465000000000003,-0.8849999999999999 -23.619999999999997,-0.87 -22.58,-0.89 -19.82,-0.865 -11.675,-0.635 -8.745000000000001,-0.5750000000000001 -7.71,-0.5499999999999999 -4.8149999999999995,-0.485 2.81,-0.235 5.8,-0.15000000000000002 6.745,-0.13 9.695,-0.040000000000000036 17.935000000000002,0.27 20.735,0.34999999999999987 21.865,0.375 24.619999999999997,0.4600000000000001 32.36,0.835 35.105000000000004,0.9349999999999999 36.265,0.9650000000000001 38.96,1.055 47.055,1.485 48.935,1.56" speed="36.11111111111111" width="3.244456811239749"/>
		<lane allow="pedestrian rail private passenger ship delivery vip emergency bicycle rail_electric army rail_urban trailer coach custom2 tram taxi evehicle custom1 motorcycle authority truck hov moped" index="2" length="90.29569646162706" shape="-41.7,2.305 -41.09,2.31 -37.17,2.305 -34.605000000000004,2.34 -30.645000000000003,2.34 -26.564999999999998,2.425 -22.655,2.4450000000000003 -19.59,2.52 -15.64,2.555 -11.775,2.685 -7.835,2.795 -4.3100000000000005,2.9099999999999997 -0.35,3.015 2.685,3.105 6.63,3.215 10.3,3.34 14.254999999999999,3.46 17.810000000000002,3.6 21.740000000000002,3.7199999999999998 25.18,3.8600000000000003 29.134999999999998,3.9850000000000003 32.125,4.145 36.035,4.3149999999999995 39.685,4.53 43.64,4.665 46.879999999999995,4.825 48.765,4.89" speed="36.11111111111111" width="3.1915670132397347"/>
		<lane allow="pedestrian rail private passenger ship delivery vip emergency bicycle rail_electric army rail_urban trailer coach custom2 tram taxi evehicle custom1 motorcycle authority truck hov moped" index="3" length="90.29569646162706" shape="-41.765,5.615 -34.68,5.72 -34.45,5.72 -30.64,5.665 -30.36,5.67 -19.675,5.88 -19.66,5.88 -15.780000000000001,5.890000000000001 -15.535,5.9 -4.744999999999999,6.255 -4.390000000000001,6.255 -0.815,6.334999999999999 -0.45499999999999996,6.34 9.975,6.655 10.2,6.66 13.915,6.735 14.085,6.735 24.825000000000003,7.17 25.075,7.18 28.759999999999998,7.25 28.925,7.25 39.515,7.880000000000001 39.625,7.885 43.525,7.96 43.68,7.975 48.59,8.26" speed="36.11111111111111" width="3.204512443414755"/>
		<lane allow="pedestrian rail private passenger ship delivery vip emergency bicycle rail_electric army rail_urban trailer coach bus custom2 tram taxi evehicle custom1 motorcycle authority truck hov moped" index="4" length="90.29569646162706" shape="-41.834999999999994,9.045 -34.394999999999996,9.19 -34.125,9.19 -30.375,9.135 -30.045,9.14 -19.59,9.315 -19.195,9.315 -15.629999999999999,9.39 -15.219999999999999,9.395 -4.865,9.7 -4.47,9.71 -0.885,9.78 -0.475,9.79 9.870000000000001,10.07 10.260000000000002,10.085 13.845,10.15 14.275,10.165 24.69,10.594999999999999 25.085,10.61 28.695,10.684999999999999 29.14,10.7 39.55,11.24 39.95,11.254999999999999 43.57,11.33 44.055,11.355 48.41,11.655000000000001" speed="36.11111111111111" width="3.474665451521916"/>
	</edge>
	<edge from="2" function="normal" id="16" length="132.4458981165044" numLanes="6" priority="1" speed="36.11111111111111" spreadType="center" to="3">
		<lane allow="pedestrian rail private passenger ship delivery vip emergency bicycle rail_electric army rail_urban trailer coach custom2 tram taxi evehicle custom1 motorcycle authority truck hov moped" index="0" length="132.4458981165044" shape="49.315,-5.65 52.16,-5.465 53.129999999999995,-5.43 56.65,-5.234999999999999 57.625,-5.195 61.22,-5.0200000000000005 62.19,-4.9799999999999995 65.805,-4.8 66.775,-4.755 70.30000000000001,-4.57 71.27000000000001,-4.53 72.23,-4.475 74.88,-4.325 75.85,-4.285 79.425,-4.115 80.385,-4.08 84.03,-3.88 85.005,-3.8449999999999998 88.4,-3.655 89.37,-3.61 92.945,-3.395 93.91,-3.3549999999999995 97.69999999999999,-3.18 98.675,-3.145 102.215,-2.9800000000000004 103.18,-2.94 106.885,-2.72 107.86,-2.68 111.355,-2.5050000000000003 112.32,-2.465 115.91,-2.28 116.78,-2.24 116.885,-2.2350000000000003 120.57,-1.98 121.545,-1.945 125.06,-1.8050000000000002 126.035,-1.765 129.56,-1.57 130.53,-1.53 134.235,-1.34 135.20499999999998,-1.3 138.515,-1.1099999999999999 139.485,-1.0699999999999998 143.165,-0.875 144.13,-0.835 147.64,-0.5850000000000001 148.61,-0.5399999999999999 152.29,-0.39500000000000013 153.26,-0.355 154.125,-0.30999999999999994 156.87,-0.15999999999999992 157.845,-0.11499999999999999 161.32999999999998,0.08999999999999997 162.305,0.13 165.855,0.33499999999999996 166.825,0.38 172.78,0.705 173.745,0.75 177.51999999999998,0.99 178.485,1.02 181.62,1.21" speed="36.11111111111111" width="3.6749149650025914"/>
		<lane allow="pedestrian rail private passenger ship delivery vip emergency bicycle rail_electric army rail_urban trailer coach custom2 tram taxi evehicle custom1 motorcycle authority hov moped" index="1" length="132.4458981165044" shape="49.115,-1.9000000000000001 49.91,-1.845 52.025000000000006,-1.75 52.995000000000005,-1.73 53.855000000000004,-1.695 56.24,-1.505 57.09,-1.45 57.235,-1.44 58.010000000000005,-1.3850000000000002 58.254999999999995,-1.37 61.07,-1.275 61.105,-1.28 62.05500000000001,-1.25 62.175,-1.25 65.59,-1.08 66.5,-1.045 66.59,-1.04 70.105,-0.85 70.995,-0.81 71.08000000000001,-0.8049999999999999 71.705,-0.775 74.75,-0.6499999999999999 75.62,-0.635 75.655,-0.6300000000000001 83.735,-0.15000000000000002 84.625,-0.09999999999999998 84.755,-0.09499999999999997 85.95,-0.019999999999999907 86.03,-0.009999999999999898 88.265,0.07499999999999996 89.235,0.10499999999999998 89.92500000000001,0.13 92.75,0.31500000000000006 93.62,0.355 93.69,0.355 97.455,0.5399999999999999 98.375,0.5800000000000001 98.445,0.585 100.58500000000001,0.695 102.08000000000001,0.7349999999999999 103.05,0.7599999999999999 104.6,0.8300000000000001 106.685,0.9650000000000001 107.55,1.005 107.635,1.01 111.11,1.2 112.005,1.2449999999999999 112.095,1.25 115.16499999999999,1.42 115.19,1.425 115.71000000000001,1.4549999999999998 116.69,1.495 119.21000000000001,1.67 120.375,1.75 121.275,1.785 124.75999999999999,1.915 124.82499999999999,1.915 125.765,1.9549999999999998 125.85499999999999,1.96 129.365,2.15 129.565,2.1649999999999996 130.245,2.19 130.315,2.19 133.63,2.365 134.065,2.385 135.03,2.415 138.345,2.5949999999999998 139.26999999999998,2.63 139.32999999999998,2.63 142.995,2.8 143.95999999999998,2.83 145.20499999999998,2.91 147.445,3.075 148.325,3.115 148.95,3.14 151.94,3.275 152.92000000000002,3.3200000000000003 153.035,3.325 156.635,3.54 157.5,3.585 157.625,3.5949999999999998 159.495,3.705 161.135,3.805 162.015,3.8449999999999998 162.125,3.855 163.45499999999998,3.9299999999999997 165.675,4.05 166.64999999999998,4.09 172.60000000000002,4.385 173.575,4.42 173.67000000000002,4.425 177.32,4.66 177.475,4.665 178.075,4.695 178.215,4.71 181.41,4.9399999999999995" speed="36.11111111111111" width="3.496312343026578"/>
		<lane allow="pedestrian rail private passenger ship delivery vip emergency bicycle rail_electric army rail_urban trailer coach custom2 tram taxi evehicle custom1 motorcycle authority hov moped" index="2" length="132.4458981165044" shape="48.935,1.56 49.75,1.585 50.96,1.61 53.465,1.72 53.67,1.74 58.025,2.095 61.394999999999996,2.245 61.545,2.255 62.040000000000006,2.26 62.120000000000005,2.27 65.57499999999999,2.39 71.455,2.725 75.29,2.89 75.45,2.9 76.285,2.955 76.39,2.96 80.255,3.135 85.735,3.495 89.545,3.6500000000000004 89.675,3.6550000000000002 91.005,3.73 94.97,3.88 100.36500000000001,4.21 104.195,4.38 104.34,4.385 105.80000000000001,4.470000000000001 105.88499999999999,4.475 109.765,4.635 115.03,4.904999999999999 118.985,5.09 120.485,5.16 124.435,5.37 129.49,5.64 133.45,5.855 134.925,5.92 138.88,6.105 144.92000000000002,6.385 144.96,6.385 148.91,6.595 149.695,6.645 153.64499999999998,6.869999999999999 159.29,7.21 163.24,7.43 173.405,7.93 173.45,7.93 177.405,8.15 179.41500000000002,8.295 181.22,8.41" speed="36.11111111111111" width="3.2105606986942328"/>
		<lane allow="pedestrian rail private passenger ship delivery vip emergency bicycle rail_electric army rail_urban trailer coach custom2 tram taxi evehicle custom1 motorcycle authority truck hov moped" index="3" length="132.4458981165044" shape="48.765,4.89 50.745,4.955 50.879999999999995,4.96 54.675,5.18 58.62,5.359999999999999 61.42,5.550000000000001 65.215,5.715 65.36,5.725 69.305,5.98 73.27000000000001,6.145 76.095,6.3149999999999995 79.95500000000001,6.449999999999999 80.065,6.455 84.12,6.68 88.075,6.845000000000001 90.74000000000001,7.025 94.55000000000001,7.215 94.725,7.220000000000001 98.81,7.515000000000001 102.77,7.675000000000001 105.61,7.8500000000000005 109.455,8.0 109.55000000000001,7.995 113.78,8.2 117.74000000000001,8.32 120.25,8.45 120.3,8.45 124.25,8.67 128.5,8.905 128.515,8.91 132.47,9.125 134.83499999999998,9.235 138.79000000000002,9.43 143.055,9.625 147.01,9.835 149.525,9.95 153.475,10.135 158.005,10.355 161.95499999999998,10.57 172.59,11.195 172.61,11.195 176.56,11.415 179.16,11.57 181.04500000000002,11.67" speed="36.11111111111111" width="3.115798453045383"/>
		<lane allow="pedestrian rail private passenger ship delivery vip emergency bicycle rail_electric army rail_urban trailer coach custom2 tram taxi evehicle custom1 motorcycle authority hov moped" index="4" length="132.4458981165044" shape="48.59,8.26 54.265,8.585 54.525000000000006,8.595 58.175,8.665000000000001 58.260000000000005,8.665000000000001 58.425,8.685 69.095,9.36 69.33000000000001,9.370000000000001 73.13499999999999,9.45 73.345,9.455 83.885,10.100000000000001 83.985,10.100000000000001 87.78999999999999,10.17 98.61500000000001,10.86 98.78,10.865 102.625,10.940000000000001 102.8,10.945 113.525,11.600000000000001 113.68,11.600000000000001 117.425,11.675 127.97,12.254999999999999 128.335,12.274999999999999 131.92000000000002,12.47 132.29500000000002,12.49 142.66500000000002,12.975 142.82999999999998,12.98 142.87,12.985 146.68,13.190000000000001 146.85000000000002,13.2 157.70999999999998,13.655000000000001 157.755,13.655000000000001 157.82,13.655000000000001 161.695,13.86 161.775,13.875 172.43,14.475000000000001 172.61,14.485 176.38,14.695 176.58499999999998,14.704999999999998 180.865,14.955" speed="36.11111111111111" width="3.2644295060546185"/>
		<lane allow="pedestrian rail private passenger ship delivery vip emergency bicycle rail_electric army rail_urban trailer coach custom2 tram taxi evehicle custom1 motorcycle authority hov moped" index="5" length="132.4458981165044" shape="48.41,11.655000000000001 54.06,12.04 54.37,12.06 54.54,12.06 58.105000000000004,12.135000000000002 58.575,12.155000000000001 69.195,12.8 69.515,12.82 69.655,12.815000000000001 73.225,12.89 73.71000000000001,12.915 83.67,13.615 83.98,13.63 84.14500000000001,13.635000000000002 87.72,13.705 88.17,13.725000000000001 98.66499999999999,14.24 99.01,14.260000000000002 99.11,14.255 102.675,14.329999999999998 103.155,14.35 113.315,15.030000000000001 113.63,15.045 113.795,15.05 117.35499999999999,15.125 117.81,15.14 127.775,15.66 128.29,15.695 131.73000000000002,15.885 132.235,15.905 142.54,16.445 143.055,16.475 146.495,16.655 146.94,16.68 146.985,16.685 157.57,17.13 158.065,17.15 161.505,17.335 162.015,17.37 172.425,17.925 172.94,17.955 176.38,18.145 176.895,18.17 180.67000000000002,18.380000000000003" speed="36.11111111111111" width="3.4676360824054195"/>
	</edge>
	<edge from="4" function="normal" id="17" length="91.064485235905" numLanes="1" priority="1" speed="36.11111111111111" spreadType="center" to="2">
		<lane allow="pedestrian rail private passenger ship delivery vip emergency bicycle rail_electric army rail_urban trailer coach bus custom2 tram taxi evehicle custom1 motorcycle authority truck hov moped" index="0" length="91.064485235905" shape="-41.394999999999996,-13.415 -36.135000000000005,-12.675 -34.375,-12.469999999999999 -24.455,-11.32 -16.26,-10.524999999999999 -9.675,-9.95 0.245,-9.085 2.385,-8.92 13.469999999999999,-8.065 28.785,-6.84 29.2,-6.805 36.87,-6.305 41.445,-6.055 49.315,-5.65" speed="36.11111111111111" width="3.6432128677857962"/>
	</edge>
</edges>
