<!-- generated on 2020-12-18 15:42:06.576987 by ipykernel_launcher.py v1_2_0+5214-53edc58fcd
-->
<nodes>
	<node id="1" type="from" x="-41.701" y="2.2800000000000002"/>
	<node id="2" type="to" x="48.763" y="4.893"/>
	<node id="3" type="to" x="181.13833333333335" y="9.9275"/>
	<node id="4" type="from" x="-41.394999999999996" y="-13.415"/>
</nodes>
