<?xml version="1.0" encoding="UTF-8"?>

<!-- generated on Fri Dec 18 15:42:06 2020 by Eclipse SUMO netconvert Version 1.8.0
<configuration xmlns:xsi="http://www.w3.org/2001/XMLSchema-instance" xsi:noNamespaceSchemaLocation="http://sumo.dlr.de/xsd/netconvertConfiguration.xsd">

    <input>
        <node-files value="./converted_scenarios/hand-crafted/USA_US101-31_1_I-1-1/nodes.net.xml"/>
        <edge-files value="./converted_scenarios/hand-crafted/USA_US101-31_1_I-1-1/edges.net.xml"/>
        <connection-files value="./converted_scenarios/hand-crafted/USA_US101-31_1_I-1-1/_connections.net.xml"/>
        <tllogic-files value="./converted_scenarios/hand-crafted/USA_US101-31_1_I-1-1/_tll.net.xml"/>
    </input>

    <output>
        <output-file value="./converted_scenarios/hand-crafted/USA_US101-31_1_I-1-1/USA_US101-31_1_I-1-1.net.xml"/>
    </output>

    <processing>
        <plain.extend-edge-shape value="true"/>
        <geometry.remove.keep-edges.explicit value="true"/>
        <geometry.avoid-overlap value="true"/>
        <offset.disable-normalization value="true"/>
    </processing>

    <junctions>
        <no-turnarounds value="true"/>
        <junctions.internal-link-detail value="20"/>
    </junctions>

    <report>
        <aggregate-warnings value="5"/>
    </report>

    <random_number>
        <seed value="1234"/>
    </random_number>

</configuration>
-->

<net version="1.6" junctionCornerDetail="5" junctionLinkDetail="20" limitTurnSpeed="5.50" xmlns:xsi="http://www.w3.org/2001/XMLSchema-instance" xsi:noNamespaceSchemaLocation="http://sumo.dlr.de/xsd/net_file.xsd">

    <location netOffset="0.00,0.00" convBoundary="-41.70,-13.41,181.14,9.93" origBoundary="-41.83,-13.41,181.62,18.38" projParameter="!"/>

    <edge id=":2_0" function="internal">
        <lane id=":2_0_0" index="0" disallow="bus rail_fast" speed="36.11" length="2.99" width="3.67" shape="49.00,-5.67 51.99,-5.48"/>
    </edge>
    <edge id=":2_1" function="internal">
        <lane id=":2_1_0" index="0" disallow="bus truck rail_fast" speed="36.11" length="4.17" width="3.50" shape="47.62,-1.98 51.78,-1.76"/>
        <lane id=":2_1_1" index="1" disallow="bus truck rail_fast" speed="36.11" length="4.17" width="3.21" shape="47.43,1.50 51.60,1.64"/>
        <lane id=":2_1_2" index="2" disallow="bus rail_fast" speed="36.11" length="4.17" width="3.12" shape="47.25,4.84 51.41,4.99"/>
        <lane id=":2_1_3" index="3" disallow="bus truck rail_fast" speed="36.11" length="4.17" width="3.26" shape="47.07,8.17 51.23,8.41"/>
        <lane id=":2_1_4" index="4" disallow="bus truck rail_fast" speed="36.11" length="4.17" width="3.47" shape="46.89,11.55 51.04,11.83"/>
    </edge>

    <edge id="16" from="2" to="3" priority="1" spreadType="center" length="132.45">
        <lane id="16_0" index="0" disallow="bus rail_fast" speed="36.11" length="132.45" width="3.67" acceleration="1" customShape="1" shape="51.99,-5.48 52.16,-5.46 53.13,-5.43 56.65,-5.23 57.62,-5.20 61.22,-5.02 62.19,-4.98 65.81,-4.80 66.78,-4.75 70.30,-4.57 71.27,-4.53 72.23,-4.47 74.88,-4.33 75.85,-4.29 79.42,-4.12 80.39,-4.08 84.03,-3.88 85.00,-3.84 88.40,-3.65 89.37,-3.61 92.94,-3.40 93.91,-3.35 97.70,-3.18 98.67,-3.15 102.22,-2.98 103.18,-2.94 106.89,-2.72 107.86,-2.68 111.36,-2.51 112.32,-2.46 115.91,-2.28 116.78,-2.24 116.89,-2.24 120.57,-1.98 121.55,-1.95 125.06,-1.81 126.03,-1.76 129.56,-1.57 130.53,-1.53 134.24,-1.34 135.20,-1.30 138.51,-1.11 139.49,-1.07 143.16,-0.88 144.13,-0.83 147.64,-0.59 148.61,-0.54 152.29,-0.40 153.26,-0.35 154.12,-0.31 156.87,-0.16 157.84,-0.11 161.33,0.09 162.31,0.13 165.85,0.33 166.82,0.38 172.78,0.70 173.75,0.75 177.52,0.99 178.49,1.02 181.67,1.21"/>
        <lane id="16_1" index="1" disallow="bus truck rail_fast" speed="36.11" length="132.45" width="3.50" customShape="1" shape="51.78,-1.76 52.03,-1.75 53.00,-1.73 53.86,-1.70 56.24,-1.50 57.09,-1.45 57.23,-1.44 58.01,-1.39 58.25,-1.37 61.07,-1.27 62.06,-1.25 62.17,-1.25 65.59,-1.08 66.50,-1.04 70.11,-0.85 71.00,-0.81 71.70,-0.78 74.75,-0.65 75.62,-0.64 83.73,-0.15 84.62,-0.10 84.75,-0.09 85.95,-0.02 88.27,0.07 89.23,0.10 89.93,0.13 92.75,0.32 93.62,0.35 97.45,0.54 98.38,0.58 100.59,0.69 102.08,0.73 103.05,0.76 104.60,0.83 106.69,0.97 107.55,1.00 111.11,1.20 112.00,1.24 115.16,1.42 115.71,1.45 116.69,1.50 119.21,1.67 120.38,1.75 121.28,1.78 124.76,1.92 125.77,1.95 129.37,2.15 129.56,2.16 130.25,2.19 133.63,2.37 134.06,2.38 135.03,2.42 138.34,2.59 139.27,2.63 143.00,2.80 143.96,2.83 145.20,2.91 147.44,3.08 148.32,3.12 148.95,3.14 151.94,3.27 152.92,3.32 153.03,3.33 156.63,3.54 157.50,3.58 157.62,3.59 159.50,3.71 161.13,3.81 162.01,3.84 162.12,3.85 163.45,3.93 165.68,4.05 166.65,4.09 172.60,4.38 173.57,4.42 177.32,4.66 177.47,4.67 178.07,4.70 178.22,4.71 181.44,4.94"/>
        <lane id="16_2" index="2" disallow="bus truck rail_fast" speed="36.11" length="132.45" width="3.21" customShape="1" shape="51.60,1.64 53.47,1.72 53.67,1.74 58.02,2.10 61.39,2.25 61.55,2.25 62.04,2.26 65.57,2.39 71.45,2.73 75.29,2.89 75.45,2.90 76.28,2.96 76.39,2.96 80.25,3.13 85.73,3.50 89.55,3.65 89.67,3.66 91.00,3.73 94.97,3.88 100.37,4.21 104.19,4.38 104.34,4.38 105.80,4.47 109.77,4.63 115.03,4.90 118.98,5.09 120.48,5.16 124.44,5.37 129.49,5.64 133.45,5.86 134.93,5.92 138.88,6.11 144.92,6.38 148.91,6.59 149.69,6.64 153.64,6.87 159.29,7.21 163.24,7.43 173.41,7.93 177.41,8.15 179.42,8.29 181.23,8.41"/>
        <lane id="16_3" index="3" disallow="bus rail_fast" speed="36.11" length="132.45" width="3.12" customShape="1" shape="51.41,4.99 54.67,5.18 58.62,5.36 61.42,5.55 65.22,5.71 65.36,5.72 69.31,5.98 73.27,6.14 76.09,6.31 79.96,6.45 80.06,6.46 84.12,6.68 88.08,6.85 90.74,7.03 94.55,7.21 94.72,7.22 98.81,7.52 102.77,7.68 105.61,7.85 109.45,8.00 113.78,8.20 117.74,8.32 120.25,8.45 124.25,8.67 128.50,8.90 132.47,9.12 134.83,9.23 138.79,9.43 143.06,9.62 147.01,9.84 149.53,9.95 153.47,10.13 158.00,10.36 161.95,10.57 172.59,11.20 176.56,11.41 179.16,11.57 181.05,11.67"/>
        <lane id="16_4" index="4" disallow="bus truck rail_fast" speed="36.11" length="132.45" width="3.26" customShape="1" shape="51.23,8.41 54.27,8.59 54.53,8.60 58.17,8.67 58.42,8.69 69.09,9.36 69.33,9.37 73.13,9.45 73.34,9.46 83.89,10.10 87.79,10.17 98.62,10.86 98.78,10.87 102.62,10.94 102.80,10.95 113.53,11.60 113.68,11.60 117.42,11.68 127.97,12.25 128.34,12.27 131.92,12.47 132.30,12.49 142.67,12.97 142.83,12.98 146.68,13.19 146.85,13.20 157.71,13.66 157.82,13.66 161.69,13.86 172.43,14.48 172.61,14.48 176.38,14.70 176.58,14.70 180.87,14.96"/>
        <lane id="16_5" index="5" disallow="bus truck rail_fast" speed="36.11" length="132.45" width="3.47" customShape="1" shape="51.04,11.83 54.06,12.04 54.37,12.06 54.54,12.06 58.11,12.14 58.58,12.16 69.19,12.80 69.52,12.82 69.66,12.82 73.22,12.89 73.71,12.91 83.67,13.62 83.98,13.63 84.15,13.64 87.72,13.71 88.17,13.73 98.66,14.24 99.01,14.26 99.11,14.26 102.67,14.33 103.16,14.35 113.31,15.03 113.63,15.04 113.80,15.05 117.35,15.12 117.81,15.14 127.78,15.66 128.29,15.70 131.73,15.88 132.24,15.90 142.54,16.45 143.06,16.48 146.50,16.66 146.94,16.68 157.57,17.13 158.06,17.15 161.50,17.34 162.01,17.37 172.43,17.93 172.94,17.95 176.38,18.14 176.90,18.17 180.67,18.38"/>
    </edge>
    <edge id="17" from="4" to="2" priority="1" spreadType="center" length="91.06">
        <lane id="17_0" index="0" disallow="rail_fast" speed="36.11" length="91.06" width="3.64" customShape="1" shape="-41.39,-13.41 -36.14,-12.68 -34.38,-12.47 -24.45,-11.32 -16.26,-10.52 -9.68,-9.95 0.24,-9.09 2.38,-8.92 13.47,-8.06 28.79,-6.84 29.20,-6.80 36.87,-6.30 41.45,-6.05 49.00,-5.67"/>
    </edge>
    <edge id="20" from="1" to="2" priority="1" spreadType="center" length="90.30">
        <lane id="20_0" index="0" disallow="bus truck rail_fast" speed="36.11" length="90.30" width="3.46" customShape="1" shape="-41.57,-4.53 -37.85,-4.48 -33.89,-4.50 -23.63,-4.30 -19.67,-4.32 -13.45,-4.21 -8.66,-4.08 -4.71,-4.00 5.86,-3.66 6.64,-3.66 9.86,-3.56 19.70,-3.22 20.80,-3.19 24.78,-3.12 28.88,-2.96 35.25,-2.60 39.20,-2.44 41.25,-2.32 47.62,-1.98"/>
        <lane id="20_1" index="1" disallow="bus truck rail_fast" speed="36.11" length="90.30" width="3.24" customShape="1" shape="-41.64,-1.04 -41.06,-1.02 -37.84,-1.04 -37.13,-1.05 -33.99,-1.04 -26.47,-0.88 -23.62,-0.87 -22.58,-0.89 -19.82,-0.86 -11.68,-0.64 -8.75,-0.58 -7.71,-0.55 -4.81,-0.48 2.81,-0.23 5.80,-0.15 6.75,-0.13 9.70,-0.04 17.94,0.27 20.73,0.35 21.86,0.38 24.62,0.46 32.36,0.83 35.11,0.93 36.27,0.97 38.96,1.05 47.05,1.49 47.43,1.50"/>
        <lane id="20_2" index="2" disallow="bus rail_fast" speed="36.11" length="90.30" width="3.19" customShape="1" shape="-41.70,2.30 -41.09,2.31 -37.17,2.31 -34.61,2.34 -30.65,2.34 -26.56,2.42 -22.66,2.45 -19.59,2.52 -15.64,2.56 -11.78,2.69 -7.83,2.79 -4.31,2.91 -0.35,3.02 2.69,3.10 6.63,3.21 10.30,3.34 14.25,3.46 17.81,3.60 21.74,3.72 25.18,3.86 29.13,3.99 32.12,4.14 36.03,4.31 39.69,4.53 43.64,4.67 46.88,4.83 47.25,4.84"/>
        <lane id="20_3" index="3" disallow="bus rail_fast" speed="36.11" length="90.30" width="3.20" customShape="1" shape="-41.77,5.61 -34.68,5.72 -34.45,5.72 -30.64,5.67 -30.36,5.67 -19.68,5.88 -15.78,5.89 -15.54,5.90 -4.74,6.25 -4.39,6.25 -0.81,6.33 -0.45,6.34 9.97,6.66 10.20,6.66 13.91,6.74 14.09,6.74 24.83,7.17 25.07,7.18 28.76,7.25 28.93,7.25 39.52,7.88 39.62,7.88 43.52,7.96 43.68,7.97 47.07,8.17"/>
        <lane id="20_4" index="4" disallow="rail_fast" speed="36.11" length="90.30" width="3.47" customShape="1" shape="-41.83,9.04 -34.39,9.19 -34.12,9.19 -30.38,9.13 -30.05,9.14 -19.59,9.31 -19.20,9.31 -15.63,9.39 -15.22,9.39 -4.87,9.70 -4.47,9.71 -0.89,9.78 -0.47,9.79 9.87,10.07 10.26,10.09 13.85,10.15 14.28,10.16 24.69,10.59 25.09,10.61 28.70,10.68 29.14,10.70 39.55,11.24 39.95,11.25 43.57,11.33 44.05,11.36 46.89,11.55"/>
    </edge>

    <junction id="1" type="dead_end" x="-41.70" y="2.28" incLanes="" intLanes="" shape="-41.87,10.78 -41.53,-6.25"/>
    <junction id="2" type="priority" x="48.76" y="4.89" incLanes="17_0 20_0 20_1 20_2 20_3 20_4" intLanes=":2_0_0 :2_1_0 :2_1_1 :2_1_2 :2_1_3 :2_1_4" shape="50.94,13.57 52.09,-7.31 49.09,-7.49 48.91,-3.85 47.71,-3.71 46.79,13.29">
        <request index="0" response="000000" foes="000000" cont="0"/>
        <request index="1" response="000000" foes="000000" cont="0"/>
        <request index="2" response="000000" foes="000000" cont="0"/>
        <request index="3" response="000000" foes="000000" cont="0"/>
        <request index="4" response="000000" foes="000000" cont="0"/>
        <request index="5" response="000000" foes="000000" cont="0"/>
    </junction>
    <junction id="3" type="dead_end" x="181.14" y="9.93" incLanes="16_0 16_1 16_2 16_3 16_4 16_5" intLanes="" shape="181.78,-0.62 180.52,20.11"/>
    <junction id="4" type="dead_end" x="-41.39" y="-13.41" incLanes="" intLanes="" shape="-41.65,-11.61 -41.14,-15.22"/>

    <connection from="17" to="16" fromLane="0" toLane="0" contPos="-4.00" via=":2_0_0" dir="s" state="M"/>
    <connection from="20" to="16" fromLane="0" toLane="1" contPos="-4.00" via=":2_1_0" dir="s" state="M"/>
    <connection from="20" to="16" fromLane="1" toLane="2" contPos="-4.00" via=":2_1_1" dir="s" state="M"/>
    <connection from="20" to="16" fromLane="2" toLane="3" contPos="-4.00" via=":2_1_2" dir="s" state="M"/>
    <connection from="20" to="16" fromLane="3" toLane="4" contPos="-4.00" via=":2_1_3" dir="s" state="M"/>
    <connection from="20" to="16" fromLane="4" toLane="5" contPos="-4.00" via=":2_1_4" dir="s" state="M"/>

    <connection from=":2_0" to="16" fromLane="0" toLane="0" dir="s" state="M"/>
    <connection from=":2_1" to="16" fromLane="0" toLane="1" dir="s" state="M"/>
    <connection from=":2_1" to="16" fromLane="1" toLane="2" dir="s" state="M"/>
    <connection from=":2_1" to="16" fromLane="2" toLane="3" dir="s" state="M"/>
    <connection from=":2_1" to="16" fromLane="3" toLane="4" dir="s" state="M"/>
    <connection from=":2_1" to="16" fromLane="4" toLane="5" dir="s" state="M"/>

</net>
