<routes>
	<vehicle depart="0.1" departLane="2" departPos="69.47043879197182" departSpeed="13.56" id="117" type="passenger">
		<route edges="20 16"/>
	</vehicle>
	<vehicle depart="0.1" departLane="3" departPos="68.20648836405105" departSpeed="13.64" id="120" type="passenger">
		<route edges="20 16"/>
	</vehicle>
	<vehicle depart="0.1" departLane="0" departPos="90.735478423807" departSpeed="12.06" id="122" type="passenger">
		<route edges="20 16"/>
	</vehicle>
	<vehicle depart="0.1" departLane="1" departPos="72.11320305166842" departSpeed="12.21" id="124" type="passenger">
		<route edges="20 16"/>
	</vehicle>
	<vehicle depart="0.1" departLane="2" departPos="62.50475713437841" departSpeed="13.55" id="125" type="passenger">
		<route edges="20 16"/>
	</vehicle>
	<vehicle depart="0.1" departLane="3" departPos="50.76032101457939" departSpeed="13.61" id="127" type="passenger">
		<route edges="20 16"/>
	</vehicle>
	<vehicle depart="0.1" departLane="0" departPos="90.735478423807" departSpeed="10.58" id="131" type="passenger">
		<route edges="20 16"/>
	</vehicle>
	<vehicle depart="0.1" departLane="3" departPos="42.716238151387266" departSpeed="13.61" id="132" type="passenger">
		<route edges="20 16"/>
	</vehicle>
	<vehicle depart="0.1" departLane="4" departPos="43.98552210544996" departSpeed="16.65" id="134" type="passenger">
		<route edges="20 16"/>
	</vehicle>
	<vehicle depart="0.1" departLane="1" departPos="55.481767694500746" departSpeed="12.21" id="135" type="passenger">
		<route edges="20 16"/>
	</vehicle>
	<vehicle depart="0.1" departLane="3" departPos="30.32654385610779" departSpeed="13.14" id="136" type="passenger">
		<route edges="20 16"/>
	</vehicle>
	<vehicle depart="0.1" departLane="0" departPos="37.305968797658764" departSpeed="12.12" id="139" type="passenger">
		<route edges="20 16"/>
	</vehicle>
	<vehicle depart="0.1" departLane="0" departPos="50.033727658035204" departSpeed="11.57" id="140" type="passenger">
		<route edges="20 20 16"/>
	</vehicle>
	<vehicle depart="0.1" departLane="2" departPos="41.977195307001" departSpeed="10.64" id="142" type="passenger">
		<route edges="20 16"/>
	</vehicle>
	<vehicle depart="0.1" departLane="1" departPos="27.925619096803914" departSpeed="12.18" id="144" type="passenger">
		<route edges="20 16"/>
	</vehicle>
</routes>
