<!-- generated on Tue Feb  9 22:13:50 2021 by Eclipse SUMO netconvert Version 1.8.0
<configuration xmlns:xsi="http://www.w3.org/2001/XMLSchema-instance" xsi:noNamespaceSchemaLocation="http://sumo.dlr.de/xsd/netconvertConfiguration.xsd">

    <input>
        <node-files value="./converted_scenarios/scenario-factory/ESP_SantBoideLlobregat-8_4_I-1-1/ESP_SantBoideLlobregat-8_4_I-1-1.nod.xml"/>
        <edge-files value="./converted_scenarios/scenario-factory/ESP_SantBoideLlobregat-8_4_I-1-1/ESP_SantBoideLlobregat-8_4_I-1-1.edg.xml"/>
        <connection-files value="./converted_scenarios/scenario-factory/ESP_SantBoideLlobregat-8_4_I-1-1/ESP_SantBoideLlobregat-8_4_I-1-1.con.xml"/>
        <tllogic-files value="./converted_scenarios/scenario-factory/ESP_SantBoideLlobregat-8_4_I-1-1/ESP_SantBoideLlobregat-8_4_I-1-1.tll.xml"/>
        <type-files value="/home/zen/commonroad-interactive-benchmarks/install/commonroad-map-tool/crmapconverter/sumo_map/templates/DEU.typ.xml"/>
    </input>

    <output>
        <output-file value="./converted_scenarios/scenario-factory/ESP_SantBoideLlobregat-8_4_I-1-1/ESP_SantBoideLlobregat-8_4_I-1-1.net.xml"/>
    </output>

    <processing>
        <geometry.remove.keep-edges.explicit value="true"/>
        <geometry.avoid-overlap value="true"/>
        <offset.disable-normalization value="true"/>
    </processing>

    <junctions>
        <no-turnarounds value="true"/>
        <junctions.internal-link-detail value="20"/>
    </junctions>

    <report>
        <aggregate-warnings value="5"/>
    </report>

    <random_number>
        <seed value="1234"/>
    </random_number>

</configuration>
--><net xmlns:xsi="http://www.w3.org/2001/XMLSchema-instance" version="1.6" junctionCornerDetail="5" junctionLinkDetail="20" limitTurnSpeed="5.50" xsi:noNamespaceSchemaLocation="http://sumo.dlr.de/xsd/net_file.xsd">

    <location netOffset="0.00,0.00" convBoundary="-989.67,-1067.89,-661.70,-807.83" origBoundary="-989.67,-1067.89,-661.70,-807.83" projParameter="!"/>

    <type id="highway.bridleway" priority="1" speed="2.78" allow="pedestrian" oneway="1" width="2.00"/>
    <type id="highway.bus_guideway" priority="1" speed="27.78" allow="bus" oneway="1"/>
    <type id="highway.cycleway" priority="1" speed="8.33" allow="bicycle" oneway="0" width="1.00"/>
    <type id="highway.footway" priority="1" speed="2.78" allow="pedestrian" oneway="1" width="2.00"/>
    <type id="highway.ford" priority="1" speed="2.78" allow="army" oneway="0"/>
    <type id="highway.living_street" priority="2" speed="2.78" disallow="tram rail_urban rail rail_electric rail_fast ship" oneway="0"/>
    <type id="highway.motorway" priority="14" speed="39.44" allow="private emergency authority army vip passenger hov taxi bus coach delivery truck trailer motorcycle evehicle custom1 custom2" oneway="1"/>
    <type id="highway.motorway_link" priority="9" speed="22.22" allow="private emergency authority army vip passenger hov taxi bus coach delivery truck trailer motorcycle evehicle custom1 custom2" oneway="1"/>
    <type id="highway.path" priority="1" speed="2.78" allow="pedestrian bicycle" oneway="0" width="2.00"/>
    <type id="highway.pedestrian" priority="1" speed="2.78" allow="pedestrian" oneway="1" width="2.00"/>
    <type id="highway.primary" priority="12" speed="27.78" disallow="pedestrian tram rail_urban rail rail_electric rail_fast ship" oneway="0"/>
    <type id="highway.primary_link" priority="7" speed="22.22" disallow="pedestrian tram rail_urban rail rail_electric rail_fast ship" oneway="0"/>
    <type id="highway.raceway" priority="15" speed="83.33" allow="vip" oneway="0"/>
    <type id="highway.residential" priority="3" speed="13.89" disallow="pedestrian tram rail_urban rail rail_electric rail_fast ship" oneway="0"/>
    <type id="highway.secondary" priority="11" speed="27.78" disallow="pedestrian tram rail_urban rail rail_electric rail_fast ship" oneway="0"/>
    <type id="highway.secondary_link" priority="6" speed="22.22" disallow="pedestrian tram rail_urban rail rail_electric rail_fast ship" oneway="0"/>
    <type id="highway.service" priority="1" speed="5.56" allow="pedestrian delivery bicycle" oneway="0"/>
    <type id="highway.stairs" priority="1" speed="1.39" allow="pedestrian" oneway="1" width="2.00"/>
    <type id="highway.step" priority="1" speed="1.39" allow="pedestrian" oneway="1" width="2.00"/>
    <type id="highway.steps" priority="1" speed="1.39" allow="pedestrian" oneway="1" width="2.00"/>
    <type id="highway.tertiary" priority="10" speed="22.22" disallow="pedestrian tram rail_urban rail rail_electric rail_fast ship" oneway="0"/>
    <type id="highway.tertiary_link" priority="5" speed="22.22" disallow="pedestrian tram rail_urban rail rail_electric rail_fast ship" oneway="0"/>
    <type id="highway.track" priority="1" speed="5.56" allow="pedestrian motorcycle moped bicycle" oneway="0"/>
    <type id="highway.trunk" priority="13" speed="27.78" disallow="pedestrian bicycle tram rail_urban rail rail_electric rail_fast ship" oneway="0"/>
    <type id="highway.trunk_link" priority="8" speed="22.22" disallow="pedestrian bicycle tram rail_urban rail rail_electric rail_fast ship" oneway="0"/>
    <type id="highway.unclassified" priority="4" speed="13.89" disallow="pedestrian tram rail_urban rail rail_electric rail_fast ship" oneway="0"/>
    <type id="highway.unsurfaced" priority="1" speed="8.33" disallow="tram rail_urban rail rail_electric rail_fast ship" oneway="0"/>
    <type id="railway.highspeed" priority="21" speed="69.44" allow="rail_fast" oneway="1"/>
    <type id="railway.light_rail" priority="19" speed="27.78" allow="rail_urban" oneway="1"/>
    <type id="railway.preserved" priority="16" speed="27.78" allow="rail" oneway="1"/>
    <type id="railway.rail" priority="20" speed="44.44" allow="rail" oneway="1"/>
    <type id="railway.subway" priority="18" speed="27.78" allow="rail_urban" oneway="1"/>
    <type id="railway.tram" priority="17" speed="13.89" allow="tram" oneway="1"/>

    <edge id=":35_0" function="internal">
        <lane id=":35_0_0" index="0" disallow="pedestrian tram rail_urban rail rail_electric rail_fast ship" speed="36.11" length="6.78" width="3.50" shape="-820.12,-860.58 -824.21,-855.17"/>
    </edge>
    <edge id=":61_0" function="internal">
        <lane id=":61_0_0" index="0" disallow="pedestrian tram rail_urban rail rail_electric rail_fast ship" speed="4.04" length="2.74" width="3.50" shape="-767.60,-969.14 -766.18,-969.18 -764.88,-969.41"/>
    </edge>
    <edge id=":61_1" function="internal">
        <lane id=":61_1_0" index="0" disallow="pedestrian tram rail_urban rail rail_electric rail_fast ship" speed="36.11" length="10.54" width="3.50" shape="-769.69,-966.55 -765.75,-963.34 -761.51,-959.90"/>
    </edge>
    <edge id=":61_2" function="internal">
        <lane id=":61_2_0" index="0" disallow="pedestrian tram rail_urban rail rail_electric rail_fast ship" speed="36.11" length="10.54" width="3.50" shape="-768.76,-958.99 -762.27,-967.30"/>
    </edge>
    <edge id=":61_3" function="internal">
        <lane id=":61_3_0" index="0" disallow="pedestrian tram rail_urban rail rail_electric rail_fast ship" speed="3.88" length="2.49" width="3.50" shape="-766.13,-956.97 -764.54,-957.24 -763.66,-957.26"/>
    </edge>
    <edge id=":62_0" function="internal">
        <lane id=":62_0_0" index="0" disallow="pedestrian tram rail_urban rail rail_electric rail_fast ship" speed="8.08" length="14.47" width="3.50" shape="-845.69,-932.21 -846.03,-932.25 -847.79,-932.17 -849.52,-931.82 -851.18,-931.20 -853.23,-930.05 -855.09,-928.60 -857.14,-926.50 -857.90,-925.59"/>
    </edge>
    <edge id=":62_1" function="internal">
        <lane id=":62_1_0" index="0" disallow="pedestrian tram rail_urban rail rail_electric rail_fast ship" speed="9.59" length="20.34" width="3.50" shape="-842.64,-936.01 -842.88,-936.46 -843.71,-938.64 -844.19,-940.92 -844.29,-943.25 -844.01,-945.57 -843.41,-947.82 -842.27,-950.51 -840.80,-953.03 -839.45,-954.93"/>
    </edge>
    <edge id=":62_2" function="internal">
        <lane id=":62_2_0" index="0" disallow="pedestrian tram rail_urban rail rail_electric rail_fast ship" speed="36.11" length="34.53" width="3.50" shape="-836.66,-952.81 -841.77,-946.17 -857.90,-925.59"/>
    </edge>
    <edge id=":62_3" function="internal">
        <lane id=":62_3_0" index="0" disallow="pedestrian tram rail_urban rail rail_electric rail_fast ship" speed="36.11" length="34.45" width="3.50" shape="-860.64,-927.77 -844.53,-948.31 -839.45,-954.93"/>
    </edge>
    <edge id=":63_0" function="internal">
        <lane id=":63_0_0" index="0" disallow="pedestrian tram rail_urban rail rail_electric rail_fast ship" speed="8.78" length="16.46" width="3.50" shape="-794.26,-1009.10 -796.16,-1006.17 -797.46,-1003.56 -798.24,-1001.37 -798.74,-999.10 -798.88,-996.78 -798.72,-995.04 -798.42,-993.74"/>
    </edge>
    <edge id=":63_1" function="internal">
        <lane id=":63_1_0" index="0" disallow="pedestrian tram rail_urban rail rail_electric rail_fast ship" speed="36.11" length="36.12" width="3.50" shape="-794.26,-1009.10 -802.18,-998.26 -815.81,-980.11"/>
    </edge>
    <edge id=":63_2" function="internal">
        <lane id=":63_2_0" index="0" disallow="pedestrian tram rail_urban rail rail_electric rail_fast ship" speed="36.11" length="36.02" width="3.50" shape="-818.59,-982.24 -804.99,-1000.34 -797.10,-1011.14"/>
    </edge>
    <edge id=":63_3" function="internal">
        <lane id=":63_3_0" index="0" disallow="pedestrian tram rail_urban rail rail_electric rail_fast ship" speed="9.28" length="19.79" width="3.50" shape="-818.59,-982.24 -816.72,-984.47 -814.61,-986.49 -812.74,-987.89 -810.70,-989.03 -808.51,-989.82 -806.79,-990.16 -805.04,-990.27 -802.72,-990.06 -801.63,-989.79"/>
    </edge>
    <edge id=":64_0" function="internal">
        <lane id=":64_0_0" index="0" disallow="pedestrian tram rail_urban rail rail_electric rail_fast ship" speed="7.92" length="14.11" width="3.50" shape="-858.05,-925.40 -859.74,-923.00 -860.85,-920.94 -861.66,-918.74 -862.01,-917.02 -862.10,-915.26 -861.90,-913.51 -861.57,-912.34"/>
    </edge>
    <edge id=":64_1" function="internal">
        <lane id=":64_1_0" index="0" disallow="pedestrian tram rail_urban rail rail_electric rail_fast ship" speed="36.11" length="33.70" width="3.50" shape="-858.05,-925.40 -868.54,-912.21 -879.03,-899.03"/>
    </edge>
    <edge id=":64_2" function="internal">
        <lane id=":64_2_0" index="0" disallow="pedestrian tram rail_urban rail rail_electric rail_fast ship" speed="36.11" length="33.69" width="3.50" shape="-881.77,-901.20 -871.28,-914.39 -860.80,-927.57"/>
    </edge>
    <edge id=":64_3" function="internal">
        <lane id=":64_3_0" index="0" disallow="pedestrian tram rail_urban rail rail_electric rail_fast ship" speed="9.50" length="19.88" width="3.50" shape="-881.77,-901.20 -879.86,-903.38 -877.72,-905.33 -875.82,-906.66 -873.77,-907.72 -871.58,-908.46 -869.30,-908.83 -866.99,-908.83 -864.70,-908.49 -864.50,-908.43"/>
    </edge>
    <edge id=":65_0" function="internal">
        <lane id=":65_0_0" index="0" disallow="pedestrian tram rail_urban rail rail_electric rail_fast ship" speed="5.28" length="5.24" width="3.50" shape="-716.53,-1018.01 -716.77,-1018.22 -716.99,-1018.44 -717.19,-1018.66 -717.35,-1018.88 -717.50,-1019.11 -717.62,-1019.34 -717.72,-1019.57 -717.79,-1019.81 -717.84,-1020.05 -717.87,-1020.29 -717.87,-1020.54 -717.85,-1020.79 -717.80,-1021.04 -717.73,-1021.29 -717.64,-1021.55 -717.52,-1021.81 -717.38,-1022.08 -717.21,-1022.34 -717.02,-1022.61"/>
    </edge>
    <edge id=":65_1" function="internal">
        <lane id=":65_1_0" index="0" disallow="pedestrian tram rail_urban rail rail_electric rail_fast ship" speed="36.11" length="6.49" width="3.50" shape="-721.50,-1017.89 -717.42,-1022.94"/>
    </edge>
    <edge id=":67_0" function="internal">
        <lane id=":67_0_0" index="0" disallow="pedestrian tram rail_urban rail rail_electric rail_fast ship" speed="4.63" length="3.96" width="3.50" shape="-727.83,-936.34 -727.61,-936.31 -725.86,-936.35 -724.13,-936.64 -723.91,-936.71"/>
    </edge>
    <edge id=":67_1" function="internal">
        <lane id=":67_1_0" index="0" disallow="pedestrian tram rail_urban rail rail_electric rail_fast ship" speed="36.11" length="11.54" width="3.50" shape="-729.71,-934.04 -725.47,-930.60 -720.75,-926.77"/>
    </edge>
    <edge id=":67_2" function="internal">
        <lane id=":67_2_0" index="0" disallow="pedestrian tram rail_urban rail rail_electric rail_fast ship" speed="36.11" length="11.53" width="3.50" shape="-729.04,-926.03 -721.65,-934.88"/>
    </edge>
    <edge id=":67_3" function="internal">
        <lane id=":67_3_0" index="0" disallow="pedestrian tram rail_urban rail rail_electric rail_fast ship" speed="4.79" length="4.22" width="3.50" shape="-726.76,-924.09 -726.39,-924.20 -724.65,-924.50 -722.89,-924.55 -722.58,-924.51"/>
    </edge>
    <edge id=":68_0" function="internal">
        <lane id=":68_0_0" index="0" disallow="pedestrian tram rail_urban rail rail_electric rail_fast ship" speed="36.11" length="8.95" width="3.50" shape="-806.68,-904.51 -809.18,-906.52 -813.66,-910.11"/>
    </edge>
    <edge id=":68_1" function="internal">
        <lane id=":68_1_0" index="0" disallow="pedestrian tram rail_urban rail rail_electric rail_fast ship" speed="7.63" length="12.49" width="3.50" shape="-796.06,-895.97 -798.25,-897.92 -800.21,-900.10 -801.53,-902.03 -802.55,-904.14 -803.07,-905.82 -803.10,-906.00"/>
    </edge>
    <edge id=":69_0" function="internal">
        <lane id=":69_0_0" index="0" disallow="pedestrian tram rail_urban rail rail_electric rail_fast ship" speed="36.11" length="8.77" width="3.50" shape="-831.71,-886.35 -831.44,-886.15 -824.69,-881.10"/>
    </edge>
    <edge id=":69_1" function="internal">
        <lane id=":69_1_0" index="0" disallow="pedestrian tram rail_urban rail rail_electric rail_fast ship" speed="10.23" length="25.15" width="3.50" shape="-834.44,-882.71 -834.40,-881.11 -834.63,-879.34 -835.12,-877.62 -836.08,-875.44 -837.32,-873.40 -839.14,-871.05 -831.07,-880.25"/>
    </edge>
    <edge id=":70_0" function="internal">
        <lane id=":70_0_0" index="0" disallow="pedestrian tram rail_urban rail rail_electric rail_fast ship" speed="36.11" length="44.01" width="3.50" shape="-886.03,-890.22 -899.73,-873.00 -913.43,-855.78"/>
    </edge>
    <edge id=":70_1" function="internal">
        <lane id=":70_1_0" index="0" disallow="pedestrian tram rail_urban rail rail_electric rail_fast ship" speed="17.59" length="41.68" width="3.50" shape="-886.03,-890.22 -886.80,-889.31 -888.43,-887.66 -890.23,-886.18 -892.17,-884.88 -895.22,-883.29 -898.42,-882.07 -901.69,-881.19 -905.01,-880.57 -909.43,-880.11 -913.86,-879.97 -919.36,-880.16 -924.83,-880.66"/>
    </edge>
    <edge id=":70_2" function="internal">
        <lane id=":70_2_0" index="0" disallow="pedestrian tram rail_urban rail rail_electric rail_fast ship" speed="16.84" length="38.14" width="3.50" shape="-924.43,-884.13 -919.28,-883.66 -914.13,-883.47 -910.01,-883.57 -905.91,-883.97 -902.87,-884.50 -899.87,-885.28 -896.97,-886.34 -894.21,-887.73 -892.49,-888.86 -890.89,-890.15 -889.43,-891.62 -888.77,-892.40"/>
    </edge>
    <edge id=":70_3" function="internal">
        <lane id=":70_3_0" index="0" disallow="pedestrian tram rail_urban rail rail_electric rail_fast ship" speed="11.43" length="42.67" width="3.50" shape="-924.43,-884.13 -919.55,-883.37 -916.36,-882.58 -913.27,-881.49 -911.79,-880.79 -910.37,-879.96 -909.06,-878.98 -907.89,-877.83 -906.93,-876.50 -906.24,-875.02 -905.84,-873.43 -905.73,-871.79 -905.86,-870.16 -906.19,-868.55 -906.68,-866.98 -907.29,-865.46 -908.77,-862.53 -910.51,-859.75 -913.43,-855.78"/>
    </edge>
    <edge id=":70_4" function="internal">
        <lane id=":70_4_0" index="0" disallow="pedestrian tram rail_urban rail rail_electric rail_fast ship" speed="10.35" length="34.68" width="3.50" shape="-916.18,-857.94 -913.62,-861.42 -912.13,-863.80 -910.86,-866.29 -910.37,-867.53 -909.97,-868.79 -909.71,-870.05 -909.60,-871.28 -909.67,-872.47 -909.94,-873.59 -910.42,-874.63 -911.10,-875.58 -911.96,-876.43 -912.96,-877.18 -914.08,-877.84 -915.26,-878.40 -917.88,-879.32 -920.59,-879.99 -924.83,-880.66"/>
    </edge>
    <edge id=":70_5" function="internal">
        <lane id=":70_5_0" index="0" disallow="pedestrian tram rail_urban rail rail_electric rail_fast ship" speed="36.11" length="44.03" width="3.50" shape="-916.18,-857.94 -902.47,-875.18 -888.77,-892.40"/>
    </edge>
    <edge id=":71_0" function="internal">
        <lane id=":71_0_0" index="0" disallow="pedestrian tram rail_urban rail rail_electric rail_fast ship" speed="36.11" length="24.35" width="3.49" shape="-853.99,-817.58 -838.88,-836.67"/>
    </edge>
    <edge id=":71_1" function="internal">
        <lane id=":71_1_0" index="0" disallow="pedestrian tram rail_urban rail rail_electric rail_fast ship" speed="36.11" length="3.00" width="3.49" shape="-861.83,-837.95 -861.22,-835.01"/>
    </edge>
    <edge id=":73_0" function="internal">
        <lane id=":73_0_0" index="0" disallow="pedestrian tram rail_urban rail rail_electric rail_fast ship" speed="4.04" length="2.71" width="3.50" shape="-685.41,-984.96 -685.44,-986.27 -685.67,-987.65"/>
    </edge>
    <edge id=":73_1" function="internal">
        <lane id=":73_1_0" index="0" disallow="pedestrian tram rail_urban rail rail_electric rail_fast ship" speed="36.11" length="10.41" width="3.50" shape="-682.77,-982.83 -676.20,-990.91"/>
    </edge>
    <edge id=":75_0" function="internal">
        <lane id=":75_0_0" index="0" disallow="pedestrian tram rail_urban rail rail_electric rail_fast ship" speed="36.11" length="10.61" width="3.50" shape="-767.12,-872.76 -770.92,-875.80 -775.40,-879.39"/>
    </edge>
    <edge id=":75_1" function="internal">
        <lane id=":75_1_0" index="0" disallow="pedestrian tram rail_urban rail rail_electric rail_fast ship" speed="3.90" length="2.52" width="3.50" shape="-764.97,-875.45 -765.19,-876.73 -765.22,-877.95"/>
    </edge>
    <edge id=":75_2" function="internal">
        <lane id=":75_2_0" index="0" disallow="pedestrian tram rail_urban rail rail_electric rail_fast ship" speed="4.17" length="2.97" width="3.50" shape="-777.12,-873.92 -777.10,-874.27 -777.24,-876.00 -777.44,-876.86"/>
    </edge>
    <edge id=":75_3" function="internal">
        <lane id=":75_3_0" index="0" disallow="pedestrian tram rail_urban rail rail_electric rail_fast ship" speed="36.11" length="10.66" width="3.50" shape="-774.50,-871.85 -770.12,-877.30 -767.77,-880.11"/>
    </edge>

    <edge id="125120" from="63" to="62" priority="3" type="highway.residential" spreadType="center" length="34.36" shape="-802.11,-992.40 -844.62,-936.68">
        <lane id="125120_0" index="0" disallow="pedestrian tram rail_urban rail rail_electric rail_fast ship" speed="36.11" length="34.36" width="3.50" customShape="1" shape="-815.81,-980.11 -826.24,-966.46 -836.67,-952.81"/>
    </edge>
    <edge id="125121" from="62" to="63" priority="3" type="highway.residential" spreadType="center" length="34.37" shape="-847.41,-938.80 -804.90,-994.52">
        <lane id="125121_0" index="0" disallow="pedestrian tram rail_urban rail rail_electric rail_fast ship" speed="36.11" length="34.37" width="3.50" customShape="1" shape="-839.45,-954.93 -829.02,-968.59 -818.59,-982.24"/>
    </edge>
    <edge id="125123" from="42" to="63" priority="3" type="highway.residential" spreadType="center" length="70.01" shape="-753.28,-1065.85 -802.09,-992.43">
        <lane id="125123_0" index="0" disallow="pedestrian tram rail_urban rail rail_electric rail_fast ship" speed="36.11" length="70.01" width="3.50" customShape="1" shape="-753.28,-1065.85 -757.54,-1059.95 -794.26,-1009.09"/>
    </edge>
    <edge id="125124" from="63" to="22" priority="3" type="highway.residential" spreadType="center" length="70.00" shape="-805.01,-994.37 -756.12,-1067.89">
        <lane id="125124_0" index="0" disallow="pedestrian tram rail_urban rail rail_electric rail_fast ship" speed="36.11" length="70.00" width="3.50" customShape="1" shape="-797.10,-1011.14 -760.37,-1062.00 -756.12,-1067.89"/>
    </edge>
    <edge id="125393" from="44" to="75" priority="3" type="highway.residential" spreadType="center" length="81.72">
        <lane id="125393_0" index="0" disallow="pedestrian tram rail_urban rail rail_electric rail_fast ship" speed="36.11" length="81.72" width="3.50" customShape="1" shape="-825.29,-807.83 -824.95,-808.26 -774.57,-871.90"/>
    </edge>
    <edge id="125395" from="75" to="67" priority="3" type="highway.residential" spreadType="center" length="60.06">
        <lane id="125395_0" index="0" disallow="pedestrian tram rail_urban rail rail_electric rail_fast ship" speed="36.11" length="60.06" width="3.50" customShape="1" shape="-767.84,-880.18 -748.37,-903.11 -728.97,-925.97"/>
    </edge>
    <edge id="125397" from="67" to="73" priority="3" type="highway.residential" spreadType="center" length="61.73">
        <lane id="125397_0" index="0" disallow="pedestrian tram rail_urban rail rail_electric rail_fast ship" speed="36.11" length="61.73" width="3.50" customShape="1" shape="-721.61,-934.85 -702.49,-958.47 -682.77,-982.83"/>
    </edge>
    <edge id="125823" from="69" to="71" priority="3" type="highway.residential" spreadType="center" length="52.92">
        <lane id="125823_0" index="0" disallow="pedestrian tram rail_urban rail rail_electric rail_fast ship" speed="36.11" length="52.92" width="3.50" customShape="1" shape="-831.07,-880.25 -847.93,-861.02 -852.70,-855.06 -856.25,-850.08 -859.21,-845.33 -861.39,-841.30 -861.82,-839.84 -861.90,-838.32 -861.83,-837.95"/>
    </edge>
    <edge id="125909" from="35" to="71" priority="3" type="highway.residential" spreadType="center" length="47.96">
        <lane id="125909_0" index="0" disallow="pedestrian tram rail_urban rail rail_electric rail_fast ship" speed="36.11" length="47.96" width="3.50" customShape="1" shape="-824.21,-855.17 -829.97,-847.89 -853.99,-817.58"/>
    </edge>
    <edge id="126087" from="64" to="69" priority="3" type="highway.residential" spreadType="center" length="39.48">
        <lane id="126087_0" index="0" disallow="pedestrian tram rail_urban rail rail_electric rail_fast ship" speed="36.11" length="39.48" width="3.50" customShape="1" shape="-863.31,-910.02 -848.39,-898.85 -831.71,-886.36"/>
    </edge>
    <edge id="126123" from="68" to="61" priority="3" type="highway.residential" spreadType="center" length="62.94">
        <lane id="126123_0" index="0" disallow="pedestrian tram rail_urban rail rail_electric rail_fast ship" speed="36.11" length="62.94" width="3.50" customShape="1" shape="-807.18,-909.13 -787.50,-934.76 -768.84,-959.05"/>
    </edge>
    <edge id="126125" from="61" to="65" priority="3" type="highway.residential" spreadType="center" length="64.98">
        <lane id="126125_0" index="0" disallow="pedestrian tram rail_urban rail rail_electric rail_fast ship" speed="36.11" length="64.98" width="3.50" customShape="1" shape="-762.31,-967.33 -742.69,-991.64 -721.50,-1017.89"/>
    </edge>
    <edge id="126142" from="63" to="61" priority="3" type="highway.residential" spreadType="center" length="39.44">
        <lane id="126142_0" index="0" disallow="pedestrian tram rail_urban rail rail_electric rail_fast ship" speed="36.11" length="39.44" width="3.50" customShape="1" shape="-800.33,-991.39 -785.38,-979.28 -769.69,-966.55"/>
    </edge>
    <edge id="126144" from="61" to="67" priority="3" type="highway.residential" spreadType="center" length="40.98">
        <lane id="126144_0" index="0" disallow="pedestrian tram rail_urban rail rail_electric rail_fast ship" speed="36.11" length="40.98" width="3.50" customShape="1" shape="-761.50,-959.91 -745.63,-946.99 -729.72,-934.03"/>
    </edge>
    <edge id="126146" from="67" to="40" priority="3" type="highway.residential" spreadType="center" length="76.00">
        <lane id="126146_0" index="0" disallow="pedestrian tram rail_urban rail rail_electric rail_fast ship" speed="36.11" length="76.00" width="3.50" customShape="1" shape="-720.76,-926.76 -687.01,-899.42 -661.70,-878.92"/>
    </edge>
    <edge id="126191" from="73" to="65" priority="3" type="highway.residential" spreadType="center" length="43.16">
        <lane id="126191_0" index="0" disallow="pedestrian tram rail_urban rail rail_electric rail_fast ship" speed="36.11" length="43.16" width="3.50" customShape="1" shape="-683.51,-990.21 -699.44,-1003.62 -716.53,-1018.01"/>
    </edge>
    <edge id="126219" from="49" to="75" priority="3" type="highway.residential" spreadType="center" length="52.17">
        <lane id="126219_0" index="0" disallow="pedestrian tram rail_urban rail rail_electric rail_fast ship" speed="36.11" length="52.17" width="3.50" customShape="1" shape="-726.39,-840.17 -742.05,-852.69 -767.13,-872.75"/>
    </edge>
    <edge id="126221" from="75" to="68" priority="3" type="highway.residential" spreadType="center" length="40.11">
        <lane id="126221_0" index="0" disallow="pedestrian tram rail_urban rail rail_electric rail_fast ship" speed="36.11" length="40.11" width="3.50" customShape="1" shape="-775.42,-879.37 -790.09,-891.17 -806.68,-904.51"/>
    </edge>
    <edge id="126223" from="68" to="62" priority="3" type="highway.residential" spreadType="center" length="38.81">
        <lane id="126223_0" index="0" disallow="pedestrian tram rail_urban rail rail_electric rail_fast ship" speed="36.11" length="38.81" width="3.50" customShape="1" shape="-813.66,-910.12 -828.87,-922.33 -843.92,-934.42"/>
    </edge>
    <edge id="126362" from="58" to="70" priority="3" type="highway.residential" spreadType="center" length="65.29" shape="-989.26,-891.66 -908.63,-878.58">
        <lane id="126362_0" index="0" disallow="pedestrian tram rail_urban rail rail_electric rail_fast ship" speed="36.11" length="65.29" width="3.50" customShape="1" shape="-989.26,-891.66 -956.84,-887.89 -924.41,-884.13"/>
    </edge>
    <edge id="126363" from="70" to="53" priority="3" type="highway.residential" spreadType="center" length="65.27" shape="-909.19,-875.12 -989.67,-888.18">
        <lane id="126363_0" index="0" disallow="pedestrian tram rail_urban rail rail_electric rail_fast ship" speed="36.11" length="65.27" width="3.50" customShape="1" shape="-924.83,-880.66 -957.24,-884.42 -989.67,-888.18"/>
    </edge>
    <edge id="126495" from="70" to="52" priority="3" type="highway.residential" spreadType="center" length="37.76" shape="-907.41,-876.01 -936.94,-826.23">
        <lane id="126495_0" index="0" disallow="pedestrian tram rail_urban rail rail_electric rail_fast ship" speed="36.11" length="37.76" width="3.50" customShape="1" shape="-913.43,-855.78 -925.18,-841.01 -936.94,-826.23"/>
    </edge>
    <edge id="126496" from="59" to="70" priority="3" type="highway.residential" spreadType="center" length="37.76" shape="-939.67,-828.41 -910.42,-877.79">
        <lane id="126496_0" index="0" disallow="pedestrian tram rail_urban rail rail_electric rail_fast ship" speed="36.11" length="37.76" width="3.50" customShape="1" shape="-939.67,-828.41 -927.92,-843.19 -916.17,-857.96"/>
    </edge>
    <edge id="126498" from="64" to="70" priority="3" type="highway.residential" spreadType="center" length="11.27" shape="-865.70,-909.96 -907.88,-875.47">
        <lane id="126498_0" index="0" disallow="pedestrian tram rail_urban rail rail_electric rail_fast ship" speed="36.11" length="11.27" width="3.50" customShape="1" shape="-879.03,-899.03 -882.53,-894.63 -886.04,-890.21"/>
    </edge>
    <edge id="126499" from="70" to="64" priority="3" type="highway.residential" spreadType="center" length="11.26" shape="-910.09,-878.17 -867.92,-912.67">
        <lane id="126499_0" index="0" disallow="pedestrian tram rail_urban rail rail_electric rail_fast ship" speed="36.11" length="11.26" width="3.50" customShape="1" shape="-888.77,-892.40 -885.27,-896.81 -881.76,-901.21"/>
    </edge>
    <edge id="126501" from="62" to="64" priority="3" type="highway.residential" spreadType="center" length="0.25" shape="-844.64,-936.66 -865.49,-910.16">
        <lane id="126501_0" index="0" disallow="pedestrian tram rail_urban rail rail_electric rail_fast ship" speed="36.11" length="0.25" width="3.50" customShape="1" shape="-857.90,-925.59 -857.98,-925.49 -858.05,-925.39"/>
    </edge>
    <edge id="126502" from="64" to="62" priority="3" type="highway.residential" spreadType="center" length="0.26" shape="-868.24,-912.32 -847.39,-938.82">
        <lane id="126502_0" index="0" disallow="pedestrian tram rail_urban rail rail_electric rail_fast ship" speed="36.11" length="0.26" width="3.50" customShape="1" shape="-860.80,-927.57 -860.71,-927.67 -860.63,-927.77"/>
    </edge>
    <edge id="130826" from="69" to="35" priority="3" type="highway.residential" spreadType="center" length="24.91">
        <lane id="130826_0" index="0" disallow="pedestrian tram rail_urban rail rail_electric rail_fast ship" speed="36.11" length="24.91" width="3.50" customShape="1" shape="-824.69,-881.10 -820.40,-877.88 -820.30,-877.81 -818.98,-876.66 -817.84,-875.32 -816.99,-873.79 -816.47,-872.12 -816.31,-870.37 -816.47,-868.62 -817.06,-866.36 -817.96,-864.20 -819.39,-861.64 -820.12,-860.58"/>
    </edge>
    <edge id="131052" from="71" to="72" priority="3" type="highway.residential" spreadType="center" length="23.79">
        <lane id="131052_0" index="0" disallow="pedestrian tram rail_urban rail rail_electric rail_fast ship" speed="36.11" length="23.79" width="3.49" customShape="1" shape="-861.22,-835.01 -859.58,-828.30 -858.43,-822.21 -857.95,-818.11 -857.89,-815.53 -858.12,-813.48 -858.42,-812.49 -858.86,-811.73"/>
    </edge>
    <edge id="131057" from="73" to="74" priority="3" type="highway.residential" spreadType="center" length="11.74">