<routes>
	<vehicle depart="0.1" departLane="0" departPos="39.08342367638416" departSpeed="2.2353631" id="37" type="bicycle">
		<route edges="126362 126499"/>
	</vehicle>
	<vehicle depart="0.1" departLane="0" departPos="61.80589689010799" departSpeed="3.4832242" id="31" type="passenger">
		<route edges="126362 126499"/>
	</vehicle>
	<vehicle depart="0.1" departLane="0" departPos="11.25971467178584" departSpeed="0.39700403" id="34" type="passenger">
		<route edges=":64_3 126087"/>
	</vehicle>
	<vehicle depart="0.1" departLane="0" departPos="49.11204807761405" departSpeed="3.8659169" id="36" type="passenger">
		<route edges="126362 126499"/>
	</vehicle>
	<vehicle depart="0.1" departLane="0" departPos="37.9763984885111" departSpeed="3.0090512" id="311" type="passenger">
		<route edges="126362 126499"/>
	</vehicle>
	<vehicle depart="0.1" departLane="0" departPos="5.316267519141964" departSpeed="4.0280466" id="324" type="passenger">
		<route edges="126498 126495"/>
	</vehicle>
	<vehicle depart="0.1" departLane="0" departPos="2.5" departSpeed="0.5828816" id="350" type="passenger">
		<route edges=":70_5 126499"/>
	</vehicle>
	<vehicle depart="0.1" departLane="0" departPos="29.324484166014084" departSpeed="0.79320182" id="355" type="passenger">
		<route edges="126496 126363"/>
	</vehicle>
	<vehicle depart="0.1" departLane="0" departPos="17.165753864995736" departSpeed="3.4459964" id="30" type="truck">
		<route edges=":70_1 126363"/>
	</vehicle>
	<vehicle depart="0.1" departLane="0" departPos="26.781355860679696" departSpeed="0.14884197" id="328" type="truck">
		<route edges=":64_3 126087"/>
	</vehicle>
</routes>
