<routes>
	<vehicle depart="0.1" departLane="1" departPos="20.44365840362634" departSpeed="2.0236577" id="321" type="passenger">
		<route edges="32138 31323"/>
	</vehicle>
	<vehicle depart="0.1" departLane="0" departPos="12.900618950968076" departSpeed="7.7418141" id="322" type="passenger">
		<route edges="31323 31147"/>
	</vehicle>
	<vehicle depart="0.1" departLane="1" departPos="6.595009790617068" departSpeed="1.516571" id="324" type="passenger">
		<route edges="32138 31651"/>
	</vehicle>
	<vehicle depart="0.1" departLane="1" departPos="13.8498732314145" departSpeed="0.0" id="330" type="passenger">
		<route edges="31317 31651"/>
	</vehicle>
	<vehicle depart="0.1" departLane="0" departPos="14.335842485739477" departSpeed="10.366719" id="336" type="passenger">
		<route edges=":42_5 31323 31147"/>
	</vehicle>
	<vehicle depart="0.1" departLane="1" departPos="5.253583082916411" departSpeed="1.0418012" id="339" type="passenger">
		<route edges="31317 31651"/>
	</vehicle>
	<vehicle depart="0.1" departLane="1" departPos="32.786935736044825" departSpeed="2.6099744" id="341" type="passenger">
		<route edges=":38_1 31317"/>
	</vehicle>
	<vehicle depart="0.1" departLane="1" departPos="15.843953571238618" departSpeed="6.8264983" id="347" type="passenger">
		<route edges=":38_1 31317"/>
	</vehicle>
	<vehicle depart="0.1" departLane="0" departPos="26.591353824584093" departSpeed="1.5548613" id="30" type="truck">
		<route edges=":38_1 31317"/>
	</vehicle>
</routes>
