<!-- generated on Tue Feb  9 22:04:41 2021 by Eclipse SUMO netconvert Version 1.8.0
<configuration xmlns:xsi="http://www.w3.org/2001/XMLSchema-instance" xsi:noNamespaceSchemaLocation="http://sumo.dlr.de/xsd/netconvertConfiguration.xsd">

    <input>
        <node-files value="./converted_scenarios/scenario-factory/DEU_Ibbenbueren-3_2_I-1-1/DEU_Ibbenbueren-3_2_I-1-1.nod.xml"/>
        <edge-files value="./converted_scenarios/scenario-factory/DEU_Ibbenbueren-3_2_I-1-1/DEU_Ibbenbueren-3_2_I-1-1.edg.xml"/>
        <connection-files value="./converted_scenarios/scenario-factory/DEU_Ibbenbueren-3_2_I-1-1/DEU_Ibbenbueren-3_2_I-1-1.con.xml"/>
        <tllogic-files value="./converted_scenarios/scenario-factory/DEU_Ibbenbueren-3_2_I-1-1/DEU_Ibbenbueren-3_2_I-1-1.tll.xml"/>
        <type-files value="/home/zen/commonroad-interactive-benchmarks/install/commonroad-map-tool/crmapconverter/sumo_map/templates/DEU.typ.xml"/>
    </input>

    <output>
        <output-file value="./converted_scenarios/scenario-factory/DEU_Ibbenbueren-3_2_I-1-1/DEU_Ibbenbueren-3_2_I-1-1.net.xml"/>
    </output>

    <processing>
        <geometry.remove.keep-edges.explicit value="true"/>
        <geometry.avoid-overlap value="true"/>
        <offset.disable-normalization value="true"/>
    </processing>

    <junctions>
        <no-turnarounds value="true"/>
        <junctions.internal-link-detail value="20"/>
    </junctions>

    <report>
        <aggregate-warnings value="5"/>
    </report>

    <random_number>
        <seed value="1234"/>
    </random_number>

</configuration>
--><net xmlns:xsi="http://www.w3.org/2001/XMLSchema-instance" version="1.6" junctionCornerDetail="5" junctionLinkDetail="20" limitTurnSpeed="5.50" xsi:noNamespaceSchemaLocation="http://sumo.dlr.de/xsd/net_file.xsd">

    <location netOffset="0.00,0.00" convBoundary="-709.27,16.80,-611.23,143.29" origBoundary="-710.84,16.50,-609.79,143.60" projParameter="!"/>

    <type id="highway.bridleway" priority="1" speed="2.78" allow="pedestrian" oneway="1" width="2.00"/>
    <type id="highway.bus_guideway" priority="1" speed="27.78" allow="bus" oneway="1"/>
    <type id="highway.cycleway" priority="1" speed="8.33" allow="bicycle" oneway="0" width="1.00"/>
    <type id="highway.footway" priority="1" speed="2.78" allow="pedestrian" oneway="1" width="2.00"/>
    <type id="highway.ford" priority="1" speed="2.78" allow="army" oneway="0"/>
    <type id="highway.living_street" priority="2" speed="2.78" disallow="tram rail_urban rail rail_electric rail_fast ship" oneway="0"/>
    <type id="highway.motorway" priority="14" speed="39.44" allow="private emergency authority army vip passenger hov taxi bus coach delivery truck trailer motorcycle evehicle custom1 custom2" oneway="1"/>
    <type id="highway.motorway_link" priority="9" speed="22.22" allow="private emergency authority army vip passenger hov taxi bus coach delivery truck trailer motorcycle evehicle custom1 custom2" oneway="1"/>
    <type id="highway.path" priority="1" speed="2.78" allow="pedestrian bicycle" oneway="0" width="2.00"/>
    <type id="highway.pedestrian" priority="1" speed="2.78" allow="pedestrian" oneway="1" width="2.00"/>
    <type id="highway.primary" priority="12" speed="27.78" disallow="pedestrian tram rail_urban rail rail_electric rail_fast ship" oneway="0"/>
    <type id="highway.primary_link" priority="7" speed="22.22" disallow="pedestrian tram rail_urban rail rail_electric rail_fast ship" oneway="0"/>
    <type id="highway.raceway" priority="15" speed="83.33" allow="vip" oneway="0"/>
    <type id="highway.residential" priority="3" speed="13.89" disallow="pedestrian tram rail_urban rail rail_electric rail_fast ship" oneway="0"/>
    <type id="highway.secondary" priority="11" speed="27.78" disallow="pedestrian tram rail_urban rail rail_electric rail_fast ship" oneway="0"/>
    <type id="highway.secondary_link" priority="6" speed="22.22" disallow="pedestrian tram rail_urban rail rail_electric rail_fast ship" oneway="0"/>
    <type id="highway.service" priority="1" speed="5.56" allow="pedestrian delivery bicycle" oneway="0"/>
    <type id="highway.stairs" priority="1" speed="1.39" allow="pedestrian" oneway="1" width="2.00"/>
    <type id="highway.step" priority="1" speed="1.39" allow="pedestrian" oneway="1" width="2.00"/>
    <type id="highway.steps" priority="1" speed="1.39" allow="pedestrian" oneway="1" width="2.00"/>
    <type id="highway.tertiary" priority="10" speed="22.22" disallow="pedestrian tram rail_urban rail rail_electric rail_fast ship" oneway="0"/>
    <type id="highway.tertiary_link" priority="5" speed="22.22" disallow="pedestrian tram rail_urban rail rail_electric rail_fast ship" oneway="0"/>
    <type id="highway.track" priority="1" speed="5.56" allow="pedestrian motorcycle moped bicycle" oneway="0"/>
    <type id="highway.trunk" priority="13" speed="27.78" disallow="pedestrian bicycle tram rail_urban rail rail_electric rail_fast ship" oneway="0"/>
    <type id="highway.trunk_link" priority="8" speed="22.22" disallow="pedestrian bicycle tram rail_urban rail rail_electric rail_fast ship" oneway="0"/>
    <type id="highway.unclassified" priority="4" speed="13.89" disallow="pedestrian tram rail_urban rail rail_electric rail_fast ship" oneway="0"/>
    <type id="highway.unsurfaced" priority="1" speed="8.33" disallow="tram rail_urban rail rail_electric rail_fast ship" oneway="0"/>
    <type id="railway.highspeed" priority="21" speed="69.44" allow="rail_fast" oneway="1"/>
    <type id="railway.light_rail" priority="19" speed="27.78" allow="rail_urban" oneway="1"/>
    <type id="railway.preserved" priority="16" speed="27.78" allow="rail" oneway="1"/>
    <type id="railway.rail" priority="20" speed="44.44" allow="rail" oneway="1"/>
    <type id="railway.subway" priority="18" speed="27.78" allow="rail_urban" oneway="1"/>
    <type id="railway.tram" priority="17" speed="13.89" allow="tram" oneway="1"/>

    <edge id=":37_0" function="internal">
        <lane id=":37_0_0" index="0" disallow="pedestrian tram rail_urban rail rail_electric rail_fast ship" speed="36.11" length="28.15" width="3.50" shape="-667.08,53.57 -668.76,45.06 -672.19,25.89"/>
    </edge>
    <edge id=":37_1" function="internal">
        <lane id=":37_1_0" index="0" disallow="pedestrian tram rail_urban rail rail_electric rail_fast ship" speed="15.48" length="24.54" width="3.50" shape="-665.29,24.71 -664.17,30.36 -662.96,34.90 -661.58,38.85 -660.06,42.18 -658.44,44.87 -656.82,46.92 -656.47,47.25"/>
    </edge>
    <edge id=":37_2" function="internal">
        <lane id=":37_2_0" index="0" disallow="pedestrian tram rail_urban rail rail_electric rail_fast ship" speed="36.11" length="27.92" width="3.50" shape="-665.29,24.71 -661.88,43.74 -660.22,52.17"/>
        <lane id=":37_2_1" index="1" disallow="pedestrian tram rail_urban rail rail_electric rail_fast ship" speed="36.11" length="28.04" width="3.50" shape="-668.74,25.30 -665.32,44.41 -663.65,52.87"/>
    </edge>
    <edge id=":38_0" function="internal">
        <lane id=":38_0_0" index="0" disallow="pedestrian tram rail_urban rail rail_electric rail_fast ship" speed="22.91" length="31.90" width="3.50" shape="-648.11,138.43 -649.55,131.36 -651.10,125.37 -652.85,119.98 -654.58,115.68 -656.39,111.97 -658.23,108.87 -658.51,108.50"/>
    </edge>
    <edge id=":38_1" function="internal">
        <lane id=":38_1_0" index="0" disallow="pedestrian tram rail_urban rail rail_electric rail_fast ship" speed="36.11" length="38.14" width="3.50" shape="-648.11,138.43 -651.49,119.66 -654.88,100.90"/>
        <lane id=":38_1_1" index="1" disallow="pedestrian tram rail_urban rail rail_electric rail_fast ship" speed="36.11" length="38.15" width="3.50" shape="-644.66,137.81 -648.05,119.04 -651.44,100.27"/>
    </edge>
    <edge id=":38_3" function="internal">
        <lane id=":38_3_0" index="0" disallow="pedestrian tram rail_urban rail rail_electric rail_fast ship" speed="36.11" length="38.15" width="3.50" shape="-647.99,99.65 -644.61,118.42 -641.22,137.19"/>
    </edge>
    <edge id=":39_0" function="internal">
        <lane id=":39_0_0" index="0" disallow="pedestrian tram rail_urban rail rail_electric rail_fast ship" speed="36.11" length="32.07" width="3.50" shape="-612.62,40.61 -616.79,46.26 -621.05,51.41 -625.61,56.29 -628.84,59.38 -632.21,62.29 -634.38,64.00"/>
        <lane id=":39_0_1" index="1" disallow="pedestrian tram rail_urban rail rail_electric rail_fast ship" speed="36.11" length="31.72" width="3.50" shape="-614.99,37.89 -619.50,44.05 -623.62,49.04 -628.03,53.76 -631.14,56.74 -634.40,59.56 -636.39,61.13"/>
    </edge>
    <edge id=":39_2" function="internal">
        <lane id=":39_2_0" index="0" disallow="pedestrian tram rail_urban rail rail_electric rail_fast ship" speed="18.61" length="30.28" width="3.50" shape="-642.63,53.51 -641.76,53.41 -640.74,53.09 -639.58,52.57 -638.31,51.87 -636.95,51.01 -635.51,50.02 -634.01,48.92 -632.47,47.73 -630.92,46.48 -629.37,45.19 -627.84,43.88 -626.34,42.58 -624.91,41.31 -623.55,40.09 -622.28,38.95 -621.14,37.90 -620.12,36.98 -619.26,36.20 -618.58,35.59"/>
    </edge>
    <edge id=":39_3" function="internal">
        <lane id=":39_3_0" index="0" disallow="pedestrian tram rail_urban rail rail_electric rail_fast ship" speed="36.11" length="30.26" width="3.50" shape="-638.47,58.32 -637.75,57.76 -636.90,57.01 -635.93,56.10 -634.85,55.05 -633.69,53.87 -632.46,52.58 -631.18,51.22 -629.86,49.79 -628.53,48.33 -627.20,46.85 -625.88,45.36 -624.59,43.90 -623.36,42.49 -622.20,41.14 -621.12,39.87 -620.14,38.71 -619.29,37.68 -618.57,36.80 -618.00,36.08"/>
    </edge>
    <edge id=":41_0" function="internal">
        <lane id=":41_0_0" index="0" disallow="pedestrian tram rail_urban rail rail_electric rail_fast ship" speed="14.99" length="34.34" width="3.50" shape="-674.01,98.19 -679.50,98.68 -681.44,99.48 -683.66,100.85 -686.08,102.85 -688.62,105.50 -691.24,108.77 -694.21,113.08 -697.45,118.46 -698.23,119.86"/>
    </edge>
    <edge id=":41_1" function="internal">
        <lane id=":41_1_0" index="0" disallow="pedestrian tram rail_urban rail rail_electric rail_fast ship" speed="36.11" length="34.52" width="3.50" shape="-676.33,93.33 -685.80,102.92 -689.88,107.78 -693.72,112.81 -696.07,116.26 -698.23,119.86"/>
    </edge>
    <edge id=":41_2" function="internal">
        <lane id=":41_2_0" index="0" disallow="pedestrian tram rail_urban rail rail_electric rail_fast ship" speed="36.11" length="36.28" width="3.50" shape="-704.38,116.52 -702.05,112.61 -699.53,108.91 -695.47,103.57 -691.16,98.42 -681.51,88.51"/>
        <lane id=":41_2_1" index="1" disallow="pedestrian tram rail_urban rail rail_electric rail_fast ship" speed="36.11" length="35.40" width="3.50" shape="-701.30,118.19 -699.10,114.50 -696.67,110.93 -692.72,105.73 -688.52,100.71 -678.92,90.92"/>
    </edge>
    <edge id=":42_0" function="internal">
        <lane id=":42_0_0" index="0" disallow="pedestrian tram rail_urban rail rail_electric rail_fast ship" speed="36.11" length="22.48" width="3.50" shape="-657.91,87.67 -660.89,77.23 -664.08,66.05"/>
    </edge>
    <edge id=":42_1" function="internal">
        <lane id=":42_1_0" index="0" disallow="pedestrian tram rail_urban rail rail_electric rail_fast ship" speed="11.60" length="22.73" width="3.50" shape="-654.56,86.68 -655.95,81.18 -656.33,78.39 -656.38,76.15 -656.11,73.92 -655.65,72.30 -654.92,70.78 -653.92,69.43 -652.68,68.29 -650.20,66.57"/>
    </edge>
    <edge id=":42_2" function="internal">
        <lane id=":42_2_0" index="0" disallow="pedestrian tram rail_urban rail rail_electric rail_fast ship" speed="9.80" length="15.97" width="3.50" shape="-646.22,72.32 -649.61,74.78 -650.74,76.02 -651.59,77.46 -652.10,79.05 -652.23,80.72 -652.05,82.38 -651.20,85.69"/>
    </edge>
    <edge id=":42_3" function="internal">
        <lane id=":42_3_0" index="0" disallow="pedestrian tram rail_urban rail rail_electric rail_fast ship" speed="36.11" length="24.86" width="3.50" shape="-648.21,69.44 -652.79,72.80 -655.13,74.98 -661.66,82.00 -663.98,84.19 -666.51,86.15"/>
    </edge>
    <edge id=":42_4" function="internal">
        <lane id=":42_4_0" index="0" disallow="pedestrian tram rail_urban rail rail_electric rail_fast ship" speed="8.81" length="21.86" width="3.50" shape="-648.21,69.44 -653.05,72.54 -654.83,73.34 -656.71,73.88 -658.01,73.99 -659.30,73.82 -660.50,73.31 -661.50,72.48 -662.27,71.43 -663.08,69.65 -664.08,66.05"/>
    </edge>
    <edge id=":42_5" function="internal">
        <lane id=":42_5_0" index="0" disallow="pedestrian tram rail_urban rail rail_electric rail_fast ship" speed="36.11" length="22.48" width="3.50" shape="-657.37,64.07 -654.17,75.27 -651.20,85.69"/>
    </edge>
    <edge id=":42_6" function="internal">
        <lane id=":42_6_0" index="0" disallow="pedestrian tram rail_urban rail rail_electric rail_fast ship" speed="11.88" length="23.90" width="3.50" shape="-660.72,65.06 -659.32,70.72 -659.11,72.90 -659.19,75.09 -659.61,77.24 -660.37,79.29 -661.45,81.20 -662.79,82.93 -664.76,84.83 -666.51,86.15"/>
    </edge>
    <edge id=":42_7" function="internal">
        <lane id=":42_7_0" index="0" disallow="pedestrian tram rail_urban rail rail_electric rail_fast ship" speed="10.17" length="17.43" width="3.50" shape="-670.50,80.40 -667.85,78.39 -665.84,76.50 -664.47,74.78 -663.66,73.33 -663.16,71.76 -663.05,70.66 -663.15,69.57 -664.08,66.05"/>
    </edge>
    <edge id=":42_8" function="internal">
        <lane id=":42_8_0" index="0" disallow="pedestrian tram rail_urban rail rail_electric rail_fast ship" speed="36.11" length="24.88" width="3.50" shape="-668.52,83.29 -666.11,81.42 -663.89,79.33 -657.35,72.30 -654.91,70.02 -650.20,66.57"/>
    </edge>
    <edge id=":42_9" function="internal">
        <lane id=":42_9_0" index="0" disallow="pedestrian tram rail_urban rail rail_electric rail_fast ship" speed="8.95" length="22.63" width="3.50" shape="-668.52,83.29 -665.28,81.23 -662.45,79.78 -660.06,78.92 -658.19,78.57 -656.92,78.56 -655.68,78.80 -654.53,79.33 -653.55,80.13 -652.78,81.14 -651.98,82.87 -651.20,85.69"/>
    </edge>

    <edge id="30904" from="15" to="39" priority="3" type="highway.residential" spreadType="center" length="4.07" shape="-611.23,35.55 -629.86,56.12">
        <lane id="30904_0" index="0" disallow="pedestrian tram rail_urban rail rail_electric rail_fast ship" speed="36.11" length="4.95" width="3.50" customShape="1" shape="-609.79,36.55 -612.62,40.61"/>
        <lane id="30904_1" index="1" disallow="pedestrian tram rail_urban rail rail_electric rail_fast ship" speed="36.11" length="4.07" width="3.50" customShape="1" shape="-612.67,34.55 -614.99,37.89"/>
    </edge>
    <edge id="31145" from="13" to="38" priority="3" type="highway.residential" spreadType="center" length="5.25" shape="-645.46,143.29 -653.62,116.51">
        <lane id="31145_0" index="0" disallow="pedestrian tram rail_urban rail rail_electric rail_fast ship" speed="36.11" length="5.26" width="3.50" customShape="1" shape="-647.19,143.60 -648.07,138.67 -648.09,138.55 -648.11,138.42"/>
        <lane id="31145_1" index="1" disallow="pedestrian tram rail_urban rail rail_electric rail_fast ship" speed="36.11" length="5.25" width="3.50" customShape="1" shape="-643.74,142.98 -644.62,138.06 -644.64,137.93 -644.67,137.81"/>
    </edge>
    <edge id="31147" from="38" to="6" priority="3" type="highway.residential" spreadType="center" length="5.26" shape="-648.53,115.31 -640.30,142.37">
        <lane id="31147_0" index="0" disallow="pedestrian tram rail_urban rail rail_electric rail_fast ship" speed="36.11" length="5.26" width="3.50" customShape="1" shape="-641.22,137.19 -641.20,137.32 -641.17,137.45 -640.30,142.37"/>
    </edge>
    <edge id="31317" from="38" to="42" priority="3" type="highway.residential" spreadType="center" length="13.58" shape="-653.59,116.64 -661.93,77.08">
        <lane id="31317_0" index="0" disallow="pedestrian tram rail_urban rail rail_electric rail_fast ship" speed="36.11" length="13.58" width="3.50" customShape="1" shape="-654.88,100.90 -654.90,100.77 -654.92,100.65 -656.49,93.11 -657.91,87.67"/>
        <lane id="31317_1" index="1" disallow="pedestrian tram rail_urban rail rail_electric rail_fast ship" speed="36.11" length="13.95" width="3.50" customShape="1" shape="-651.44,100.27 -651.46,100.15 -651.48,100.03 -653.09,92.27 -654.56,86.68"/>
    </edge>
    <edge id="31323" from="42" to="38" priority="3" type="highway.residential" spreadType="center" length="14.33" shape="-656.77,76.22 -648.45,115.56">
        <lane id="31323_0" index="0" disallow="pedestrian tram rail_urban rail rail_electric rail_fast ship" speed="36.11" length="14.33" width="3.50" customShape="1" shape="-651.20,85.69 -649.67,91.51 -648.04,99.41 -648.01,99.53 -647.99,99.65"/>
    </edge>
    <edge id="31380" from="41" to="9" priority="3" type="highway.residential" spreadType="center" length="13.88" shape="-687.67,106.54 -704.57,132.21">
        <lane id="31380_0" index="0" disallow="pedestrian tram rail_urban rail rail_electric rail_fast ship" speed="36.11" length="13.88" width="3.50" customShape="1" shape="-698.23,119.86 -699.44,122.10 -704.57,132.21"/>
    </edge>
    <edge id="31382" from="17" to="41" priority="3" type="highway.residential" spreadType="center" length="14.03" shape="-709.27,129.87 -691.88,103.43">
        <lane id="31382_0" index="0" disallow="pedestrian tram rail_urban rail rail_electric rail_fast ship" speed="36.11" length="14.20" width="3.50" customShape="1" shape="-710.84,129.09 -705.60,118.77 -704.35,116.46"/>
        <lane id="31382_1" index="1" disallow="pedestrian tram rail_urban rail rail_electric rail_fast ship" speed="36.11" length="14.03" width="3.50" customShape="1" shape="-707.71,130.66 -702.53,120.45 -701.30,118.18"/>
    </edge>
    <edge id="31405" from="42" to="37" priority="3" type="highway.residential" spreadType="center" length="12.85" shape="-660.17,77.04 -666.18,41.54">
        <lane id="31405_0" index="0" disallow="pedestrian tram rail_urban rail rail_electric rail_fast ship" speed="36.11" length="12.85" width="3.50" customShape="1" shape="-664.08,66.05 -665.34,61.34 -667.03,53.81 -667.05,53.69 -667.08,53.56"/>
    </edge>
    <edge id="31651" from="42" to="39" priority="3" type="highway.residential" spreadType="center" length="14.34" shape="-659.68,75.41 -633.29,52.15">
        <lane id="31651_0" index="0" disallow="pedestrian tram rail_urban rail rail_electric rail_fast ship" speed="36.11" length="14.34" width="3.50" customShape="1" shape="-650.20,66.57 -644.17,62.43 -638.47,58.32"/>
    </edge>
    <edge id="31657" from="39" to="42" priority="3" type="highway.residential" spreadType="center" length="14.45" shape="-629.82,56.09 -656.42,79.50">
        <lane id="31657_0" index="0" disallow="pedestrian tram rail_urban rail rail_electric rail_fast ship" speed="36.11" length="14.47" width="3.50" customShape="1" shape="-634.38,64.00 -640.06,68.09 -646.22,72.32"/>
        <lane id="31657_1" index="1" disallow="pedestrian tram rail_urban rail rail_electric rail_fast ship" speed="36.11" length="14.45" width="3.50" customShape="1" shape="-636.39,61.13 -642.09,65.24 -648.21,69.44"/>
    </edge>
    <edge id="31664" from="37" to="39" priority="3" type="highway.residential" spreadType="center" length="15.43">
        <lane id="31664_0" index="0" disallow="pedestrian tram rail_urban rail rail_electric rail_fast ship" speed="36.11" length="15.43" width="3.50" customShape="1" shape="-656.69,47.60 -653.93,49.35 -653.83,49.42 -651.04,51.02 -648.11,52.31 -645.55,53.08 -642.91,53.50 -642.63,53.51"/>
    </edge>
    <edge id="31690" from="37" to="3" priority="3" type="highway.residential" spreadType="center" length="8.32" shape="-666.08,41.88 -673.58,17.69">
        <lane id="31690_0" index="0" disallow="pedestrian tram rail_urban rail rail_electric rail_fast ship" speed="36.11" length="8.32" width="3.50" customShape="1" shape="-672.19,25.89 -672.89,21.78 -673.58,17.69"/>
    </edge>
    <edge id="31692" from="11" to="37" priority="3" type="highway.residential" spreadType="center" length="8.34" shape="-668.41,16.80 -661.00,40.69">
        <lane id="31692_0" index="0" disallow="pedestrian tram rail_urban rail rail_electric rail_fast ship" speed="36.11" length="8.34" width="3.50" customShape="1" shape="-666.69,16.50 -665.99,20.61 -665.29,24.72"/>
        <lane id="31692_1" index="1" disallow="pedestrian tram rail_urban rail rail_electric rail_fast ship" speed="36.11" length="8.34" width="3.50" customShape="1" shape="-670.14,17.09 -669.44,21.20 -668.74,25.31"/>
    </edge>
    <edge id="31792" from="37" to="42" priority="3" type="highway.residential" spreadType="center" length="12.24" shape="-661.00,40.67 -654.97,76.41">
        <lane id="31792_0" index="0" disallow="pedestrian tram rail_urban rail rail_electric rail_fast ship" speed="36.11" length="12.24" width="3.50" customShape="1" shape="-660.22,52.17 -660.20,52.29 -660.17,52.40 -658.55,59.63 -657.37,64.07"/>
        <lane id="31792_1" index="1" disallow="pedestrian tram rail_urban rail rail_electric rail_fast ship" speed="36.11" length="12.55" width="3.50" customShape="1" shape="-663.65,52.86 -663.62,52.99 -663.60,53.09 -661.94,60.50 -660.72,65.06"/>
    </edge>
    <edge id="31892" from="42" to="41" priority="3" type="highway.residential" spreadType="center" length="12.17" shape="-657.21,77.88 -687.98,106.94">
        <lane id="31892_0" index="0" disallow="pedestrian tram rail_urban rail rail_electric rail_fast ship" speed="36.11" length="12.17" width="3.50" customShape="1" shape="-666.51,86.15 -666.61,86.22 -666.70,86.29 -670.69,89.15 -674.68,92.01 -674.77,92.08 -674.87,92.16 -676.33,93.33"/>
    </edge>
    <edge id="32055" from="38" to="41" priority="3" type="highway.residential" spreadType="center" length="19.31">
        <lane id="32055_0" index="0" disallow="pedestrian tram rail_urban rail rail_electric rail_fast ship" speed="36.11" length="19.31" width="3.50" customShape="1" shape="-658.10,108.10 -662.16,103.95 -662.25,103.86 -664.23,102.06 -666.41,100.52 -668.79,99.32 -670.82,98.65 -672.92,98.24 -674.01,98.19"/>
    </edge>
    <edge id="32138" from="41" to="42" priority="3" type="highway.residential" spreadType="center" length="12.92" shape="-691.59,103.12 -660.64,73.93">
        <lane id="32138_0" index="0" disallow="pedestrian tram rail_urban rail rail_electric rail_fast ship" speed="36.11" length="13.69" width="3.50" customShape="1" shape="-681.51,88.51 -679.06,86.55 -678.96,86.47 -678.84,86.39 -674.77,83.47 -670.71,80.55 -670.59,80.46 -670.49,80.40"/>
        <lane id="32138_1" index="1" disallow="pedestrian tram rail_urban rail rail_electric rail_fast ship" speed="36.11" length="12.92" width="3.50" customShape="1" shape="-678.92,90.92 -676.96,89.35 -676.86,89.28 -676.76,89.20 -672.73,86.31 -668.70,83.42 -668.50,83.28"/>
    </edge>
    <edge id="35249" from="39" to="40" priority="3" type="highway.residential" spreadType="center" length="0.21" shape="-633.49,52.35 -618.52,36.82">
        <lane id="35249_0" index="0" disallow="pedestrian tram rail_urban rail rail_electric rail_fast ship" speed="36.11" length="0.21" width="3.50" customShape="1" shape="-618.58,35.59 -618.42,35.46"/>
    </edge>
    <edge id="35287" from="39" to="40" priority="3" type="highway.residential" spreadType="center" length="0.20">
        <lane id="35287_0" index="0" disallow="pedestrian tram rail_urban rail rail_electric rail_fast ship" speed="36.11" length="0.20" width="3.50" customShape="1" shape="-618.00,36.08 -617.88,35.92"/>
    </edge>

    <junction id="11" type="dead_end" x="-668.41" y="16.80" incLanes="" intLanes="" shape="-671.86,17.38 -664.96,16.21" rightOfWay="edgePriority"/>
    <junction id="13" type="dead_end" x="-645.46" y="143.29" incLanes="" intLanes="" shape="-642.02,142.68 -648.91,143.90" rightOfWay="edgePriority"/>
    <junction id="15" type="dead_end" x="-611.23" y="35.55" incLanes="" intLanes="" shape="-614.11,33.55 -608.35,37.56" rightOfWay="edgePriority"/>
    <junction id="17" type="dead_end" x="-709.27" y="129.87" incLanes="" intLanes="" shape="-706.15,131.45 -712.39,128.28" rightOfWay="edgePriority"/>
    <junction id="3" type="dead_end" x="-673.58" y="17.69" incLanes="31690_0" intLanes="" shape="-675.31,17.98 -671.86,17.40" rightOfWay="edgePriority"/>
    <junction id="37" type="priority" x="-664.45" y="41.25" incLanes="31405_0 31692_0 31692_1" intLanes=":37_0_0 :37_1_0 :37_2_0 :37_2_1" shape="-668.79,53.92 -658.51,51.82 -658.75,49.83 -658.67,49.23 -658.46,48.91 -658.11,48.86 -657.63,49.07 -655.76,46.12 -657.26,44.70 -658.68,42.41 -660.02,39.23 -661.28,35.17 -662.46,30.24 -663.56,24.43 -673.91,26.18">
        <request index="0" response="0000" foes="0000" cont="0"/>
        <request index="1" response="0000" foes="0000" cont="0"/>
        <request index="2" response="0000" foes="0000" cont="0"/>
        <request index="3" response="0000" foes="0000" cont="0"/>
    </junction>
    <junction id="38" type="priority" x="-650.17" y="115.92" incLanes="31145_0 31145_1 31323_0" intLanes=":38_0_0 :38_1_0 :38_1_1 :38_3_0" shape="-649.83,138.73 -639.50,136.89 -646.27,99.34 -656.60,101.21 -656.24,103.38 -656.05,105.07 -656.01,106.26 -656.13,106.95 -656.41,107.16 -656.85,106.87 -659.35,109.32 -655.08,114.28 -652.68,118.47 -651.55,122.46 -651.10,126.80 -650.73,132.04">
        <request index="0" response="0000" foes="0000" cont="0"/>
        <request index="1" response="0000" foes="0000" cont="0"/>
        <request index="2" response="0000" foes="0000" cont="0"/>
        <request index="3" response="0000" foes="0000" cont="0"/>
    </junction>
    <junction id="39" type="priority" x="-632.14" y="53.46" incLanes="30904_0 30904_1 31664_0 31651_0" intLanes=":39_0_0 :39_0_1 :39_2_0 :39_3_0" shape="-611.44,41.97 -618.83,33.49 -625.44,39.18 -631.00,43.81 -635.51,47.39 -638.97,49.90 -641.38,51.36 -642.67,51.76 -642.60,55.26 -639.96,55.51 -639.24,55.75 -638.92,56.06 -639.01,56.45 -639.49,56.90 -633.36,65.42 -627.85,61.34 -623.94,58.09 -620.98,55.10 -618.33,51.80 -615.36,47.61">
        <request index="0" response="0000" foes="0000" cont="0"/>
        <request index="1" response="0000" foes="0000" cont="0"/>
        <request index="2" response="0000" foes="0000" cont="0"/>
        <request index="3" response="0000" foes="0000" cont="0"/>
    </junction>
    <junction id="40" type="dead_end" x="-618.52" y="36.82" incLanes="35249_0 35287_0" intLanes="" shape="-619.93,35.79 -617.11,37.85 -619.92,35.78 -617.11,37.86"/>
    <junction id="41" type="priority" x="-689.19" y="105.67" incLanes="32055_0 31892_0 31382_0 31382_1" intLanes=":41_0_0 :41_1_0 :41_2_0 :41_2_1" shape="-673.77,99.95 -674.26,96.43 -675.67,96.16 -675.94,95.88 -675.93,95.52 -675.63,95.07 -675.04,94.53 -682.81,87.30 -688.87,92.25 -693.21,96.16 -696.45,99.75 -699.22,103.72 -702.16,108.79 -705.92,115.69 -696.69,120.69 -692.85,114.21 -689.01,108.93 -685.19,104.87 -681.37,102.02 -677.57,100.38">
        <request index="0" response="0010" foes="0010" cont="0"/>
        <request index="1" response="0000" foes="0001" cont="0"/>
        <request index="2" response="0000" foes="0000" cont="0"/>
        <request index="3" response="0000" foes="0000" cont="0"/>
    </junction>
    <junction id="42" type="priority" x="-658.46" y="76.66" incLanes="31317_0 31317_1 31657_0 31657_1 31792_0 31792_1 32138_0 32138_1" intLanes=":42_0_0 :42_1_0 :42_2_0 :42_3_0 :42_4_0 :42_5_0 :42_6_0 :42_7_0 :42_8_0 :42_9_0" shape="-659.72,88.20 -649.52,85.20 -649.92,82.89 -649.88,80.73 -649.39,78.75 -648.45,76.92 -647.06,75.26 -645.22,73.76 -651.20,65.13 -653.15,65.96 -653.94,65.87 -654.62,65.43 -655.17,64.66 -655.60,63.55 -665.76,66.55 -665.39,68.89 -665.54,71.12 -666.23,73.25 -667.45,75.26 -669.20,77.17 -671.49,78.96 -665.51,87.59 -662.79,86.22 -661.72,86.12 -660.86,86.42 -660.19,87.11">
        <request index="0" response="1110011000" foes="1111011000" cont="0"/>
        <request index="1" response="1100111000" foes="1100111000" cont="0"/>
        <request index="2" response="0000000000" foes="1000100000" cont="0"/>
        <request index="3" response="0000000000" foes="1001100011" cont="0"/>
        <request index="4" response="0110000000" foes="0111100011" cont="0"/>
        <request index="5" response="1100011100" foes="1100011110" cont="0"/>
        <request index="6" response="1100011001" foes="1100011001" cont="0"/>
        <request index="7" response="0000000000" foes="0000010001" cont="0"/>
        <request index="8" response="0000000000" foes="0001110011" cont="0"/>
        <request index="9" response="0000001100" foes="0001101111" cont="0"/>
    </junction>
    <junction id="6" type="dead_end" x="-640.30" y="142.37" incLanes="31147_0" intLanes="" shape="-638.57,142.06 -642.02,142.68" rightOfWay="edgePriority"/>
    <junction id="9" type="dead_end" x="-704.57" y="132.21" incLanes="31380_0" intLanes="" shape="-703.01,133.00 -706.13,131.41" rightOfWay="edgePriority"/>

    <connection from="30904" to="31657" fromLane="0" toLane="0" contPos="-4.00" shape="-612.81,40.87 -616.79,46.26 -621.05,51.41 -625.61,56.29 -628.84,59.38 -632.21,62.29 -633.93,63.67" via=":39_0_0" dir="s" state="M"/>
    <connection from="30904" to="31657" fromLane="1" toLane="1" contPos="-4.00" shape="-615.67,38.85 -619.50,44.05 -623.62,49.04 -628.03,53.76 -631.14,56.74 -634.40,59.56 -636.09,60.91" via=":39_0_1" dir="s" state="M"/>
    <connection from="31145" to="32055" fromLane="0" toLane="0" contPos="-4.00" shape="-648.11,138.43 -649.55,131.36 -651.10,125.37 -652.85,119.98 -654.58,115.68 -656.39,111.97 -658.23,108.87 -660.36,105.96 -662.08,104.04" via=":38_0_0" dir="r" state="M"/>
    <connection from="31145" to="31317" fromLane="0" toLane="0" contPos="-4.00" shape="-648.11,138.43 -651.49,119.66 -654.88,100.90" via=":38_1_0" dir="s" state="M"/>
    <connection from="31145" to="31317" fromLane="1" toLane="1" contPos="-4.00" shape="-644.67,137.81 -648.05,119.04 -651.44,100.27" via=":38_1_1" dir="s" state="M"/>