<routes>
	<vehicle depart="0.1" departLane="0" departPos="41.32587404997496" departSpeed="6.8769061" id="312" type="bicycle">
		<route edges="59 68"/>
	</vehicle>
	<vehicle depart="0.1" departLane="0" departPos="33.08631516161368" departSpeed="0.0" id="31" type="passenger">
		<route edges="65 58"/>
	</vehicle>
	<vehicle depart="0.1" departLane="0" departPos="59.209411840624746" departSpeed="0.47493921" id="33" type="passenger">
		<route edges="59 68"/>
	</vehicle>
	<vehicle depart="0.1" departLane="0" departPos="12.912705955639554" departSpeed="1.6202088" id="35" type="passenger">
		<route edges=":41_1 58"/>
	</vehicle>
	<vehicle depart="0.1" departLane="0" departPos="51.41116801546402" departSpeed="0.44991972" id="38" type="passenger">
		<route edges="59 64"/>
	</vehicle>
	<vehicle depart="0.1" departLane="0" departPos="48.52221435816439" departSpeed="3.0314341e-05" id="311" type="passenger">
		<route edges="58 402"/>
	</vehicle>
	<vehicle depart="0.1" departLane="0" departPos="41.616974767254085" departSpeed="0.00064606379" id="314" type="passenger">
		<route edges="58 402"/>
	</vehicle>
	<vehicle depart="0.1" departLane="0" departPos="25.529565167008883" departSpeed="0.545281" id="315" type="passenger">
		<route edges="65 58"/>
	</vehicle>
	<vehicle depart="0.1" departLane="0" departPos="11.972111139817365" departSpeed="0.0" id="316" type="passenger">
		<route edges="403 55"/>
	</vehicle>
	<vehicle depart="0.1" departLane="0" departPos="30.663031069647513" departSpeed="1.2513957" id="319" type="passenger">
		<route edges="59 68"/>
	</vehicle>
	<vehicle depart="0.1" departLane="0" departPos="34.42351135358011" departSpeed="0.0059016083" id="321" type="passenger">
		<route edges="58 402"/>
	</vehicle>
	<vehicle depart="0.1" departLane="0" departPos="27.06334101044503" departSpeed="0.033929565" id="322" type="passenger">
		<route edges="58 402"/>
	</vehicle>
	<vehicle depart="0.1" departLane="0" departPos="5.184285567814407" departSpeed="4.8044003" id="323" type="passenger">
		<route edges=":37_2 402 400"/>
	</vehicle>
	<vehicle depart="0.1" departLane="0" departPos="17.50837480247154" departSpeed="1.1229853" id="324" type="passenger">
		<route edges="65 58"/>
	</vehicle>
	<vehicle depart="0.1" departLane="0" departPos="14.339947126482917" departSpeed="0.0" id="325" type="passenger">
		<route edges="399 396"/>
	</vehicle>
	<vehicle depart="0.1" departLane="0" departPos="19.887053142435068" departSpeed="0.14063498" id="326" type="passenger">
		<route edges="58 402"/>
	</vehicle>
	<vehicle depart="0.1" departLane="0" departPos="4.67495912485678" departSpeed="0.00013458616" id="327" type="passenger">
		<route edges="403 55"/>
	</vehicle>
	<vehicle depart="0.1" departLane="0" departPos="12.673098314870389" departSpeed="0.41534262" id="329" type="passenger">
		<route edges="58 402"/>
	</vehicle>
	<vehicle depart="0.1" departLane="0" departPos="42.85322834857481" departSpeed="3.8217838" id="330" type="passenger">
		<route edges="56 59 68"/>
	</vehicle>
	<vehicle depart="0.1" departLane="0" departPos="4.684296196640185" departSpeed="0.98333079" id="332" type="passenger">
		<route edges="58 402"/>
	</vehicle>
	<vehicle depart="0.1" departLane="0" departPos="30.727243267121043" departSpeed="4.3673766" id="333" type="passenger">
		<route edges="56 59 68"/>
	</vehicle>
	<vehicle depart="0.1" departLane="0" departPos="28.046200929557315" departSpeed="0.0" id="334" type="passenger">
		<route edges="397 403"/>
	</vehicle>
	<vehicle depart="0.1" departLane="0" departPos="7.2060896442211195" departSpeed="0.0" id="335" type="passenger">
		<route edges="399 396"/>
	</vehicle>
	<vehicle depart="0.1" departLane="0" departPos="17.65667406056023" departSpeed="5.1533406" id="337" type="passenger">
		<route edges="56 59 68"/>
	</vehicle>
	<vehicle depart="0.1" departLane="0" departPos="16.590165046211837" departSpeed="0.022360342" id="338" type="passenger">
		<route edges="397 403"/>
	</vehicle>
	<vehicle depart="0.1" departLane="0" departPos="2.5" departSpeed="5.7579982" id="339" type="passenger">
		<route edges="56 59"/>
	</vehicle>
	<vehicle depart="0.1" departLane="0" departPos="36.05436490071901" departSpeed="5.7763729" id="340" type="passenger">
		<route edges="76 891"/>
	</vehicle>
	<vehicle depart="0.1" departLane="0" departPos="69.28520131196706" departSpeed="0.0" id="341" type="passenger">
		<route edges="67 58"/>
	</vehicle>
	<vehicle depart="0.1" departLane="0" departPos="9.403618821898418" departSpeed="0.085718241" id="342" type="passenger">
		<route edges="397 403"/>
	</vehicle>
	<vehicle depart="0.1" departLane="0" departPos="48.76346920836857" departSpeed="8.1603002" id="344" type="passenger">
		<route edges="67 58"/>
	</vehicle>
	<vehicle depart="0.1" departLane="0" departPos="43.7691560298818" departSpeed="0.43350255" id="310" type="motorcycle">
		<route edges="59 68"/>
	</vehicle>
	<vehicle depart="0.1" departLane="0" departPos="51.36693433737994" departSpeed="3.5453639" id="328" type="motorcycle">
		<route edges="56 59 68"/>
	</vehicle>
	<vehicle depart="0.1" departLane="0" departPos="21.21281732417537" departSpeed="0.0025921376" id="336" type="motorcycle">
		<route edges="397 403"/>
	</vehicle>
	<vehicle depart="0.1" departLane="0" departPos="57.877650390396674" departSpeed="0.0" id="30" type="truck">
		<route edges="58 402"/>
	</vehicle>
	<vehicle depart="0.1" departLane="0" departPos="25.598584771691858" departSpeed="10.304273" id="346" type="truck">
		<route edges="67 58"/>
	</vehicle>
</routes>
