<!-- generated on Wed Feb 10 12:29:28 2021 by Eclipse SUMO netconvert Version 1.8.0
<configuration xmlns:xsi="http://www.w3.org/2001/XMLSchema-instance" xsi:noNamespaceSchemaLocation="http://sumo.dlr.de/xsd/netconvertConfiguration.xsd">

    <input>
        <node-files value="./converted_scenarios/SUMO/DEU_Lohmar-11_1_I-1-1/DEU_Lohmar-11_1_I-1-1.nod.xml"/>
        <edge-files value="./converted_scenarios/SUMO/DEU_Lohmar-11_1_I-1-1/DEU_Lohmar-11_1_I-1-1.edg.xml"/>
        <connection-files value="./converted_scenarios/SUMO/DEU_Lohmar-11_1_I-1-1/DEU_Lohmar-11_1_I-1-1.con.xml"/>
        <tllogic-files value="./converted_scenarios/SUMO/DEU_Lohmar-11_1_I-1-1/DEU_Lohmar-11_1_I-1-1.tll.xml"/>
        <type-files value="/home/zen/commonroad-interactive-benchmarks/install/commonroad-map-tool/crmapconverter/sumo_map/templates/DEU.typ.xml"/>
    </input>

    <output>
        <output-file value="./converted_scenarios/SUMO/DEU_Lohmar-11_1_I-1-1/DEU_Lohmar-11_1_I-1-1.net.xml"/>
    </output>

    <processing>
        <geometry.remove.keep-edges.explicit value="true"/>
        <geometry.avoid-overlap value="true"/>
        <offset.disable-normalization value="true"/>
    </processing>

    <junctions>
        <no-turnarounds value="true"/>
        <junctions.internal-link-detail value="20"/>
    </junctions>

    <report>
        <aggregate-warnings value="5"/>
    </report>

    <random_number>
        <seed value="1234"/>
    </random_number>

</configuration>
--><net xmlns:xsi="http://www.w3.org/2001/XMLSchema-instance" version="1.6" junctionCornerDetail="5" junctionLinkDetail="20" limitTurnSpeed="5.50" xsi:noNamespaceSchemaLocation="http://sumo.dlr.de/xsd/net_file.xsd">

    <location netOffset="0.00,0.00" convBoundary="54.18,-695.97,205.14,-539.51" origBoundary="54.18,-695.97,205.14,-539.51" projParameter="!"/>

    <type id="highway.bridleway" priority="1" speed="2.78" allow="pedestrian" oneway="1" width="2.00"/>
    <type id="highway.bus_guideway" priority="1" speed="27.78" allow="bus" oneway="1"/>
    <type id="highway.cycleway" priority="1" speed="8.33" allow="bicycle" oneway="0" width="1.00"/>
    <type id="highway.footway" priority="1" speed="2.78" allow="pedestrian" oneway="1" width="2.00"/>
    <type id="highway.ford" priority="1" speed="2.78" allow="army" oneway="0"/>
    <type id="highway.living_street" priority="2" speed="2.78" disallow="tram rail_urban rail rail_electric rail_fast ship" oneway="0"/>
    <type id="highway.motorway" priority="14" speed="39.44" allow="private emergency authority army vip passenger hov taxi bus coach delivery truck trailer motorcycle evehicle custom1 custom2" oneway="1"/>
    <type id="highway.motorway_link" priority="9" speed="22.22" allow="private emergency authority army vip passenger hov taxi bus coach delivery truck trailer motorcycle evehicle custom1 custom2" oneway="1"/>
    <type id="highway.path" priority="1" speed="2.78" allow="pedestrian bicycle" oneway="0" width="2.00"/>
    <type id="highway.pedestrian" priority="1" speed="2.78" allow="pedestrian" oneway="1" width="2.00"/>
    <type id="highway.primary" priority="12" speed="27.78" disallow="pedestrian tram rail_urban rail rail_electric rail_fast ship" oneway="0"/>
    <type id="highway.primary_link" priority="7" speed="22.22" disallow="pedestrian tram rail_urban rail rail_electric rail_fast ship" oneway="0"/>
    <type id="highway.raceway" priority="15" speed="83.33" allow="vip" oneway="0"/>
    <type id="highway.residential" priority="3" speed="13.89" disallow="pedestrian tram rail_urban rail rail_electric rail_fast ship" oneway="0"/>
    <type id="highway.secondary" priority="11" speed="27.78" disallow="pedestrian tram rail_urban rail rail_electric rail_fast ship" oneway="0"/>
    <type id="highway.secondary_link" priority="6" speed="22.22" disallow="pedestrian tram rail_urban rail rail_electric rail_fast ship" oneway="0"/>
    <type id="highway.service" priority="1" speed="5.56" allow="pedestrian delivery bicycle" oneway="0"/>
    <type id="highway.stairs" priority="1" speed="1.39" allow="pedestrian" oneway="1" width="2.00"/>
    <type id="highway.step" priority="1" speed="1.39" allow="pedestrian" oneway="1" width="2.00"/>
    <type id="highway.steps" priority="1" speed="1.39" allow="pedestrian" oneway="1" width="2.00"/>
    <type id="highway.tertiary" priority="10" speed="22.22" disallow="pedestrian tram rail_urban rail rail_electric rail_fast ship" oneway="0"/>
    <type id="highway.tertiary_link" priority="5" speed="22.22" disallow="pedestrian tram rail_urban rail rail_electric rail_fast ship" oneway="0"/>
    <type id="highway.track" priority="1" speed="5.56" allow="pedestrian motorcycle moped bicycle" oneway="0"/>
    <type id="highway.trunk" priority="13" speed="27.78" disallow="pedestrian bicycle tram rail_urban rail rail_electric rail_fast ship" oneway="0"/>
    <type id="highway.trunk_link" priority="8" speed="22.22" disallow="pedestrian bicycle tram rail_urban rail rail_electric rail_fast ship" oneway="0"/>
    <type id="highway.unclassified" priority="4" speed="13.89" disallow="pedestrian tram rail_urban rail rail_electric rail_fast ship" oneway="0"/>
    <type id="highway.unsurfaced" priority="1" speed="8.33" disallow="tram rail_urban rail rail_electric rail_fast ship" oneway="0"/>
    <type id="railway.highspeed" priority="21" speed="69.44" allow="rail_fast" oneway="1"/>
    <type id="railway.light_rail" priority="19" speed="27.78" allow="rail_urban" oneway="1"/>
    <type id="railway.preserved" priority="16" speed="27.78" allow="rail" oneway="1"/>
    <type id="railway.rail" priority="20" speed="44.44" allow="rail" oneway="1"/>
    <type id="railway.subway" priority="18" speed="27.78" allow="rail_urban" oneway="1"/>
    <type id="railway.tram" priority="17" speed="13.89" allow="tram" oneway="1"/>

    <edge id=":37_0" function="internal">
        <lane id=":37_0_0" index="0" disallow="pedestrian tram rail_urban rail rail_electric rail_fast ship" speed="6.96" length="10.62" width="3.50" shape="154.82,-616.82 154.27,-616.96 153.72,-617.07 153.17,-617.16 152.62,-617.22 152.06,-617.24 151.50,-617.23 150.94,-617.17 150.40,-617.05 149.87,-616.86 149.37,-616.61 148.91,-616.29 148.51,-615.91 148.15,-615.48 147.84,-615.01 147.58,-614.52 147.35,-614.01 147.15,-613.49 146.99,-612.95 146.85,-612.42"/>
    </edge>
    <edge id=":37_1" function="internal">
        <lane id=":37_1_0" index="0" disallow="pedestrian tram rail_urban rail rail_electric rail_fast ship" speed="8.74" length="16.60" width="3.49" shape="154.82,-616.82 153.56,-617.22 151.73,-618.02 150.02,-619.15 148.95,-620.17 148.09,-621.37 147.45,-622.69 147.06,-624.09 146.88,-625.50 146.95,-627.51 147.27,-629.41"/>
    </edge>
    <edge id=":37_2" function="internal">
        <lane id=":37_2_0" index="0" disallow="pedestrian tram rail_urban rail rail_electric rail_fast ship" speed="7.28" length="11.19" width="3.50" shape="150.68,-628.65 150.45,-627.27 150.40,-625.87 150.52,-624.95 150.76,-624.05 151.17,-623.21 151.72,-622.45 152.39,-621.81 153.56,-621.04 154.84,-620.48 155.73,-620.20"/>
    </edge>
    <edge id=":37_3" function="internal">
        <lane id=":37_3_0" index="0" disallow="pedestrian tram rail_urban rail rail_electric rail_fast ship" speed="36.11" length="16.68" width="3.50" shape="150.68,-628.65 148.77,-620.55 146.85,-612.42"/>
    </edge>
    <edge id=":37_4" function="internal">
        <lane id=":37_4_0" index="0" disallow="pedestrian tram rail_urban rail rail_electric rail_fast ship" speed="36.11" length="16.64" width="3.49" shape="143.44,-613.22 145.37,-621.36 147.27,-629.41"/>
    </edge>
    <edge id=":37_5" function="internal">
        <lane id=":37_5_0" index="0" disallow="pedestrian tram rail_urban rail rail_electric rail_fast ship" speed="8.47" length="16.30" width="3.50" shape="143.44,-613.22 144.09,-615.30 145.03,-617.19 145.87,-618.33 146.91,-619.29 148.11,-620.02 149.44,-620.50 150.83,-620.74 152.95,-620.72 155.04,-620.37 155.73,-620.20"/>
    </edge>
    <edge id=":38_0" function="internal">
        <lane id=":38_0_0" index="0" disallow="pedestrian tram rail_urban rail rail_electric rail_fast ship" speed="7.09" length="10.26" width="3.50" shape="170.86,-688.79 170.33,-688.86 169.79,-688.91 169.25,-688.93 168.71,-688.91 168.17,-688.86 167.64,-688.75 167.13,-688.59 166.63,-688.37 166.17,-688.09 165.74,-687.76 165.36,-687.38 165.02,-686.96 164.72,-686.51 164.45,-686.04 164.22,-685.55 164.02,-685.05 163.84,-684.54 163.69,-684.02 163.55,-683.50"/>
    </edge>
    <edge id=":38_1" function="internal">
        <lane id=":38_1_0" index="0" disallow="pedestrian tram rail_urban rail rail_electric rail_fast ship" speed="36.11" length="14.91" width="3.50" shape="170.85,-688.79 156.18,-691.43"/>
    </edge>
    <edge id=":38_2" function="internal">
        <lane id=":38_2_0" index="0" disallow="pedestrian tram rail_urban rail rail_electric rail_fast ship" speed="36.11" length="14.85" width="3.50" shape="156.80,-694.88 169.41,-692.58 171.41,-692.25"/>
    </edge>
    <edge id=":38_3" function="internal">
        <lane id=":38_3_0" index="0" disallow="pedestrian tram rail_urban rail rail_electric rail_fast ship" speed="8.14" length="15.08" width="3.50" shape="156.80,-694.86 157.15,-694.78 159.08,-694.14 160.40,-693.44 161.62,-692.51 162.66,-691.28 163.38,-689.89 163.80,-688.40 163.94,-686.94 163.88,-685.50 163.55,-683.50"/>
    </edge>
    <edge id=":38_4" function="internal">
        <lane id=":38_4_0" index="0" disallow="pedestrian tram rail_urban rail rail_electric rail_fast ship" speed="5.89" length="9.04" width="3.49" shape="160.15,-684.30 153.40,-690.32"/>
    </edge>
    <edge id=":38_5" function="internal">
        <lane id=":38_5_0" index="0" disallow="pedestrian tram rail_urban rail rail_electric rail_fast ship" speed="8.59" length="15.55" width="3.50" shape="160.15,-684.30 160.76,-686.33 161.65,-688.26 162.43,-689.43 163.41,-690.46 164.54,-691.30 165.82,-691.90 167.18,-692.27 168.59,-692.43 170.71,-692.34 171.41,-692.25"/>
    </edge>
    <edge id=":40_0" function="internal">
        <lane id=":40_0_0" index="0" disallow="pedestrian tram rail_urban rail rail_electric rail_fast ship" speed="36.11" length="16.19" width="3.50" shape="178.46,-621.28 175.47,-608.41 174.84,-605.50"/>
    </edge>
    <edge id=":40_1" function="internal">
        <lane id=":40_1_0" index="0" disallow="pedestrian tram rail_urban rail rail_electric rail_fast ship" speed="8.51" length="16.34" width="3.50" shape="178.47,-621.28 177.83,-619.22 176.94,-617.29 176.16,-616.11 175.19,-615.07 174.05,-614.23 172.77,-613.63 171.39,-613.29 169.98,-613.19 167.86,-613.39 166.47,-613.70"/>
    </edge>
    <edge id=":40_2" function="internal">
        <lane id=":40_2_0" index="0" disallow="pedestrian tram rail_urban rail rail_electric rail_fast ship" speed="7.01" length="10.70" width="3.50" shape="167.37,-617.08 168.33,-616.87 169.81,-616.72 170.69,-616.79 171.51,-616.99 172.25,-617.34 172.91,-617.85 173.50,-618.49 173.99,-619.25 174.61,-620.62 175.07,-622.12"/>
    </edge>
    <edge id=":40_3" function="internal">
        <lane id=":40_3_0" index="0" disallow="pedestrian tram rail_urban rail rail_electric rail_fast ship" speed="8.54" length="15.51" width="3.50" shape="167.37,-617.08 168.05,-616.88 169.89,-616.17 171.66,-615.13 172.79,-614.17 173.73,-613.02 174.45,-611.70 174.90,-610.28 175.10,-608.86 175.10,-607.44 174.84,-605.50"/>
    </edge>
    <edge id=":40_4" function="internal">
        <lane id=":40_4_0" index="0" disallow="pedestrian tram rail_urban rail rail_electric rail_fast ship" speed="7.03" length="10.17" width="3.50" shape="171.41,-606.18 171.59,-607.55 171.59,-608.48 171.45,-609.39 171.17,-610.27 170.72,-611.08 170.12,-611.79 169.42,-612.38 168.21,-613.07 166.92,-613.57 166.47,-613.70"/>
    </edge>
    <edge id=":40_5" function="internal">
        <lane id=":40_5_0" index="0" disallow="pedestrian tram rail_urban rail rail_electric rail_fast ship" speed="36.11" length="16.36" width="3.50" shape="171.41,-606.18 172.05,-609.17 175.07,-622.12"/>
    </edge>
    <edge id=":41_0" function="internal">
        <lane id=":41_0_0" index="0" disallow="pedestrian tram rail_urban rail rail_electric rail_fast ship" speed="36.11" length="15.87" width="3.50" shape="140.12,-545.31 130.36,-545.13 124.26,-544.78"/>
    </edge>
    <edge id=":41_1" function="internal">
        <lane id=":41_1_0" index="0" disallow="pedestrian tram rail_urban rail rail_electric rail_fast ship" speed="8.27" length="17.34" width="3.50" shape="140.12,-545.31 138.71,-545.37 136.62,-545.73 135.14,-546.26 133.76,-547.09 132.55,-548.28 131.71,-549.66 131.18,-551.18 130.95,-552.69 130.97,-554.80 131.24,-556.85"/>
    </edge>
    <edge id=":41_2" function="internal">
        <lane id=":41_2_0" index="0" disallow="pedestrian tram rail_urban rail rail_electric rail_fast ship" speed="6.73" length="11.02" width="3.50" shape="134.68,-556.19 134.49,-554.77 134.47,-553.32 134.60,-552.37 134.89,-551.46 135.38,-550.63 136.04,-549.94 136.86,-549.44 137.76,-549.10 139.18,-548.85 140.12,-548.81"/>
    </edge>
    <edge id=":41_3" function="internal">
        <lane id=":41_3_0" index="0" disallow="pedestrian tram rail_urban rail rail_electric rail_fast ship" speed="9.66" length="16.77" width="3.50" shape="134.68,-556.19 133.88,-553.07 132.89,-550.68 131.90,-549.02 130.65,-547.55 129.14,-546.34 127.41,-545.47 125.55,-544.95 124.26,-544.78"/>
    </edge>
    <edge id=":41_4" function="internal">
        <lane id=":41_4_0" index="0" disallow="pedestrian tram rail_urban rail rail_electric rail_fast ship" speed="8.32" length="12.21" width="3.50" shape="123.98,-548.27 124.86,-548.38 126.17,-548.75 127.32,-549.36 128.33,-550.22 129.19,-551.29 129.89,-552.52 130.62,-554.37 131.24,-556.85"/>
    </edge>
    <edge id=":41_5" function="internal">
        <lane id=":41_5_0" index="0" disallow="pedestrian tram rail_urban rail rail_electric rail_fast ship" speed="36.11" length="16.15" width="3.50" shape="123.98,-548.27 130.24,-548.62 140.12,-548.81"/>
    </edge>

    <edge id="396" from="40" to="20" priority="3" type="highway.residential" spreadType="center" length="27.84" shape="170.58,-614.77 181.75,-649.15">
        <lane id="396_0" index="0" disallow="pedestrian tram rail_urban rail rail_electric rail_fast ship" speed="36.11" length="27.84" width="3.50" customShape="1" shape="175.07,-622.12 178.40,-635.62 181.75,-649.15"/>
    </edge>
    <edge id="397" from="28" to="40" priority="3" type="highway.residential" spreadType="center" length="27.87" shape="185.14,-648.31 173.91,-613.69">
        <lane id="397_0" index="0" disallow="pedestrian tram rail_urban rail rail_electric rail_fast ship" speed="36.11" length="27.87" width="3.50" customShape="1" shape="185.14,-648.31 181.80,-634.78 178.46,-621.25"/>
    </edge>
    <edge id="399" from="32" to="40" priority="3" type="highway.residential" spreadType="center" length="15.35" shape="168.27,-591.20 170.55,-614.60">
        <lane id="399_0" index="0" disallow="pedestrian tram rail_urban rail rail_electric rail_fast ship" speed="36.11" length="15.35" width="3.50" customShape="1" shape="168.27,-591.20 169.84,-598.69 171.42,-606.22"/>
    </edge>
    <edge id="400" from="40" to="2" priority="3" type="highway.residential" spreadType="center" length="15.33" shape="174.02,-614.26 171.70,-590.49">
        <lane id="400_0" index="0" disallow="pedestrian tram rail_urban rail rail_electric rail_fast ship" speed="36.11" length="15.33" width="3.50" customShape="1" shape="174.84,-605.50 173.27,-597.97 171.70,-590.49"/>
    </edge>
    <edge id="402" from="37" to="40" priority="3" type="highway.residential" spreadType="center" length="12.06" shape="150.24,-621.82 172.83,-615.96">
        <lane id="402_0" index="0" disallow="pedestrian tram rail_urban rail rail_electric rail_fast ship" speed="36.11" length="12.06" width="3.50" customShape="1" shape="155.73,-620.20 161.56,-618.64 167.38,-617.08"/>
    </edge>
    <edge id="403" from="40" to="37" priority="3" type="highway.residential" spreadType="center" length="12.07" shape="171.96,-612.58 149.36,-618.43">
        <lane id="403_0" index="0" disallow="pedestrian tram rail_urban rail rail_electric rail_fast ship" speed="36.11" length="12.07" width="3.50" customShape="1" shape="166.47,-613.70 160.65,-615.26 154.81,-616.82"/>
    </edge>
    <edge id="55" from="37" to="38" priority="3" type="highway.residential" spreadType="center" length="56.38" shape="148.09,-620.49 162.78,-689.16">
        <lane id="55_0" index="0" disallow="pedestrian tram rail_urban rail rail_electric rail_fast ship" speed="36.11" length="56.38" width="3.49" customShape="1" shape="147.27,-629.41 153.71,-656.87 160.15,-684.30"/>
    </edge>
    <edge id="56" from="38" to="37" priority="3" type="highway.residential" spreadType="center" length="56.38" shape="166.20,-688.43 151.51,-619.76">
        <lane id="56_0" index="0" disallow="pedestrian tram rail_urban rail rail_electric rail_fast ship" speed="36.11" length="56.38" width="3.50" customShape="1" shape="163.55,-683.50 157.12,-656.07 150.68,-628.61"/>
    </edge>
    <edge id="58" from="41" to="37" priority="3" type="highway.residential" spreadType="center" length="57.74" shape="130.69,-550.42 148.10,-620.55">
        <lane id="58_0" index="0" disallow="pedestrian tram rail_urban rail rail_electric rail_fast ship" speed="36.11" length="57.74" width="3.50" customShape="1" shape="131.24,-556.85 134.60,-574.26 137.86,-589.66 143.45,-613.27"/>
    </edge>
    <edge id="59" from="37" to="41" priority="3" type="highway.residential" spreadType="center" length="57.54" shape="151.50,-619.71 134.08,-549.57">
        <lane id="59_0" index="0" disallow="pedestrian tram rail_urban rail rail_electric rail_fast ship" speed="36.11" length="57.54" width="3.50" customShape="1" shape="146.85,-612.42 141.27,-588.89 138.03,-573.57 134.68,-556.19"/>
    </edge>
    <edge id="64" from="41" to="24" priority="3" type="highway.residential" spreadType="center" length="33.03" shape="132.45,-551.78 173.15,-548.81">
        <lane id="64_0" index="0" disallow="pedestrian tram rail_urban rail rail_electric rail_fast ship" speed="36.11" length="33.03" width="3.50" customShape="1" shape="140.12,-548.81 156.65,-548.81 173.15,-548.81"/>
    </edge>
    <edge id="65" from="30" to="41" priority="3" type="highway.residential" spreadType="center" length="33.01" shape="173.12,-545.31 132.20,-548.30">
        <lane id="65_0" index="0" disallow="pedestrian tram rail_urban rail rail_electric rail_fast ship" speed="36.11" length="33.01" width="3.50" customShape="1" shape="173.12,-545.31 156.65,-545.31 140.11,-545.31"/>
    </edge>
    <edge id="67" from="34" to="41" priority="3" type="highway.residential" spreadType="center" length="70.02" shape="54.18,-543.00 132.24,-551.78">
        <lane id="67_0" index="0" disallow="pedestrian tram rail_urban rail rail_electric rail_fast ship" speed="36.11" length="70.02" width="3.50" customShape="1" shape="54.18,-543.00 83.76,-545.23 124.00,-548.27"/>
    </edge>
    <edge id="68" from="41" to="9" priority="3" type="highway.residential" spreadType="center" length="70.00" shape="132.63,-548.30 54.46,-539.51">
        <lane id="68_0" index="0" disallow="pedestrian tram rail_urban rail rail_electric rail_fast ship" speed="36.11" length="70.00" width="3.50" customShape="1" shape="124.26,-544.78 84.03,-541.74 54.46,-539.51"/>
    </edge>
    <edge id="74" from="21" to="38" priority="3" type="highway.residential" spreadType="center" length="5.84" shape="151.06,-695.97 165.31,-690.29">
        <lane id="74_0" index="0" disallow="pedestrian tram rail_urban rail rail_electric rail_fast ship" speed="36.11" length="5.84" width="3.48" customShape="1" shape="151.06,-695.97 155.98,-695.03 156.07,-695.01 156.17,-694.99 156.27,-694.97 156.80,-694.87"/>
    </edge>
    <edge id="76" from="29" to="38" priority="3" type="highway.residential" spreadType="center" length="34.22" shape="204.62,-683.28 164.25,-687.02">
        <lane id="76_0" index="0" disallow="pedestrian tram rail_urban rail rail_electric rail_fast ship" speed="36.11" length="34.22" width="3.50" customShape="1" shape="204.62,-683.28 187.71,-686.04 170.85,-688.79"/>
    </edge>
    <edge id="77" from="38" to="7" priority="3" type="highway.residential" spreadType="center" length="34.18" shape="164.57,-690.50 205.14,-686.74">
        <lane id="77_0" index="0" disallow="pedestrian tram rail_urban rail rail_electric rail_fast ship" speed="36.11" length="34.18" width="3.50" customShape="1" shape="171.41,-692.25 188.27,-689.49 205.14,-686.74"/>
    </edge>
    <edge id="864" from="38" to="39" priority="3" type="highway.residential" spreadType="center" length="16.73" shape="163.96,-687.09 155.76,-691.51">
        <lane id="864_0" index="0" disallow="pedestrian tram rail_urban rail rail_electric rail_fast ship" speed="36.11" length="16.73" width="3.49" customShape="1" shape="153.40,-690.32 160.37,-685.67 160.42,-686.60 160.33,-687.53 160.09,-688.42 159.67,-689.25 159.08,-689.97 158.35,-690.53 157.53,-690.97 156.20,-691.41 155.76,-691.51"/>
    </edge>
    <edge id="891" from="38" to="39" priority="3" type="highway.residential" spreadType="center" length="0.43">
        <lane id="891_0" index="0" disallow="pedestrian tram rail_urban rail rail_electric rail_fast ship" speed="36.11" length="0.43" width="3.50" customShape="1" shape="156.18,-691.43 155.76,-691.51"/>
    </edge>

    <junction id="2" type="dead_end" x="171.70" y="-590.49" incLanes="400_0" intLanes="" shape="173.41,-590.13 169.98,-590.84" rightOfWay="edgePriority"/>
    <junction id="20" type="dead_end" x="181.75" y="-649.15" incLanes="396_0" intLanes="" shape="180.05,-649.57 183.44,-648.73" rightOfWay="edgePriority"/>
    <junction id="21" type="dead_end" x="151.06" y="-695.97" incLanes="" intLanes="" shape="150.74,-694.26 151.39,-697.68" rightOfWay="edgePriority"/>
    <junction id="24" type="dead_end" x="173.15" y="-548.81" incLanes="64_0" intLanes="" shape="173.15,-550.56 173.15,-547.06" rightOfWay="edgePriority"/>
    <junction id="28" type="dead_end" x="185.14" y="-648.31" incLanes="" intLanes="" shape="183.45,-648.73 186.84,-647.89" rightOfWay="edgePriority"/>
    <junction id="29" type="dead_end" x="204.62" y="-683.28" incLanes="" intLanes="" shape="204.90,-685.01 204.33,-681.55" rightOfWay="edgePriority"/>
    <junction id="30" type="dead_end" x="173.12" y="-545.31" incLanes="" intLanes="" shape="173.12,-547.06 173.12,-543.56" rightOfWay="edgePriority"/>
    <junction id="32" type="dead_end" x="168.27" y="-591.20" incLanes="" intLanes="" shape="169.98,-590.84 166.56,-591.56" rightOfWay="edgePriority"/>
    <junction id="34" type="dead_end" x="54.18" y="-543.00" incLanes="" intLanes="" shape="54.31,-541.25 54.04,-544.74" rightOfWay="edgePriority"/>
    <junction id="37" type="priority" x="149.80" y="-620.13" incLanes="403_0 56_0 58_0" intLanes=":37_0_0 :37_1_0 :37_2_0 :37_3_0 :37_4_0 :37_5_0" shape="154.37,-615.13 156.18,-621.89 153.55,-623.19 152.74,-624.14 152.28,-625.29 152.16,-626.65 152.38,-628.21 145.57,-629.81 141.74,-613.62 148.55,-612.01 149.66,-614.32 150.53,-614.99 151.60,-615.36 152.88,-615.40">
        <request index="0" response="001000" foes="001000" cont="0"/>
        <request index="1" response="111000" foes="111000" cont="0"/>
        <request index="2" response="000000" foes="100000" cont="0"/>
        <request index="3" response="000000" foes="100011" cont="0"/>
        <request index="4" response="000000" foes="000010" cont="0"/>
        <request index="5" response="001100" foes="001110" cont="0"/>
    </junction>
    <junction id="38" type="priority" x="164.48" y="-688.75" incLanes="76_0 74_0 55_0" intLanes=":38_0_0 :38_1_0 :38_2_0 :38_3_0 :38_4_0 :38_5_0" shape="170.57,-687.06 171.69,-693.97 157.11,-696.58 155.86,-689.71 152.43,-688.87 154.37,-691.78 158.45,-684.70 165.26,-683.10 166.33,-685.61 167.13,-686.42 168.10,-686.93 169.25,-687.15">
        <request index="0" response="000000" foes="001000" cont="0"/>
        <request index="1" response="000000" foes="101000" cont="0"/>
        <request index="2" response="000000" foes="100000" cont="0"/>
        <request index="3" response="000011" foes="100011" cont="0"/>
        <request index="4" response="000000" foes="000000" cont="0"/>
        <request index="5" response="001110" foes="001110" cont="0"/>
    </junction>
    <junction id="39" type="dead_end" x="155.76" y="-691.51" incLanes="864_0 891_0" intLanes="" shape="155.36,-689.81 156.16,-693.21 155.45,-689.79 156.07,-693.23"/>
    <junction id="40" type="priority" x="172.27" y="-614.31" incLanes="397_0 402_0 399_0" intLanes=":40_0_0 :40_1_0 :40_2_0 :40_3_0 :40_4_0 :40_5_0" shape="180.16,-620.86 173.37,-622.54 172.21,-619.93 171.38,-619.13 170.37,-618.67 169.19,-618.55 167.83,-618.77 166.02,-612.01 168.46,-610.86 169.23,-610.04 169.69,-609.05 169.85,-607.90 169.71,-606.58 176.56,-605.15">
        <request index="0" response="000000" foes="001000" cont="0"/>
        <request index="1" response="110000" foes="111000" cont="0"/>
        <request index="2" response="100000" foes="100000" cont="0"/>
        <request index="3" response="100011" foes="100011" cont="0"/>
        <request index="4" response="000000" foes="000010" cont="0"/>
        <request index="5" response="000000" foes="001110" cont="0"/>
    </junction>
    <junction id="41" type="priority" x="132.40" y="-550.04" incLanes="65_0 59_0 67_0" intLanes=":41_0_0 :41_1_0 :41_2_0 :41_3_0 :41_4_0 :41_5_0" shape="140.12,-543.56 140.12,-550.56 137.60,-551.15 136.82,-551.88 136.35,-552.91 136.21,-554.24 136.39,-555.86 129.52,-557.18 129.00,-555.08 128.31,-553.35 127.45,-551.97 126.43,-550.96 125.23,-550.31 123.87,-550.02 124.40,-543.04">
        <request index="0" response="000000" foes="001000" cont="0"/>
        <request index="1" response="110000" foes="111000" cont="0"/>
        <request index="2" response="100000" foes="100000" cont="0"/>
        <request index="3" response="100011" foes="100011" cont="0"/>
        <request index="4" response="000000" foes="000010" cont="0"/>
        <request index="5" response="000000" foes="001110" cont="0"/>
    </junction>
    <junction id="7" type="dead_end" x="205.14" y="-686.74" incLanes="77_0" intLanes="" shape="205.42,-688.47 204.86,-685.01" rightOfWay="edgePriority"/>
    <junction id="9" type="dead_end" x="54.46" y="-539.51" incLanes="68_0" intLanes="" shape="54.59,-537.76 54.33,-541.25" rightOfWay="edgePriority"/>

    <connection from="397" to="400" fromLane="0" toLane="0" contPos="-4.00" shape="178.46,-621.25 175.47,-608.41 174.84,-605.50" via=":40_0_0" dir="s" state="M"/>
    <connection from="397" to="403" fromLane="0" toLane="0" contPos="-4.00" shape="178.46,-621.25 177.83,-619.22 176.94,-617.29 176.16,-616.11 175.19,-615.07 174.05,-614.23 172.77,-613.63 171.39,-613.29 169.98,-613.19 167.86,-613.39 166.47,-613.70" via=":40_1_0" dir="l" state="m"/>
    <connection from="399" to="403" fromLane="0" toLane="0" contPos="-4.00" shape="171.41,-606.18 171.59,-607.55 171.59,-608.48 171.45,-609.39 171.17,-610.27 170.72,-611.08 170.12,-611.79 169.42,-612.38 168.21,-613.07 166.92,-613.57 166.47,-613.70" via=":40_4_0" dir="r" state="M"/>
    <connection from="399" to="396" fromLane="0" toLane="0" contPos="-4.00" shape="171.41,-606.18 172.05,-609.17 175.07,-622.12" via=":40_5_0" dir="s" state="M"/>
    <connection from="402" to="396" fromLane="0" toLane="0" contPos="-4.00" shape="167.37,-617.08 168.33,-616.87 169.81,-616.72 170.69,-616.79 171.51,-616.99 172.25,-617.34 172.91,-617.85 173.50,-618.49 173.99,-619.25 174.61,-620.62 175.07,-622.12" via=":40_2_0" dir="r" state="m"/>
    <connection from="402" to="400" fromLane="0" toLane="0" contPos="-4.00" shape="167.37,-617.08 168.05,-616.88 169.89,-616.17 171.66,-615.13 172.79,-614.17 173.73,-613.02 174.45,-611.70 174.90,-610.28 175.10,-608.86 175.10,-607.44 174.84,-605.50" via=":40_3_0" dir="l" state="m"/>
    <connection from="403" to="59" fromLane="0" toLane="0" contPos="-4.00" shape="154.81,-616.82 154.27,-616.96 153.72,-617.07 153.17,-617.16 152.62,-617.22 152.06,-617.24 151.50,-617.23 150.94,-617.17 150.40,-617.05 149.87,-616.86 149.37,-616.61 148.91,-616.29 148.51,-615.91 148.15,-615.48 147.84,-615.01 147.58,-614.52 147.35,-614.01 147.15,-613.49 146.99,-612.95 146.85,-612.42" via=":37_0_0" dir="r" state="m"/>
    <connection from="403" to="55" fromLane="0" toLane="0" contPos="-4.00" shape="154.81,-616.82 153.56,-617.22 151.73,-618.02 150.02,-619.15 148.95,-620.17 148.09,-621.37 147.45,-622.69 147.06,-624.09 146.88,-625.50 146.95,-627.51 147.27,-629.41" via=":37_1_0" dir="l" state="m"/>
    <connection from="55" to="864" fromLane="0" toLane="0" contPos="-4.00" via=":38_4_0" dir="r" state="M"/>
    <connection from="55" to="77" fromLane="0" toLane="0" contPos="-4.00" shape="160.15,-684.30 160.76,-686.33 161.65,-688.26 162.43,-689.43 163.41,-690.46 164.54,-691.30 165.82,-691.90 167.18,-692.27 168.59,-692.43 170.71,-692.34 171.41,-692.25" via=":38_5_0" dir="l" state="m"/>
    <connection from="56" to="402" fromLane="0" toLane="0" contPos="-4.00" shape="150.68,-628.65 150.45,-627.27 150.40,-625.87 150.52,-624.95 150.76,-624.05 151.17,-623.21 151.72,-622.45 152.39,-621.81 153.56,-621.04 154.84,-620.48 155.73,-620.20" via=":37_2_0" dir="r" state="M"/>
    <connection from="56" to="59" fromLane="0" toLane="0" contPos="-4.00" shape="150.68,-628.65 148.77,-620.55 146.85,-612.42" via=":37_3_0" dir="s" state="M"/>
    <connection from="58" to="55" fromLane="0" toLane="0" contPos="-4.00" shape="143.45,-613.27 145.37,-621.36 147.27,-629.41" via=":37_4_0" dir="s" state="M"/>
    <connection from="58" to="402" fromLane="0" toLane="0" contPos="-4.00" shape="143.45,-613.27 144.09,-615.30 145.03,-617.19 145.87,-618.33 146.91,-619.29 148.11,-620.02 149.44,-620.50 150.83,-620.74 152.95,-620.72 155.04,-620.37 155.73,-620.20" via=":37_5_0" dir="l" state="m"/>