<!-- generated on 2020-12-18 15:42:55.239530 by ipykernel_launcher.py v1_2_0+5214-53edc58fcd
-->
<nodes>
	<node id="1" type="from" x="-0.5858634949999999" y="5.67975365"/>
	<node id="2" type="to" x="146.38103" y="4.00691645"/>
	<node id="3" type="from" x="-180.976385" y="6.9567166"/>
	<node id="4" type="to" x="-21.350579500000002" y="7.475293775000001"/>
</nodes>
