<routes>
	<vehicle depart="0.1" departLane="1" departPos="0" departSpeed="11.595134" id="1" type="passenger">
		<route edges="26 28 24"/>
	</vehicle>
	<vehicle depart="0.1" departLane="0" departPos="0" departSpeed="15.88408" id="2" type="passenger">
		<route edges="26 27 24"/>
	</vehicle>
	<vehicle depart="0.1" departLane="0" departPos="84.11576315541036" departSpeed="15.884067" id="3" type="passenger">
		<route edges="26 27 24"/>
	</vehicle>
</routes>
