<routes>
	<vehicle depart="0.1" departLane="0" departPos="23.0" departSpeed="0.0" id="2" type="passenger">
		<route edges="9"/>
	</vehicle>
	<vehicle depart="0.1" departLane="0" departPos="17.0" departSpeed="0.0" id="3" type="passenger">
		<route edges="9"/>
	</vehicle>
	<vehicle depart="0.1" departLane="0" departPos="13.0" departSpeed="0.0" id="4" type="passenger">
		<route edges="9"/>
	</vehicle>
	<vehicle depart="0.1" departLane="0" departPos="23.0" departSpeed="0.0" id="5" type="passenger">
		<route edges="10"/>
	</vehicle>
	<vehicle depart="0.1" departLane="0" departPos="13.0" departSpeed="0.0" id="6" type="passenger">
		<route edges="10"/>
	</vehicle>
	<vehicle depart="0.1" departLane="0" departPos="17.0" departSpeed="0.0" id="7" type="passenger">
		<route edges="10"/>
	</vehicle>
</routes>
