<routes>
	<vehicle depart="0.1" departLane="0" departPos="12.47524952377414" departSpeed="7.2658809" id="37" type="bicycle">
		<route edges=":69_2 32990 33917"/>
	</vehicle>
	<vehicle depart="0.1" departLane="0" departPos="29.940490837867753" departSpeed="7.1073389" id="31" type="passenger">
		<route edges=":71_3 33180 33202"/>
	</vehicle>
	<vehicle depart="0.1" departLane="0" departPos="28.87407487948153" departSpeed="1.6027721" id="314" type="passenger">
		<route edges="33043 33176"/>
	</vehicle>
	<vehicle depart="0.1" departLane="0" departPos="18.713209115462856" departSpeed="1.9754756" id="315" type="passenger">
		<route edges="33043 33176"/>
	</vehicle>
	<vehicle depart="0.1" departLane="0" departPos="10.986850080575795" departSpeed="0.35385033" id="317" type="passenger">
		<route edges=":71_2 33176"/>
	</vehicle>
	<vehicle depart="0.1" departLane="0" departPos="6.726677379039619" departSpeed="1.6322373" id="320" type="passenger">
		<route edges=":71_0 33180"/>
	</vehicle>
	<vehicle depart="0.1" departLane="0" departPos="11.026600104948976" departSpeed="1.5843908" id="351" type="passenger">
		<route edges="33043 33176"/>
	</vehicle>
	<vehicle depart="0.1" departLane="0" departPos="3.536763733855238" departSpeed="0.0072323854" id="359" type="motorcycle">
		<route edges="33043 33176"/>
	</vehicle>
</routes>
