<routes>
	<vehicle depart="0.1" departLane="0" departPos="8.637017127537435" departSpeed="0.34820477" id="32" type="passenger">
		<route edges=":47_3 34914"/>
	</vehicle>
	<vehicle depart="0.1" departLane="0" departPos="2.5" departSpeed="6.8362233" id="327" type="passenger">
		<route edges="34741 34782"/>
	</vehicle>
	<vehicle depart="0.1" departLane="0" departPos="22.58405189468621" departSpeed="15.487811" id="344" type="passenger">
		<route edges=":47_1 34741 34782"/>
	</vehicle>
	<vehicle depart="0.1" departLane="0" departPos="5.231324273912788" departSpeed="10.897581" id="347" type="passenger">
		<route edges=":47_0 34914 34917"/>
	</vehicle>
	<vehicle depart="0.1" departLane="0" departPos="34.0560996977918" departSpeed="9.1591057" id="354" type="passenger">
		<route edges=":49_0 34744 34914"/>
	</vehicle>
	<vehicle depart="0.1" departLane="0" departPos="6.7545678119282435" departSpeed="2.7759412" id="30" type="truck">
		<route edges=":47_5 34745"/>
	</vehicle>
	<vehicle depart="0.1" departLane="0" departPos="25.422316071344376" departSpeed="0.43651709" id="31" type="truck">
		<route edges="34781 34738"/>
	</vehicle>
</routes>
