<routes>
	<vehicle depart="0.1" departLane="0" departPos="24.70706228121944" departSpeed="2.2277219" id="35" type="passenger">
		<route edges=":67_2 4587 4705"/>
	</vehicle>
	<vehicle depart="0.1" departLane="0" departPos="15.006844630266796" departSpeed="0.13819311" id="311" type="passenger">
		<route edges=":67_2 4587"/>
	</vehicle>
	<vehicle depart="0.1" departLane="0" departPos="15.128179013771524" departSpeed="11.818028" id="312" type="passenger">
		<route edges=":61_4 4586 4557"/>
	</vehicle>
	<vehicle depart="0.1" departLane="0" departPos="48.346206655942645" departSpeed="2.4491818" id="314" type="passenger">
		<route edges="4556 4583"/>
	</vehicle>
	<vehicle depart="0.1" departLane="0" departPos="37.736786908933425" departSpeed="2.3117939" id="315" type="passenger">
		<route edges="4556 4583"/>
	</vehicle>
	<vehicle depart="0.1" departLane="0" departPos="10.032748148782554" departSpeed="12.405549" id="332" type="passenger">
		<route edges="4557"/>
	</vehicle>
	<vehicle depart="0.1" departLane="0" departPos="69.06631617839787" departSpeed="0.0" id="337" type="passenger">
		<route edges="4584 4587"/>
	</vehicle>
	<vehicle depart="0.1" departLane="0" departPos="53.95135079988827" departSpeed="2.220065" id="339" type="passenger">
		<route edges="4556 4583"/>
	</vehicle>
	<vehicle depart="0.1" departLane="0" departPos="61.561944415711395" departSpeed="0.0034166018" id="340" type="passenger">
		<route edges="4584 4587"/>
	</vehicle>
	<vehicle depart="0.1" departLane="0" departPos="54.030996503186344" departSpeed="0.032389636" id="346" type="passenger">
		<route edges="4584 4587"/>
	</vehicle>
</routes>
