<routes>
	<vehicle depart="0.1" departLane="0" departPos="45.59543175753566" departSpeed="1.0513255" id="34" type="passenger">
		<route edges="77638 77641"/>
	</vehicle>
	<vehicle depart="0.1" departLane="0" departPos="9.229691682737661" departSpeed="0.22182712" id="38" type="passenger">
		<route edges="77638 77641"/>
	</vehicle>
	<vehicle depart="0.1" departLane="0" departPos="7.600128933217773" departSpeed="1.3774883" id="315" type="passenger">
		<route edges=":31_0 77641"/>
	</vehicle>
	<vehicle depart="0.1" departLane="0" departPos="62.73268769409676" departSpeed="1.3063752" id="318" type="passenger">
		<route edges="77638 77641"/>
	</vehicle>
	<vehicle depart="0.1" departLane="0" departPos="69.92269123628346" departSpeed="0.0" id="319" type="passenger">
		<route edges="77220 77641"/>
	</vehicle>
	<vehicle depart="0.1" departLane="0" departPos="62.42178518584684" departSpeed="0.0" id="321" type="passenger">
		<route edges="77220 77641"/>
	</vehicle>
	<vehicle depart="0.1" departLane="0" departPos="5.7738423677981086" departSpeed="15.111356" id="327" type="passenger">
		<route edges=":31_4 77219"/>
	</vehicle>
	<vehicle depart="0.1" departLane="0" departPos="32.05277805028232" departSpeed="1.1130544" id="33" type="motorcycle">
		<route edges="77638 77641"/>
	</vehicle>
</routes>
