<routes>
	<vehicle depart="0.1" departLane="0" departPos="0" departSpeed="14.0" id="200" type="passenger">
		<route edges="50217 50199"/>
	</vehicle>
	<vehicle depart="0.1" departLane="0" departPos="150.61165914700072" departSpeed="14.0" id="201" type="passenger">
		<route edges="50205 50217 50199"/>
	</vehicle>
	<vehicle depart="0.1" departLane="0" departPos="0" departSpeed="12.0" id="202" type="passenger">
		<route edges="50215 50203"/>
	</vehicle>
</routes>
