<!-- generated on 2020-12-18 15:59:19.604587 by ipykernel_launcher.py v1_2_0+5214-53edc58fcd
-->
<edges>
	<edge from="1" function="normal" id="3498" length="9.586095898357163" numLanes="1" priority="1" speed="36.11111111111111" spreadType="center" to="2">
		<lane allow="moped bicycle pedestrian custom1 trailer evehicle rail_urban ship private truck vip custom2 authority delivery rail_electric taxi tram army hov coach motorcycle passenger bus rail emergency" index="0" length="9.586095898357163" shape="62.55955,50.207 52.9788,50.5271" speed="36.11111111111111" width="4.771086938004798"/>
	</edge>
	<edge from="2" function="normal" id="3716" length="18.680147901632274" numLanes="1" priority="1" speed="36.11111111111111" spreadType="center" to="3">
		<lane allow="moped bicycle pedestrian custom1 trailer evehicle rail_urban ship private vip custom2 authority delivery rail_electric taxi tram army hov coach motorcycle passenger rail emergency" index="0" length="18.680147901632274" shape="52.9788,50.5271 48.99495,51.968500000000006 46.13935,54.471149999999994 45.08785,56.86125 44.3852,58.8895 44.5302,62.0345 45.52135,64.58945" speed="36.11111111111111" width="3.353872355949167"/>
	</edge>
	<edge from="4" function="normal" id="3509" length="15.63298084853255" numLanes="3" priority="1" speed="36.11111111111111" spreadType="center" to="5">
		<lane allow="moped bicycle pedestrian custom1 trailer evehicle rail_urban ship private truck vip custom2 authority delivery rail_electric taxi tram army hov coach motorcycle passenger bus rail emergency" index="0" length="15.63298084853255" shape="-48.2335,-14.812349999999999 -43.8373,-16.9932 -34.22685,-21.77675" speed="36.11111111111111" width="3.2317602711216042"/>
		<lane allow="moped bicycle pedestrian custom1 trailer evehicle rail_urban ship private truck vip custom2 authority delivery rail_electric taxi tram army hov coach motorcycle passenger bus rail emergency" index="1" length="15.63298084853255" shape="-46.84395,-12.0113 -42.406549999999996,-14.2126 -32.79605,-18.99615" speed="36.11111111111111" width="3.0217924167619463"/>
		<lane allow="moped bicycle pedestrian custom1 trailer evehicle rail_urban ship private truck vip custom2 authority delivery rail_electric taxi tram army hov coach motorcycle passenger bus rail emergency" index="2" length="15.63298084853255" shape="-45.4928,-9.28765 -41.0002,-11.516300000000001 -31.4893,-16.2369" speed="36.11111111111111" width="3.0589561046213136"/>
	</edge>
	<edge from="5" function="normal" id="3672" length="43.429643178518916" numLanes="1" priority="1" speed="36.11111111111111" spreadType="center" to="6">
		<lane allow="moped bicycle pedestrian custom1 trailer evehicle rail_urban ship private vip custom2 authority delivery rail_electric taxi tram army hov coach motorcycle passenger rail emergency" index="0" length="43.429643178518916" shape="-31.4893,-16.2369 -26.3321,-18.777250000000002 -22.749299999999998,-20.26175 -18.90345,-21.6204 -16.12275,-22.5907 -13.636800000000001,-23.08755 -11.40195,-23.299950000000003 -9.06575,-23.182949999999998 -7.421250000000001,-23.04855 -6.3118,-22.7923 -5.37205,-22.2093 -4.4528,-20.859099999999998 -3.2971000000000004,-18.93075 -0.62965,-14.6933 0.9440999999999999,-11.64155 2.41585,-8.5294" speed="36.11111111111111" width="2.9171821763475796"/>
	</edge>
	<edge from="6" function="normal" id="3456" length="24.710920579823167" numLanes="3" priority="1" speed="36.11111111111111" spreadType="center" to="7">
		<lane allow="moped bicycle pedestrian custom1 trailer evehicle rail_urban ship private truck vip custom2 authority delivery rail_electric taxi tram army hov coach motorcycle passenger bus rail emergency" index="0" length="24.710920579823167" shape="7.942500000000001,-11.2891 11.5383,-4.0955 15.39165,3.8216 18.7543,10.93" speed="36.11111111111111" width="3.047668597469219"/>
		<lane allow="moped bicycle pedestrian custom1 trailer evehicle rail_urban ship private truck vip custom2 authority delivery rail_electric taxi tram army hov coach motorcycle passenger bus rail emergency" index="1" length="24.710920579823167" shape="5.11365,-9.89485 8.97375,-2.32795 12.652000000000001,5.23765 16.09085,12.2681" speed="36.11111111111111" width="2.9148241130469597"/>
		<lane allow="moped bicycle pedestrian custom1 trailer evehicle rail_urban ship private truck vip custom2 authority delivery rail_electric taxi tram army hov coach motorcycle passenger bus rail emergency" index="2" length="24.710920579823167" shape="2.41585,-8.5294 6.34435,-0.7672 10.1328,6.93535 13.504349999999999,13.581949999999999" speed="36.11111111111111" width="2.888004380190585"/>
	</edge>
	<edge from="7" function="normal" id="3462" length="8.466645302154806" numLanes="3" priority="1" speed="36.11111111111111" spreadType="center" to="8">
		<lane allow="moped bicycle pedestrian custom1 trailer evehicle rail_urban ship private truck vip custom2 authority delivery rail_electric taxi tram army hov coach motorcycle passenger bus rail emergency" index="0" length="8.466645302154806" shape="18.7543,10.93 22.6336,18.49275" speed="36.11111111111111" width="3.047668597469219"/>
		<lane allow="moped bicycle pedestrian custom1 trailer evehicle rail_urban ship private truck vip custom2 authority delivery rail_electric taxi tram army hov coach motorcycle passenger bus rail emergency" index="1" length="8.466645302154806" shape="16.09085,12.2681 19.90895,19.8778" speed="36.11111111111111" width="2.9148241130469597"/>
		<lane allow="moped bicycle pedestrian custom1 trailer evehicle rail_urban ship private truck vip custom2 authority delivery rail_electric taxi tram army hov coach motorcycle passenger bus rail emergency" index="2" length="8.466645302154806" shape="13.504349999999999,13.581949999999999 17.245,21.17745" speed="36.11111111111111" width="2.888004380190585"/>
	</edge>
	<edge from="8" function="normal" id="3468" length="22.238196627283088" numLanes="3" priority="1" speed="36.11111111111111" spreadType="center" to="9">
		<lane allow="moped bicycle pedestrian custom1 trailer evehicle rail_urban ship private truck vip custom2 authority delivery rail_electric taxi tram army hov coach motorcycle passenger bus rail emergency" index="0" length="22.238196627283088" shape="22.6336,18.49275 27.232950000000002,27.7843 32.6096,38.4653" speed="36.11111111111111" width="3.0326639856733197"/>
		<lane allow="moped bicycle pedestrian custom1 trailer evehicle rail_urban ship private truck vip custom2 authority delivery rail_electric taxi tram army hov coach motorcycle passenger bus rail emergency" index="1" length="22.238196627283088" shape="19.90895,19.8778 24.5552,29.199550000000002 29.80705,39.805350000000004" speed="36.11111111111111" width="2.9980111023810427"/>
		<lane allow="moped bicycle pedestrian custom1 trailer evehicle rail_urban ship private truck vip custom2 authority delivery rail_electric taxi tram army hov coach motorcycle passenger bus rail emergency" index="2" length="22.238196627283088" shape="17.245,21.17745 21.86135,30.576500000000003 27.0507,41.13705" speed="36.11111111111111" width="2.9350875710956226"/>
	</edge>
	<edge from="9" function="normal" id="3713" length="29.142816807837445" numLanes="3" priority="1" speed="36.11111111111111" spreadType="center" to="10">
		<lane allow="moped bicycle pedestrian custom1 trailer evehicle rail_urban ship private truck vip custom2 authority delivery rail_electric taxi tram army hov coach motorcycle passenger bus rail emergency" index="0" length="29.142816807837445" shape="32.6096,38.4653 36.52575,46.45845 40.47235,54.405 44.228449999999995,62.015649999999994 45.401799999999994,64.6482" speed="36.11111111111111" width="3.157633506282831"/>
		<lane allow="moped bicycle pedestrian custom1 trailer evehicle rail_urban ship private truck vip custom2 authority delivery rail_electric taxi tram army hov coach motorcycle passenger rail emergency" index="1" length="29.142816807837445" shape="29.80705,39.805350000000004 33.244550000000004,46.74335 37.19105,54.689949999999996 41.3617,63.18725 42.646699999999996,66.0016" speed="36.11111111111111" width="2.9348672269797813"/>
		<lane allow="moped bicycle pedestrian custom1 trailer evehicle rail_urban ship private truck vip custom2 authority delivery rail_electric taxi tram army hov coach motorcycle passenger bus rail emergency" index="2" length="29.142816807837445" shape="27.0507,41.13705 29.8833,46.8371 33.71805,54.539 38.5566,64.35035 39.942750000000004,67.32985" speed="36.11111111111111" width="3.067322045367913"/>
	</edge>
	<edge from="5" function="normal" id="3636" length="10.13044496320374" numLanes="2" priority="1" speed="36.11111111111111" spreadType="center" to="11">
		<lane allow="moped bicycle pedestrian custom1 trailer evehicle rail_urban ship private truck vip custom2 authority delivery rail_electric taxi tram army hov coach motorcycle passenger bus rail emergency" index="0" length="10.13044496320374" shape="-34.22685,-21.77675 -25.21575,-26.4621" speed="36.11111111111111" width="3.2321866189934005"/>
		<lane allow="moped bicycle pedestrian custom1 trailer evehicle rail_urban ship private truck vip custom2 authority delivery rail_electric taxi tram army hov coach motorcycle passenger bus rail emergency" index="1" length="10.13044496320374" shape="-32.79605,-18.99615 -23.771349999999998,-23.598399999999998" speed="36.11111111111111" width="3.0254656269738045"/>
	</edge>
	<edge from="11" function="normal" id="3658" length="24.83401336288984" numLanes="2" priority="1" speed="36.11111111111111" spreadType="center" to="12">
		<lane allow="moped bicycle pedestrian custom1 trailer evehicle rail_urban ship private truck vip custom2 authority delivery rail_electric taxi tram army hov coach motorcycle passenger bus rail emergency" index="0" length="24.83401336288984" shape="-25.21575,-26.4621 -22.31995,-27.968 -19.664450000000002,-29.34875 -16.947499999999998,-30.76145 -13.9592,-32.315349999999995 -11.25755,-33.72025 -8.61285,-35.0954 -5.8972999999999995,-36.5074 -3.12555,-37.94865" speed="36.11111111111111" width="3.30890878840744"/>
		<lane allow="moped bicycle pedestrian custom1 trailer evehicle rail_urban ship private truck vip custom2 authority delivery rail_electric taxi tram army hov coach motorcycle passenger bus rail emergency" index="1" length="24.83401336288984" shape="-23.771349999999998,-23.598399999999998 -20.903350000000003,-25.061 -18.23235,-26.42305 -15.49405,-27.8194 -12.52945,-29.33115 -9.818999999999999,-30.7134 -7.16905,-32.06465 -4.4346,-33.45895 -1.6478,-34.8801" speed="36.11111111111111" width="3.1057834261261688"/>
	</edge>
	<edge from="12" function="normal" id="3676" length="16.155928389455166" numLanes="2" priority="1" speed="36.11111111111111" spreadType="center" to="13">
		<lane allow="moped bicycle pedestrian custom1 trailer evehicle rail_urban ship private truck vip custom2 authority delivery rail_electric taxi tram army hov coach motorcycle passenger bus rail emergency" index="0" length="16.155928389455166" shape="-3.12555,-37.94865 2.89415,-40.9549 11.3282,-45.1669" speed="36.11111111111111" width="3.5034549033775226"/>
		<lane allow="moped bicycle pedestrian custom1 trailer evehicle rail_urban ship private truck vip custom2 authority delivery rail_electric taxi tram army hov coach motorcycle passenger bus rail emergency" index="1" length="16.155928389455166" shape="-1.6478,-34.8801 4.37685,-37.8654 12.87305,-42.0753" speed="36.11111111111111" width="3.3082245268421513"/>
	</edge>
	<edge from="13" function="normal" id="3525" length="17.28043527267281" numLanes="3" priority="1" speed="36.11111111111111" spreadType="center" to="14">
		<lane allow="moped bicycle pedestrian custom1 trailer evehicle rail_urban ship private truck vip custom2 authority delivery rail_electric taxi tram army hov coach motorcycle passenger bus rail emergency" index="0" length="17.28043527267281" shape="9.70515,-48.495000000000005 18.432450000000003,-52.79005 25.22075,-56.13085" speed="36.11111111111111" width="3.873902747875843"/>
		<lane allow="moped bicycle pedestrian custom1 trailer evehicle rail_urban ship private truck vip custom2 authority delivery rail_electric taxi tram army hov coach motorcycle passenger bus rail emergency" index="1" length="17.28043527267281" shape="11.3282,-45.1669 20.05535,-49.46045 26.854599999999998,-52.8055" speed="36.11111111111111" width="3.511789538113012"/>
		<lane allow="moped bicycle pedestrian custom1 trailer evehicle rail_urban ship private truck vip custom2 authority delivery rail_electric taxi tram army hov coach motorcycle passenger bus rail emergency" index="2" length="17.28043527267281" shape="12.87305,-42.0753 21.55185,-46.343900000000005 28.3794,-49.702" speed="36.11111111111111" width="3.379496749517598"/>
	</edge>
	<edge from="5" function="normal" id="3600" length="24.197467511365527" numLanes="1" priority="1" speed="36.11111111111111" spreadType="center" to="15">
		<lane allow="moped bicycle pedestrian custom1 trailer evehicle rail_urban ship private vip custom2 authority delivery rail_electric taxi tram army hov coach motorcycle passenger rail emergency" index="0" length="24.197467511365527" shape="-34.22685,-21.77675 -29.73855,-24.1717 -27.74555,-25.361800000000002 -26.1425,-26.272399999999998 -25.3994,-26.75235 -24.9753,-27.33995 -24.939500000000002,-28.146900000000002 -25.3467,-29.558500000000002 -26.1476,-31.52465 -27.12805,-33.623000000000005 -29.920949999999998,-39.62495" speed="36.11111111111111" width="3.2321866189934005"/>
	</edge>
	<edge from="15" function="normal" id="3542" length="74.2461753523541" numLanes="3" priority="1" speed="36.11111111111111" spreadType="center" to="16">
		<lane allow="moped bicycle pedestrian custom1 trailer evehicle rail_urban ship private truck vip custom2 authority delivery rail_electric taxi tram army hov coach motorcycle passenger bus rail emergency" index="0" length="74.2461753523541" shape="-29.920949999999998,-39.62495 -34.08225,-48.163650000000004 -38.1355,-57.09365 -41.90755,-65.81215 -45.5323,-75.0561 -49.247299999999996,-84.11395 -52.93095,-93.14155 -56.614999999999995,-102.2 -58.90205,-107.99600000000001" speed="36.11111111111111" width="2.8235974571457607"/>
		<lane allow="moped bicycle pedestrian custom1 trailer evehicle rail_urban ship private truck vip custom2 authority delivery rail_electric taxi tram army hov coach motorcycle passenger bus rail emergency" index="1" length="74.2461753523541" shape="-27.0773,-41.117599999999996 -31.320700000000002,-49.672399999999996 -35.40285,-58.455799999999996 -39.1435,-67.144 -42.7975,-76.26429999999999 -46.450599999999994,-85.32315 -50.102050000000006,-94.25880000000001 -53.693349999999995,-103.3186 -56.084599999999995,-109.4423" speed="36.11111111111111" width="2.9693589611227558"/>
		<lane allow="moped bicycle pedestrian custom1 trailer evehicle rail_urban ship private truck vip custom2 authority delivery rail_electric taxi tram army hov coach motorcycle passenger bus rail emergency" index="2" length="74.2461753523541" shape="-24.42925,-42.50755 -28.652050000000003,-51.1875 -32.7024,-59.909800000000004 -36.47395,-68.5976 -39.9688,-77.39695 -43.6243,-86.62505 -47.27615,-95.59155000000001 -50.74295,-104.59145000000001 -53.2541,-110.89535000000001" speed="36.11111111111111" width="2.962201547835665"/>
	</edge>
	<edge from="17" function="normal" id="3532" length="13.634900230131372" numLanes="2" priority="1" speed="36.11111111111111" spreadType="center" to="18">
		<lane allow="moped bicycle pedestrian custom1 trailer evehicle rail_urban ship private truck vip custom2 authority delivery rail_electric taxi tram army hov coach motorcycle passenger bus rail emergency" index="0" length="13.634900230131372" shape="32.9251,-40.45015 25.992449999999998,-37.0613 20.648049999999998,-34.448750000000004" speed="36.11111111111111" width="3.6072313177837603"/>
		<lane allow="moped bicycle pedestrian custom1 trailer evehicle rail_urban ship private truck vip custom2 authority delivery rail_electric taxi tram army hov coach motorcycle passenger bus rail emergency" index="1" length="13.634900230131372" shape="31.32045,-43.7161 24.46195,-40.362899999999996 19.0711,-37.72745" speed="36.11111111111111" width="3.6235465017024366"/>
	</edge>
	<edge from="18" function="normal" id="3534" length="6.57557739613032" numLanes="3" priority="1" speed="36.11111111111111" spreadType="center" to="19">
		<lane allow="moped bicycle pedestrian custom1 trailer evehicle rail_urban ship private truck vip custom2 authority delivery rail_electric taxi tram army hov coach motorcycle passenger bus rail emergency" index="0" length="6.57557739613032" shape="20.648049999999998,-34.448750000000004 16.2252,-28.4269" speed="36.11111111111111" width="3.2457372413675167"/>
		<lane allow="moped bicycle pedestrian custom1 trailer evehicle rail_urban ship private truck vip custom2 authority delivery rail_electric taxi tram army hov coach motorcycle passenger bus rail emergency" index="1" length="6.57557739613032" shape="20.648049999999998,-34.448750000000004 14.73605,-31.50875" speed="36.11111111111111" width="3.602433613545151"/>
		<lane allow="moped bicycle pedestrian custom1 trailer evehicle rail_urban ship private truck vip custom2 authority delivery rail_electric taxi tram army hov coach motorcycle passenger bus rail emergency" index="2" length="6.57557739613032" shape="19.0711,-37.72745 13.18305,-34.80015" speed="36.11111111111111" width="3.6713079753679065"/>
	</edge>
	<edge from="19" function="normal" id="3536" length="6.608363657139339" numLanes="3" priority="1" speed="36.11111111111111" spreadType="center" to="20">
		<lane allow="moped bicycle pedestrian custom1 trailer evehicle rail_urban ship private truck vip custom2 authority delivery rail_electric taxi tram army hov coach motorcycle passenger bus rail emergency" index="0" length="6.608363657139339" shape="16.2252,-28.4269 10.24565,-25.53745" speed="36.11111111111111" width="3.190167196245363"/>
		<lane allow="moped bicycle pedestrian custom1 trailer evehicle rail_urban ship private truck vip custom2 authority delivery rail_electric taxi tram army hov coach motorcycle passenger bus rail emergency" index="1" length="6.608363657139339" shape="14.73605,-31.50875 8.7959,-28.564" speed="36.11111111111111" width="3.5215687697388507"/>
		<lane allow="moped bicycle pedestrian custom1 trailer evehicle rail_urban ship private truck vip custom2 authority delivery rail_electric taxi tram army hov coach motorcycle passenger bus rail emergency" index="2" length="6.608363657139339" shape="13.18305,-34.80015 7.273,-31.8435" speed="36.11111111111111" width="3.677371487897303"/>
	</edge>
	<edge from="20" function="normal" id="3620" length="6.669397413559939" numLanes="2" priority="1" speed="36.11111111111111" spreadType="center" to="21">
		<lane allow="moped bicycle pedestrian custom1 trailer evehicle rail_urban ship private truck vip custom2 authority delivery rail_electric taxi tram army hov coach motorcycle passenger bus rail emergency" index="0" length="6.669397413559939" shape="8.7959,-28.564 2.8184,-25.6059" speed="36.11111111111111" width="3.4558219456447707"/>
		<lane allow="moped bicycle pedestrian custom1 trailer evehicle rail_urban ship private truck vip custom2 authority delivery rail_electric taxi tram army hov coach motorcycle passenger bus rail emergency" index="1" length="6.669397413559939" shape="7.273,-31.8435 1.2655500000000002,-28.8304" speed="36.11111111111111" width="3.702039012490279"/>
	</edge>
	<edge from="21" function="normal" id="3662" length="24.644895567956993" numLanes="2" priority="1" speed="36.11111111111111" spreadType="center" to="22">
		<lane allow="moped bicycle pedestrian custom1 trailer evehicle rail_urban ship private truck vip custom2 authority delivery rail_electric taxi tram army hov coach motorcycle passenger bus rail emergency" index="0" length="24.644895567956993" shape="2.8184,-25.6059 0.0018500000000000183,-24.212049999999998 -2.77495,-22.837899999999998 -5.4243500000000004,-21.526699999999998 -8.14645,-20.17955 -11.01815,-18.75835 -13.80695,-17.3782 -16.509,-16.041 -19.2696,-14.674700000000001" speed="36.11111111111111" width="3.21334081603555"/>
		<lane allow="moped bicycle pedestrian custom1 trailer evehicle rail_urban ship private truck vip custom2 authority delivery rail_electric taxi tram army hov coach motorcycle passenger bus rail emergency" index="1" length="24.644895567956993" shape="1.2655500000000002,-28.8304 -1.53895,-27.4237 -4.2995,-26.03985 -6.94755,-24.711199999999998 -9.66425,-23.34975 -12.56605,-21.89215 -15.3348,-20.50205 -18.02465,-19.15285 -20.8212,-17.7498" speed="36.11111111111111" width="3.675404375031404"/>
	</edge>
	<edge from="22" function="normal" id="3640" length="10.509859510002975" numLanes="2" priority="1" speed="36.11111111111111" spreadType="center" to="23">
		<lane allow="moped bicycle pedestrian custom1 trailer evehicle rail_urban ship private truck vip custom2 authority delivery rail_electric taxi tram army hov coach motorcycle passenger bus rail emergency" index="0" length="10.509859510002975" shape="-19.2696,-14.674700000000001 -29.1031,-9.8533" speed="36.11111111111111" width="3.167378581729693"/>
		<lane allow="moped bicycle pedestrian custom1 trailer evehicle rail_urban ship private truck vip custom2 authority delivery rail_electric taxi tram army hov coach motorcycle passenger bus rail emergency" index="1" length="10.509859510002975" shape="-20.8212,-17.7498 -30.2388,-13.0844" speed="36.11111111111111" width="3.675404375031404"/>
	</edge>
	<edge from="23" function="normal" id="3517" length="14.496753904957334" numLanes="3" priority="1" speed="36.11111111111111" spreadType="center" to="24">
		<lane allow="moped bicycle pedestrian custom1 trailer evehicle rail_urban ship private truck vip custom2 authority delivery rail_electric taxi tram army hov coach motorcycle passenger bus rail emergency" index="0" length="14.496753904957334" shape="-27.385800000000003,-5.39935 -36.5993,-0.95995 -40.34780000000001,1.0838999999999999" speed="36.11111111111111" width="5.130906839926057"/>
		<lane allow="moped bicycle pedestrian custom1 trailer evehicle rail_urban ship private truck vip custom2 authority delivery rail_electric taxi tram army hov coach motorcycle passenger bus rail emergency" index="1" length="14.496753904957334" shape="-29.1031,-9.8533 -38.49355,-4.81125 -42.179050000000004,-2.60755" speed="36.11111111111111" width="3.110520139783696"/>
		<lane allow="moped bicycle pedestrian custom1 trailer evehicle rail_urban ship private truck vip custom2 authority delivery rail_electric taxi tram army hov coach motorcycle passenger bus rail emergency" index="2" length="14.496753904957334" shape="-30.2388,-13.0844 -40.0205,-7.83675 -43.685900000000004,-5.645099999999999" speed="36.11111111111111" width="3.664585112942529"/>
	</edge>
	<edge from="20" function="normal" id="3668" length="38.24329000786906" numLanes="1" priority="1" speed="36.11111111111111" spreadType="center" to="15">
		<lane allow="moped bicycle pedestrian custom1 trailer evehicle rail_urban ship private vip custom2 authority delivery rail_electric taxi tram army hov coach motorcycle passenger rail emergency" index="0" length="38.24329000786906" shape="7.273,-31.8435 3.93595,-30.7348 1.0018,-29.92795 -1.4938500000000001,-29.180349999999997 -3.9092,-28.876799999999996 -6.11105,-28.79185 -7.64725,-28.9202 -9.6175,-29.127000000000002 -11.2216,-29.40435 -13.1694,-29.7177 -14.978100000000001,-30.4747 -16.514,-31.724800000000002 -17.95365,-33.6344 -20.653950000000002,-37.31215 -24.42925,-42.50755" speed="36.11111111111111" width="3.0119886487169896"/>
	</edge>
	<edge from="20" function="normal" id="3602" length="16.407319351256646" numLanes="1" priority="1" speed="36.11111111111111" spreadType="center" to="6">
		<lane allow="moped bicycle pedestrian custom1 trailer evehicle rail_urban ship private vip custom2 authority delivery rail_electric taxi tram army hov coach motorcycle passenger rail emergency" index="0" length="16.407319351256646" shape="10.24565,-25.53745 8.393049999999999,-24.2533 7.243,-23.0366 6.315300000000001,-21.407600000000002 5.73785,-19.5989 5.67995,-18.228450000000002 6.0424,-16.1022 6.8934999999999995,-13.72695 7.942500000000001,-11.2891" speed="36.11111111111111" width="2.934720000272598"/>
	</edge>
	<edge from="9" function="normal" id="3718" length="22.83123774153203" numLanes="1" priority="1" speed="36.11111111111111" spreadType="center" to="25">
		<lane allow="moped bicycle pedestrian custom1 trailer evehicle rail_urban ship private vip custom2 authority delivery rail_electric taxi tram army hov coach motorcycle passenger rail emergency" index="0" length="22.83123774153203" shape="32.6096,38.4653 35.2313,41.837 37.29605,43.7522 39.889849999999996,44.9259 44.51815,45.3298 52.768100000000004,45.46705" speed="36.11111111111111" width="3.157633506282831"/>
	</edge>
	<edge from="25" function="normal" id="3500" length="9.586145870473697" numLanes="1" priority="1" speed="36.11111111111111" spreadType="center" to="26">
		<lane allow="moped bicycle pedestrian custom1 trailer evehicle rail_urban ship private truck vip custom2 authority delivery rail_electric taxi tram army hov coach motorcycle passenger bus rail emergency" index="0" length="9.586145870473697" shape="52.768100000000004,45.46705 62.3489,45.146950000000004" speed="36.11111111111111" width="5.358070392408067"/>
	</edge>
	<edge from="27" function="normal" id="3555" length="8.747302513489522" numLanes="4" priority="1" speed="36.11111111111111" spreadType="center" to="28">
		<lane allow="moped bicycle pedestrian custom1 trailer evehicle rail_urban ship private truck vip custom2 authority delivery rail_electric taxi tram army hov coach motorcycle passenger bus rail emergency" index="0" length="8.747302513489522" shape="-40.5826,-117.4003 -36.6064,-109.60895" speed="36.11111111111111" width="3.5111446353005684"/>
		<lane allow="moped bicycle pedestrian custom1 trailer evehicle rail_urban ship private truck vip custom2 authority delivery rail_electric taxi tram army hov coach motorcycle passenger bus rail emergency" index="1" length="8.747302513489522" shape="-43.526399999999995,-115.8891 -39.495999999999995,-108.00715" speed="36.11111111111111" width="2.9942633818687394"/>
		<lane allow="moped bicycle pedestrian custom1 trailer evehicle rail_urban ship private truck vip custom2 authority delivery rail_electric taxi tram army hov coach motorcycle passenger bus rail emergency" index="2" length="8.747302513489522" shape="-46.225899999999996,-114.50335 -42.137699999999995,-106.47" speed="36.11111111111111" width="3.012211639310895"/>
		<lane allow="moped bicycle pedestrian custom1 trailer evehicle rail_urban ship private truck vip custom2 authority delivery rail_electric taxi tram army hov coach motorcycle passenger bus rail emergency" index="3" length="8.747302513489522" shape="-49.00385,-113.07724999999999 -44.822900000000004,-105.0316" speed="36.11111111111111" width="3.0805742451692346"/>
	</edge>
	<edge from="28" function="normal" id="3559" length="17.692935382095456" numLanes="5" priority="1" speed="36.11111111111111" spreadType="center" to="29">
		<lane allow="moped bicycle pedestrian custom1 trailer evehicle rail_urban ship private truck vip custom2 authority delivery rail_electric taxi tram army hov coach motorcycle passenger bus rail emergency" index="0" length="17.692935382095456" shape="-36.6064,-109.60895 -33.2607,-102.6413 -28.751649999999998,-93.5625" speed="36.11111111111111" width="3.5111446353005684"/>
		<lane allow="moped bicycle pedestrian custom1 trailer evehicle rail_urban ship private truck vip custom2 authority delivery rail_electric taxi tram army hov coach motorcycle passenger bus rail emergency" index="1" length="17.692935382095456" shape="-39.495999999999995,-108.00715 -36.1012,-101.082 -31.5409,-91.97145" speed="36.11111111111111" width="2.891120158346933"/>
		<lane allow="moped bicycle pedestrian custom1 trailer evehicle rail_urban ship private truck vip custom2 authority delivery rail_electric taxi tram army hov coach motorcycle passenger bus rail emergency" index="2" length="17.692935382095456" shape="-42.137699999999995,-106.47 -38.7912,-99.68265 -34.230900000000005,-90.57215" speed="36.11111111111111" width="3.012211639310895"/>
		<lane allow="moped bicycle pedestrian custom1 trailer evehicle rail_urban ship private truck vip custom2 authority delivery rail_electric taxi tram army hov coach motorcycle passenger bus rail emergency" index="3" length="17.692935382095456" shape="-44.822900000000004,-105.0316 -41.462050000000005,-98.32145 -36.901700000000005,-89.21090000000001" speed="36.11111111111111" width="2.8198292501497306"/>
		<lane allow="moped bicycle pedestrian custom1 trailer evehicle rail_urban ship private truck vip custom2 authority delivery rail_electric taxi tram army hov coach motorcycle passenger rail emergency" index="4" length="17.692935382095456" shape="-44.822900000000004,-105.0316 -42.990300000000005,-97.29645 -39.50945,-87.75815" speed="36.11111111111111" width="2.9068515975192115"/>
	</edge>
	<edge from="29" function="normal" id="3568" length="47.086685123121356" numLanes="5" priority="1" speed="36.11111111111111" spreadType="center" to="30">
		<lane allow="moped bicycle pedestrian custom1 trailer evehicle rail_urban ship private truck vip custom2 authority delivery rail_electric taxi tram army hov coach motorcycle passenger bus rail emergency" index="0" length="47.086685123121356" shape="-28.751649999999998,-93.5625 -24.55265,-85.1075 -20.295,-76.53295 -15.85655,-67.59694999999999 -11.55795,-59.135999999999996 -7.37245,-51.4869" speed="36.11111111111111" width="3.3461488699697797"/>