<!-- generated on 2020-12-18 15:59:19.699234 by ipykernel_launcher.py v1_2_0+5214-53edc58fcd
-->
<nodes>
	<node id="1" type="from" x="62.55955" y="50.207"/>
	<node id="2" type="to" x="52.9788" y="50.5271"/>
	<node id="3" type="to" x="45.52135" y="64.58945"/>
	<node id="4" type="from" x="-46.85675" y="-12.0371"/>
	<node id="5" type="to" x="-32.837399999999995" y="-19.003266666666665"/>
	<node id="6" type="to" x="2.41585" y="-8.5294"/>
	<node id="7" type="to" x="16.116500000000002" y="12.260016666666667"/>
	<node id="8" type="to" x="19.929183333333338" y="19.849333333333334"/>
	<node id="9" type="to" x="29.822450000000003" y="39.80256666666667"/>
	<node id="10" type="to" x="42.66375" y="65.99321666666667"/>
	<node id="11" type="to" x="-24.49355" y="-25.03025"/>
	<node id="12" type="to" x="-2.386675" y="-36.414375"/>
	<node id="13" type="to" x="12.100625" y="-43.6211"/>
	<node id="14" type="to" x="26.818250000000003" y="-52.87945"/>
	<node id="15" type="to" x="-29.920949999999998" y="-39.62495"/>
	<node id="16" type="to" x="-56.08025" y="-109.44455"/>
	<node id="17" type="from" x="32.122775000000004" y="-42.083124999999995"/>
	<node id="18" type="to" x="19.859575" y="-36.0881"/>
	<node id="19" type="to" x="14.714766666666668" y="-31.578599999999998"/>
	<node id="20" type="to" x="8.771516666666667" y="-28.64831666666667"/>
	<node id="21" type="to" x="2.041975" y="-27.21815"/>
	<node id="22" type="to" x="-20.0454" y="-16.21225"/>
	<node id="23" type="to" x="-29.67095" y="-11.46885"/>
	<node id="24" type="to" x="-42.07091666666667" y="-2.389583333333333"/>
	<node id="25" type="to" x="52.768100000000004" y="45.46705"/>
	<node id="26" type="to" x="62.3489" y="45.146950000000004"/>
	<node id="27" type="from" x="-44.8346875" y="-115.2175"/>
	<node id="28" type="to" x="-40.76575" y="-107.279425"/>
	<node id="29" type="to" x="-34.18692" y="-90.61503"/>
	<node id="30" type="to" x="-13.1321" y="-48.45026"/>
	<node id="31" type="to" x="-7.982616666666668" y="-37.376333333333335"/>
	<node id="32" type="to" x="-0.6226" y="-22.000833333333333"/>
	<node id="33" type="from" x="31.78836" y="71.33548"/>
	<node id="34" type="to" x="18.829720000000002" y="44.96056"/>
	<node id="35" type="to" x="9.06815" y="25.28356"/>
	<node id="36" type="to" x="3.8939916666666665" y="18.36798333333333"/>
	<node id="37" type="to" x="-7.102225" y="-3.7279916666666666"/>
	<node id="38" type="to" x="-14.434299999999999" y="-15.249933333333333"/>
	<node id="39" type="to" x="-21.760599999999997" y="-30.144116666666665"/>
</nodes>
