<?xml version="1.0" encoding="UTF-8"?>

<!-- generated on Fri Dec 18 15:59:19 2020 by Eclipse SUMO netconvert Version 1.8.0
<configuration xmlns:xsi="http://www.w3.org/2001/XMLSchema-instance" xsi:noNamespaceSchemaLocation="http://sumo.dlr.de/xsd/netconvertConfiguration.xsd">

    <input>
        <node-files value="./converted_scenarios/NGSIM/Lankershim/USA_Lanker-2_6_I-1-1/nodes.net.xml"/>
        <edge-files value="./converted_scenarios/NGSIM/Lankershim/USA_Lanker-2_6_I-1-1/edges.net.xml"/>
        <connection-files value="./converted_scenarios/NGSIM/Lankershim/USA_Lanker-2_6_I-1-1/_connections.net.xml"/>
        <tllogic-files value="./converted_scenarios/NGSIM/Lankershim/USA_Lanker-2_6_I-1-1/_tll.net.xml"/>
    </input>

    <output>
        <output-file value="./converted_scenarios/NGSIM/Lankershim/USA_Lanker-2_6_I-1-1/USA_Lanker-2_6_I-1-1.net.xml"/>
    </output>

    <processing>
        <plain.extend-edge-shape value="true"/>
        <geometry.remove.keep-edges.explicit value="true"/>
        <geometry.avoid-overlap value="true"/>
        <offset.disable-normalization value="true"/>
    </processing>

    <junctions>
        <no-turnarounds value="true"/>
        <junctions.internal-link-detail value="20"/>
    </junctions>

    <report>
        <aggregate-warnings value="5"/>
    </report>

    <random_number>
        <seed value="1234"/>
    </random_number>

</configuration>
-->

<net version="1.6" junctionCornerDetail="5" junctionLinkDetail="20" limitTurnSpeed="5.50" xmlns:xsi="http://www.w3.org/2001/XMLSchema-instance" xsi:noNamespaceSchemaLocation="http://sumo.dlr.de/xsd/net_file.xsd">

    <location netOffset="0.00,0.00" convBoundary="-56.08,-115.22,62.56,71.34" origBoundary="-58.90,-117.40,62.56,73.96" projParameter="!"/>

    <edge id=":11_0" function="internal">
        <lane id=":11_0_0" index="0" disallow="rail_fast" speed="36.11" length="0.26" width="3.31" shape="-23.67,-27.27 -23.90,-27.15"/>
        <lane id=":11_0_1" index="1" disallow="rail_fast" speed="36.11" length="0.26" width="3.11" shape="-22.20,-24.40 -22.43,-24.28"/>
    </edge>
    <edge id=":12_0" function="internal">
        <lane id=":12_0_0" index="0" disallow="rail_fast" speed="36.11" length="3.06" width="3.50" shape="-4.53,-37.22 -1.79,-38.62"/>
        <lane id=":12_0_1" index="1" disallow="rail_fast" speed="36.11" length="3.06" width="3.31" shape="-3.01,-34.18 -0.29,-35.55"/>
    </edge>
    <edge id=":13_0" function="internal">
        <lane id=":13_0_0" index="0" disallow="bus truck rail_fast" speed="11.02" length="10.30" width="3.87" shape="0.88,-47.58 1.54,-47.42 2.14,-47.28 2.70,-47.15 3.20,-47.05 3.68,-46.98 4.11,-46.92 4.53,-46.89 4.92,-46.88 5.31,-46.90 5.68,-46.94 6.06,-47.01 6.44,-47.11 6.84,-47.23 7.26,-47.38 7.70,-47.56 8.18,-47.77 8.69,-48.01 9.26,-48.28 9.87,-48.58"/>
        <lane id=":13_0_1" index="1" disallow="bus truck rail_fast" speed="12.20" length="10.30" width="3.51" shape="0.76,-44.03 1.55,-43.84 2.28,-43.68 2.94,-43.54 3.55,-43.43 4.11,-43.34 4.64,-43.28 5.13,-43.24 5.60,-43.24 6.06,-43.26 6.51,-43.31 6.96,-43.39 7.42,-43.51 7.89,-43.65 8.39,-43.83 8.92,-44.04 9.49,-44.29 10.10,-44.58 10.77,-44.90 11.50,-45.25"/>
    </edge>
    <edge id=":13_2" function="internal">
        <lane id=":13_2_0" index="0" disallow="bus truck rail_fast" speed="36.11" length="11.23" width="3.51" shape="1.54,-40.01 11.50,-45.25"/>
        <lane id=":13_2_1" index="1" disallow="bus truck rail_fast" speed="36.11" length="11.23" width="3.38" shape="3.28,-36.69 3.97,-37.17 4.59,-37.61 5.15,-37.99 5.66,-38.33 6.14,-38.64 6.58,-38.92 6.99,-39.17 7.39,-39.40 7.79,-39.61 8.18,-39.82 8.58,-40.02 9.00,-40.22 9.44,-40.43 9.91,-40.66 10.42,-40.90 10.98,-41.16 11.60,-41.46 12.28,-41.79 13.03,-42.15"/>
    </edge>
    <edge id=":13_4" function="internal">
        <lane id=":13_4_0" index="0" disallow="rail_fast" speed="36.11" length="13.86" width="3.51" shape="-0.90,-39.06 11.50,-45.25"/>
        <lane id=":13_4_1" index="1" disallow="rail_fast" speed="36.11" length="13.86" width="3.38" shape="0.62,-36.00 13.03,-42.15"/>
    </edge>
    <edge id=":15_0" function="internal">
        <lane id=":15_0_0" index="0" disallow="rail_fast" speed="36.11" length="19.07" width="2.82" shape="-23.36,-26.39 -31.81,-43.49"/>
        <lane id=":15_0_1" index="1" disallow="rail_fast" speed="36.11" length="19.07" width="2.97" shape="-20.58,-27.82 -28.97,-44.94"/>
        <lane id=":15_0_2" index="2" disallow="rail_fast" speed="36.11" length="19.07" width="2.96" shape="-17.89,-29.21 -26.28,-46.32"/>
    </edge>
    <edge id=":15_3" function="internal">
        <lane id=":15_3_0" index="0" disallow="bus truck rail_fast" speed="13.68" length="23.17" width="2.96" shape="-11.47,-29.44 -12.22,-29.61 -12.98,-29.85 -13.74,-30.17 -14.51,-30.58 -15.27,-31.06 -16.04,-31.63 -16.81,-32.27 -17.59,-33.00 -18.37,-33.81 -19.15,-34.69 -19.93,-35.66 -20.71,-36.71 -21.50,-37.84 -22.29,-39.05 -23.09,-40.35 -23.88,-41.72 -24.68,-43.17 -25.48,-44.71 -26.28,-46.32"/>
    </edge>
    <edge id=":15_4" function="internal">
        <lane id=":15_4_0" index="0" disallow="bus truck rail_fast" speed="36.11" length="4.30" width="2.82" shape="-29.92,-39.62 -31.81,-43.49"/>
    </edge>
    <edge id=":18_0" function="internal">
        <lane id=":18_0_0" index="0" disallow="rail_fast" speed="14.45" length="8.28" width="3.25" shape="24.30,-36.23 23.75,-35.97 23.26,-35.72 22.82,-35.50 22.42,-35.29 22.06,-35.08 21.73,-34.89 21.43,-34.70 21.15,-34.50 20.89,-34.30 20.64,-34.09 20.40,-33.86 20.16,-33.62 19.92,-33.35 19.67,-33.06 19.41,-32.74 19.14,-32.38 18.84,-31.98 18.51,-31.54 18.16,-31.05"/>
        <lane id=":18_0_1" index="1" disallow="rail_fast" speed="36.11" length="8.28" width="3.60" shape="24.30,-36.23 17.06,-32.67"/>
        <lane id=":18_0_2" index="2" disallow="rail_fast" speed="36.11" length="8.28" width="3.67" shape="22.71,-39.51 15.00,-35.71"/>
    </edge>
    <edge id=":19_0" function="internal">
        <lane id=":19_0_0" index="0" disallow="rail_fast" speed="9.74" length="3.41" width="3.19" shape="16.82,-29.23 16.65,-29.02 16.50,-28.83 16.36,-28.66 16.22,-28.51 16.09,-28.39 15.96,-28.28 15.83,-28.18 15.71,-28.10 15.58,-28.02 15.44,-27.96 15.31,-27.89 15.16,-27.83 15.01,-27.77 14.84,-27.70 14.66,-27.63 14.47,-27.55 14.26,-27.46 14.03,-27.36 13.78,-27.25"/>
        <lane id=":19_0_1" index="1" disallow="rail_fast" speed="36.11" length="3.41" width="3.52" shape="15.34,-31.81 12.31,-30.31"/>
        <lane id=":19_0_2" index="2" disallow="rail_fast" speed="36.11" length="3.41" width="3.68" shape="13.53,-34.97 10.73,-33.57"/>
    </edge>
    <edge id=":2_0" function="internal">
        <lane id=":2_0_0" index="0" disallow="bus truck rail_fast" speed="8.75" length="5.40" width="3.35" shape="53.38,50.51 52.98,50.53 52.63,50.54 52.30,50.56 52.00,50.58 51.73,50.61 51.47,50.64 51.24,50.69 51.02,50.74 50.81,50.80 50.60,50.88 50.40,50.97 50.20,51.08 50.00,51.20 49.79,51.35 49.57,51.51 49.33,51.69 49.08,51.90 48.81,52.13 48.51,52.39"/>
    </edge>
    <edge id=":20_0" function="internal">
        <lane id=":20_0_0" index="0" disallow="bus truck rail_fast" speed="14.27" length="3.68" width="2.93" shape="11.16,-25.98 10.91,-25.86 10.69,-25.76 10.49,-25.66 10.30,-25.58 10.13,-25.50 9.97,-25.42 9.83,-25.35 9.69,-25.28 9.56,-25.21 9.43,-25.14 9.31,-25.05 9.19,-24.97 9.06,-24.87 8.93,-24.76 8.79,-24.64 8.65,-24.50 8.49,-24.34 8.31,-24.17 8.13,-23.97"/>
    </edge>
    <edge id=":20_1" function="internal">
        <lane id=":20_1_0" index="0" disallow="rail_fast" speed="36.11" length="4.87" width="3.46" shape="9.71,-29.02 5.36,-26.86"/>
        <lane id=":20_1_1" index="1" disallow="rail_fast" speed="36.11" length="4.87" width="3.70" shape="8.15,-32.28 3.78,-30.09"/>
    </edge>
    <edge id=":20_3" function="internal">
        <lane id=":20_3_0" index="0" disallow="bus truck rail_fast" speed="36.11" length="4.93" width="3.01" shape="8.15,-32.28 7.82,-32.12 7.52,-31.97 7.25,-31.84 7.00,-31.73 6.78,-31.63 6.57,-31.53 6.37,-31.45 6.18,-31.38 5.99,-31.31 5.81,-31.25 5.62,-31.19 5.42,-31.14 5.22,-31.08 4.99,-31.02 4.75,-30.95 4.49,-30.88 4.20,-30.80 3.88,-30.72 3.52,-30.62"/>
    </edge>
    <edge id=":21_0" function="internal">
        <lane id=":21_0_0" index="0" disallow="rail_fast" speed="36.11" length="3.05" width="3.21" shape="4.18,-26.28 1.45,-24.93"/>
        <lane id=":21_0_1" index="1" disallow="rail_fast" speed="36.11" length="3.05" width="3.68" shape="2.60,-29.50 -0.12,-28.14"/>
    </edge>
    <edge id=":22_0" function="internal">
        <lane id=":22_0_0" index="0" disallow="rail_fast" speed="36.11" length="10.83" width="3.17" shape="-10.07,-19.23 -19.78,-14.42"/>
        <lane id=":22_0_1" index="1" disallow="rail_fast" speed="36.11" length="10.83" width="3.68" shape="-11.64,-22.36 -21.32,-17.50"/>
    </edge>
    <edge id=":22_2" function="internal">
        <lane id=":22_2_0" index="0" disallow="bus truck rail_fast" speed="9.83" length="11.33" width="3.68" shape="-14.68,-26.13 -14.81,-25.53 -14.96,-24.93 -15.13,-24.36 -15.33,-23.80 -15.55,-23.26 -15.80,-22.74 -16.07,-22.23 -16.37,-21.75 -16.69,-21.27 -17.04,-20.82 -17.42,-20.38 -17.82,-19.96 -18.24,-19.56 -18.69,-19.18 -19.17,-18.81 -19.67,-18.46 -20.19,-18.12 -20.74,-17.80 -21.32,-17.50"/>
    </edge>
    <edge id=":23_0" function="internal">
        <lane id=":23_0_0" index="0" disallow="bus truck rail_fast" speed="36.11" length="4.83" width="5.13" shape="-33.94,-3.27 -29.26,-4.49"/>
    </edge>
    <edge id=":23_1" function="internal">
        <lane id=":23_1_0" index="0" disallow="rail_fast" speed="36.11" length="4.52" width="3.11" shape="-27.02,-10.87 -31.05,-8.81"/>
        <lane id=":23_1_1" index="1" disallow="rail_fast" speed="36.11" length="4.52" width="3.66" shape="-28.35,-14.02 -32.36,-11.95"/>
    </edge>
    <edge id=":25_0" function="internal">
        <lane id=":25_0_0" index="0" disallow="bus truck rail_fast" speed="36.11" length="2.87" width="5.36" shape="51.33,45.44 54.20,45.42"/>
    </edge>
    <edge id=":28_0" function="internal">
        <lane id=":28_0_0" index="0" disallow="rail_fast" speed="36.11" length="7.96" width="3.51" shape="-38.15,-112.63 -34.54,-105.30"/>
        <lane id=":28_0_1" index="1" disallow="rail_fast" speed="36.11" length="7.96" width="2.89" shape="-41.05,-111.05 -37.46,-103.85"/>
        <lane id=":28_0_2" index="2" disallow="rail_fast" speed="36.11" length="7.96" width="3.01" shape="-43.72,-109.59 -40.18,-102.51"/>
        <lane id=":28_0_3" index="3" disallow="rail_fast" speed="36.11" length="7.96" width="2.82" shape="-46.42,-108.11 -42.89,-101.17"/>
        <lane id=":28_0_4" index="4" disallow="bus rail_fast" speed="36.11" length="7.96" width="2.91" shape="-46.42,-108.11 -46.15,-107.59 -45.91,-107.12 -45.70,-106.69 -45.51,-106.30 -45.34,-105.94 -45.19,-105.60 -45.05,-105.29 -44.93,-104.99 -44.82,-104.69 -44.72,-104.39 -44.63,-104.09 -44.54,-103.78 -44.45,-103.45 -44.36,-103.09 -44.27,-102.70 -44.17,-102.28 -44.06,-101.81 -43.94,-101.29 -43.80,-100.72"/>
    </edge>
    <edge id=":29_0" function="internal">
        <lane id=":29_0_0" index="0" disallow="rail_fast" speed="36.11" length="3.88" width="3.35" shape="-29.76,-95.59 -28.06,-92.17"/>
        <lane id=":29_0_1" index="1" disallow="rail_fast" speed="36.11" length="3.88" width="2.89" shape="-32.61,-94.11 -30.89,-90.67"/>
        <lane id=":29_0_2" index="2" disallow="rail_fast" speed="36.11" length="3.88" width="3.08" shape="-35.30,-92.71 -33.57,-89.25"/>
        <lane id=":29_0_3" index="3" disallow="rail_fast" speed="36.11" length="3.88" width="2.82" shape="-37.96,-91.33 -36.22,-87.85"/>
        <lane id=":29_0_4" index="4" disallow="bus rail_fast" speed="36.11" length="3.88" width="3.05" shape="-40.36,-90.09 -40.26,-89.81 -40.17,-89.56 -40.09,-89.34 -40.01,-89.13 -39.95,-88.94 -39.89,-88.77 -39.83,-88.61 -39.77,-88.46 -39.71,-88.31 -39.66,-88.16 -39.60,-88.02 -39.53,-87.87 -39.46,-87.71 -39.39,-87.54 -39.31,-87.36 -39.21,-87.17 -39.11,-86.95 -38.99,-86.71 -38.86,-86.44"/>
    </edge>
    <edge id=":30_0" function="internal">
        <lane id=":30_0_0" index="0" disallow="bus truck rail_fast" speed="10.23" length="10.24" width="3.11" shape="-8.33,-53.24 -8.10,-52.84 -7.84,-52.45 -7.56,-52.07 -7.26,-51.71 -6.93,-51.36 -6.58,-51.02 -6.21,-50.69 -5.82,-50.38 -5.40,-50.08 -4.97,-49.80 -4.51,-49.52 -4.02,-49.26 -3.52,-49.02 -2.99,-48.78 -2.44,-48.56 -1.86,-48.35 -1.27,-48.16 -0.65,-47.97 -0.01,-47.80"/>
    </edge>
    <edge id=":30_1" function="internal">
        <lane id=":30_1_0" index="0" disallow="bus truck rail_fast" speed="11.58" length="11.05" width="3.13" shape="-11.39,-51.64 -11.03,-50.92 -10.68,-50.29 -10.35,-49.72 -10.03,-49.21 -9.72,-48.76 -9.40,-48.36 -9.08,-48.00 -8.75,-47.68 -8.40,-47.39 -8.04,-47.13 -7.65,-46.89 -7.23,-46.66 -6.78,-46.45 -6.30,-46.23 -5.77,-46.01 -5.19,-45.78 -4.56,-45.53 -3.88,-45.26 -3.13,-44.97"/>
    </edge>
    <edge id=":30_2" function="internal">
        <lane id=":30_2_0" index="0" disallow="rail_fast" speed="36.11" length="10.45" width="3.12" shape="-11.39,-51.64 -6.82,-42.08"/>
        <lane id=":30_2_1" index="1" disallow="rail_fast" speed="36.11" length="10.45" width="3.06" shape="-14.12,-50.20 -9.62,-40.76"/>
        <lane id=":30_2_2" index="2" disallow="rail_fast" speed="36.11" length="10.45" width="2.98" shape="-16.82,-48.78 -12.36,-39.48"/>
    </edge>
    <edge id=":30_5" function="internal">
        <lane id=":30_5_0" index="0" disallow="bus truck rail_fast" speed="36.11" length="10.20" width="2.87" shape="-19.50,-47.37 -19.16,-46.68 -18.86,-46.07 -18.58,-45.51 -18.33,-45.00 -18.09,-44.53 -17.88,-44.10 -17.69,-43.70 -17.50,-43.31 -17.33,-42.94 -17.16,-42.57 -17.00,-42.19 -16.83,-41.80 -16.67,-41.39 -16.49,-40.95 -16.31,-40.47 -16.12,-39.95 -15.91,-39.37 -15.69,-38.73 -15.44,-38.02"/>
    </edge>
    <edge id=":31_0" function="internal">
        <lane id=":31_0_0" index="0" disallow="rail_fast" speed="36.11" length="3.22" width="3.12" shape="-5.94,-40.22 -4.56,-37.32"/>
        <lane id=":31_0_1" index="1" disallow="rail_fast" speed="36.11" length="3.22" width="3.06" shape="-8.70,-38.82 -7.31,-35.92"/>
        <lane id=":31_0_2" index="2" disallow="rail_fast" speed="36.11" length="3.22" width="2.95" shape="-11.39,-37.45 -10.00,-34.55"/>
    </edge>
    <edge id=":32_0" function="internal">
        <lane id=":32_0_0" index="0" disallow="rail_fast" speed="36.11" length="2.64" width="3.14" shape="1.49,-24.73 2.64,-22.34"/>
        <lane id=":32_0_1" index="1" disallow="rail_fast" speed="36.11" length="2.64" width="3.10" shape="-1.31,-23.37 -0.17,-20.98"/>
        <lane id=":32_0_2" index="2" disallow="rail_fast" speed="36.11" length="2.64" width="2.93" shape="-4.04,-22.05 -2.90,-19.67"/>
    </edge>
    <edge id=":34_0" function="internal">
        <lane id=":34_0_0" index="0" disallow="rail_fast" speed="36.11" length="3.05" width="2.78" shape="14.18,48.96 12.82,46.22"/>
        <lane id=":34_0_1" index="1" disallow="rail_fast" speed="36.11" length="3.05" width="3.00" shape="16.77,47.70 15.42,44.96"/>
        <lane id=":34_0_2" index="2" disallow="bus rail_fast" speed="36.11" length="3.05" width="3.02" shape="19.50,46.38 18.15,43.64"/>
        <lane id=":34_0_3" index="3" disallow="bus rail_fast" speed="36.11" length="3.05" width="2.96" shape="22.22,45.05 20.87,42.32"/>
        <lane id=":34_0_4" index="4" disallow="rail_fast" speed="36.11" length="3.05" width="3.03" shape="24.94,43.74 23.58,41.01"/>
    </edge>
    <edge id=":35_0" function="internal">
        <lane id=":35_0_0" index="0" disallow="rail_fast" speed="21.96" length="7.43" width="2.94" shape="4.82,30.36 4.56,29.86 4.33,29.41 4.10,29.02 3.89,28.66 3.69,28.34 3.50,28.05 3.31,27.79 3.11,27.54 2.92,27.32 2.71,27.10 2.50,26.88 2.27,26.66 2.03,26.44 1.77,26.20 1.48,25.94 1.17,25.66 0.83,25.36 0.45,25.02 0.04,24.63"/>
        <lane id=":35_0_1" index="1" disallow="rail_fast" speed="36.11" length="7.43" width="2.94" shape="4.82,30.36 1.51,23.80"/>
        <lane id=":35_0_2" index="2" disallow="rail_fast" speed="36.11" length="7.43" width="3.05" shape="7.48,29.01 4.15,22.30"/>
        <lane id=":35_0_3" index="3" disallow="rail_fast" speed="36.11" length="7.43" width="3.03" shape="10.22,27.63 6.81,20.79"/>
        <lane id=":35_0_4" index="4" disallow="rail_fast" speed="36.11" length="7.43" width="3.05" shape="12.94,26.26 9.47,19.29"/>
        <lane id=":35_0_5" index="5" disallow="rail_fast" speed="36.11" length="7.43" width="3.12" shape="15.69,24.87 12.70,18.80"/>
    </edge>
    <edge id=":36_0" function="internal">
        <lane id=":36_0_0" index="0" disallow="rail_fast" speed="15.71" length="3.50" width="3.22" shape="-0.34,24.27 -0.55,24.09 -0.74,23.93 -0.92,23.79 -1.09,23.66 -1.25,23.55 -1.40,23.46 -1.54,23.37 -1.68,23.28 -1.81,23.20 -1.94,23.12 -2.06,23.03 -2.18,22.93 -2.30,22.82 -2.42,22.70 -2.53,22.56 -2.65,22.40 -2.77,22.22 -2.90,22.01 -3.03,21.76"/>
        <lane id=":36_0_1" index="1" disallow="rail_fast" speed="36.11" length="3.50" width="2.87" shape="1.32,23.42 -0.20,20.40"/>
        <lane id=":36_0_2" index="2" disallow="rail_fast" speed="36.11" length="3.50" width="3.00" shape="4.02,22.03 2.55,19.07"/>
        <lane id=":36_0_3" index="3" disallow="rail_fast" speed="36.11" length="3.50" width="3.02" shape="6.73,20.63 5.28,17.73"/>
        <lane id=":36_0_4" index="4" disallow="rail_fast" speed="36.11" length="3.50" width="3.02" shape="9.42,19.20 8.00,16.35"/>
        <lane id=":36_0_5" index="5" disallow="rail_fast" speed="36.11" length="3.50" width="3.03" shape="12.61,18.63 10.79,14.93"/>
    </edge>
    <edge id=":37_0" function="internal">
        <lane id=":37_0_0" index="0" disallow="bus truck rail_fast" speed="36.11" length="4.73" width="3.84" shape="-12.57,2.80 -12.73,2.49 -12.88,2.20 -13.00,1.94 -13.12,1.70 -13.22,1.49 -13.32,1.29 -13.41,1.10 -13.50,0.93 -13.58,0.76 -13.67,0.59 -13.77,0.43 -13.87,0.26 -13.98,0.09 -14.10,-0.09 -14.24,-0.29 -14.40,-0.49 -14.57,-0.72 -14.77,-0.97 -14.99,-1.25"/>
    </edge>
    <edge id=":37_1" function="internal">
        <lane id=":37_1_0" index="0" disallow="rail_fast" speed="36.11" length="5.10" width="2.87" shape="-9.61,1.29 -11.91,-3.30"/>
        <lane id=":37_1_1" index="1" disallow="rail_fast" speed="36.11" length="5.10" width="3.02" shape="-6.96,-0.06 -9.26,-4.62"/>
        <lane id=":37_1_2" index="2" disallow="rail_fast" speed="36.11" length="5.10" width="3.12" shape="-4.23,-1.46 -6.48,-5.99"/>
    </edge>
    <edge id=":37_4" function="internal">
        <lane id=":37_4_0" index="0" disallow="bus truck rail_fast" speed="36.11" length="5.03" width="2.93" shape="-1.48,-2.86 -3.73,-7.36"/>
    </edge>
    <edge id=":37_5" function="internal">
        <lane id=":37_5_0" index="0" disallow="bus truck rail_fast" speed="36.11" length="4.99" width="3.03" shape="1.23,-4.24 -1.00,-8.71"/>
    </edge>
    <edge id=":38_0" function="internal">
        <lane id=":38_0_0" index="0" disallow="rail_fast" speed="36.11" length="3.02" width="3.06" shape="-16.49,-12.54 -17.84,-15.25"/>
        <lane id=":38_0_1" index="1" disallow="rail_fast" speed="36.11" length="3.02" width="2.99" shape="-13.78,-13.88 -15.10,-16.59"/>
        <lane id=":38_0_2" index="2" disallow="rail_fast" speed="36.11" length="3.02" width="3.06" shape="-11.02,-15.23 -12.35,-17.94"/>
    </edge>
    <edge id=":39_0" function="internal">
        <lane id=":39_0_0" index="0" disallow="rail_fast" speed="36.11" length="1.22" width="3.29" shape="-23.81,-27.30 -23.27,-26.21"/>
        <lane id=":39_0_1" index="1" disallow="rail_fast" speed="36.11" length="1.22" width="2.97" shape="-21.03,-28.74 -20.50,-27.64"/>
        <lane id=":39_0_2" index="2" disallow="rail_fast" speed="36.11" length="1.22" width="3.01" shape="-18.34,-30.12 -17.80,-29.03"/>
    </edge>
    <edge id=":5_0" function="internal">
        <lane id=":5_0_0" index="0" disallow="bus truck rail_fast" speed="8.72" length="16.70" width="3.23" shape="-36.14,-20.82 -34.90,-21.46 -33.75,-22.09 -32.67,-22.73 -31.68,-23.36 -30.77,-23.99 -29.94,-24.62 -29.19,-25.24 -28.53,-25.87 -27.95,-26.49 -27.45,-27.12 -27.04,-27.74 -26.70,-28.35 -26.45,-28.97 -26.28,-29.59 -26.19,-30.20 -26.19,-30.81 -26.27,-31.42 -26.43,-32.03 -26.67,-32.64"/>
    </edge>
    <edge id=":5_1" function="internal">
        <lane id=":5_1_0" index="0" disallow="rail_fast" speed="36.11" length="13.86" width="3.23" shape="-36.14,-20.82 -23.85,-27.17"/>
        <lane id=":5_1_1" index="1" disallow="rail_fast" speed="36.11" length="13.86" width="3.03" shape="-34.75,-18.02 -22.38,-24.31"/>
    </edge>
    <edge id=":5_3" function="internal">
        <lane id=":5_3_0" index="0" disallow="bus truck rail_fast" speed="36.11" length="1.56" width="2.92" shape="-33.40,-15.29 -34.80,-14.60"/>
    </edge>
    <edge id=":6_0" function="internal">
        <lane id=":6_0_0" index="0" disallow="bus truck rail_fast" speed="9.12" length="13.80" width="3.05" shape="7.57,-23.38 7.20,-22.95 6.88,-22.50 6.60,-22.01 6.37,-21.50 6.19,-20.96 6.05,-20.39 5.95,-19.80 5.90,-19.17 5.90,-18.52 5.94,-17.84 6.03,-17.13 6.16,-16.39 6.34,-15.62 6.57,-14.83 6.84,-14.00 7.15,-13.15 7.51,-12.27 7.92,-11.37 8.37,-10.43"/>
    </edge>
    <edge id=":6_1" function="internal">
        <lane id=":6_1_0" index="0" disallow="rail_fast" speed="36.11" length="13.06" width="3.05" shape="2.73,-22.16 8.37,-10.43"/>
        <lane id=":6_1_1" index="1" disallow="rail_fast" speed="36.11" length="13.06" width="2.91" shape="-0.09,-20.80 5.56,-9.02"/>
        <lane id=":6_1_2" index="2" disallow="rail_fast" speed="36.11" length="13.06" width="2.89" shape="-2.81,-19.49 2.85,-7.67"/>
    </edge>
    <edge id=":6_4" function="internal">
        <lane id=":6_4_0" index="0" disallow="bus truck rail_fast" speed="36.11" length="13.55" width="2.89" shape="-3.67,-19.55 2.85,-7.67"/>
    </edge>
    <edge id=":7_0" function="internal">
        <lane id=":7_0_0" index="0" disallow="rail_fast" speed="36.11" length="0.24" width="3.05" shape="18.71,10.83 18.81,11.03"/>
        <lane id=":7_0_1" index="1" disallow="rail_fast" speed="36.11" length="0.24" width="2.91" shape="16.04,12.16 16.15,12.38"/>
        <lane id=":7_0_2" index="2" disallow="rail_fast" speed="36.11" length="0.24" width="2.89" shape="13.44,13.46 13.55,13.68"/>
    </edge>
    <edge id=":8_0" function="internal">
        <lane id=":8_0_0" index="0" disallow="rail_fast" speed="36.11" length="3.05" width="3.03" shape="21.92,17.11 23.30,19.84"/>
        <lane id=":8_0_1" index="1" disallow="rail_fast" speed="36.11" length="3.05" width="3.00" shape="19.20,18.47 20.57,21.19"/>
        <lane id=":8_0_2" index="2" disallow="rail_fast" speed="36.11" length="3.05" width="2.94" shape="16.56,19.79 17.90,22.52"/>
    </edge>
    <edge id=":9_0" function="internal">
        <lane id=":9_0_0" index="0" disallow="bus truck rail_fast" speed="10.11" length="13.46" width="3.16" shape="31.55,36.37 31.99,37.21 32.44,38.01 32.89,38.76 33.35,39.47 33.81,40.14 34.29,40.77 34.77,41.36 35.26,41.90 35.75,42.40 36.25,42.85 36.76,43.26 37.28,43.64 37.80,43.96 38.34,44.25 38.87,44.49 39.42,44.69 39.97,44.85 40.53,44.96 41.10,45.03"/>
    </edge>
    <edge id=":9_1" function="internal">
        <lane id=":9_1_0" index="0" disallow="rail_fast" speed="36.11" length="13.11" width="3.16" shape="31.55,36.37 37.36,48.13"/>
        <lane id=":9_1_1" index="1" disallow="bus rail_fast" speed="36.11" length="13.11" width="2.93" shape="28.77,37.72 34.60,49.47"/>
        <lane id=":9_1_2" index="2" disallow="rail_fast" speed="36.11" length="13.11" width="3.07" shape="26.03,39.05 31.86,50.80"/>
    </edge>

    <edge id="3426" from="34" to="35" priority="1" spreadType="center" length="21.90">
        <lane id="3426_0" index="0" disallow="rail_fast" speed="36.11" length="21.90" width="2.78" customShape="1" shape="12.82,46.22 8.34,37.33 4.82,30.36"/>
        <lane id="3426_1" index="1" disallow="rail_fast" speed="36.11" length="21.90" width="3.00" customShape="1" shape="15.42,44.96 11.00,36.08 7.48,29.01"/>
        <lane id="3426_2" index="2" disallow="rail_fast" speed="36.11" length="21.90" width="3.02" customShape="1" shape="18.15,43.64 13.68,34.64 10.22,27.63"/>
        <lane id="3426_3" index="3" disallow="rail_fast" speed="36.11" length="21.90" width="2.96" customShape="1" shape="20.87,42.32 16.37,33.19 12.94,26.26"/>
        <lane id="3426_4" index="4" disallow="rail_fast" speed="36.11" length="21.90" width="3.03" customShape="1" shape="23.58,41.01 19.09,31.80 15.69,24.87"/>
    </edge>
    <edge id="3438" from="35" to="36" priority="1" spreadType="center" length="8.44">
        <lane id="3438_0" index="0" disallow="rail_fast" speed="36.11" length="8.44" width="2.94" customShape="1" shape="0.04,24.63 -0.34,24.27"/>
        <lane id="3438_1" index="1" disallow="rail_fast" speed="36.11" length="8.44" width="2.94" customShape="1" shape="1.51,23.80 1.32,23.42"/>
        <lane id="3438_2" index="2" disallow="rail_fast" speed="36.11" length="8.44" width="3.05" customShape="1" shape="4.15,22.30 4.02,22.03"/>
        <lane id="3438_3" index="3" disallow="rail_fast" speed="36.11" length="8.44" width="3.03" customShape="1" shape="6.81,20.79 6.73,20.63"/>
        <lane id="3438_4" index="4" disallow="rail_fast" speed="36.11" length="8.44" width="3.05" customShape="1" shape="9.47,19.29 9.42,19.20"/>
        <lane id="3438_5" index="5" disallow="rail_fast" speed="36.11" length="8.44" width="3.12" customShape="1" shape="12.70,18.80 12.61,18.63"/>
    </edge>
    <edge id="3450" from="36" to="37" priority="1" spreadType="center" length="24.49">
        <lane id="3450_0" index="0" disallow="rail_fast" speed="36.11" length="24.49" width="3.22" customShape="1" shape="-3.03,21.76 -6.21,15.50 -10.00,7.81 -12.57,2.80"/>
        <lane id="3450_1" index="1" disallow="rail_fast" speed="36.11" length="24.49" width="2.87" customShape="1" shape="-0.20,20.40 -3.21,14.35 -7.03,6.40 -9.61,1.29"/>
        <lane id="3450_2" index="2" disallow="rail_fast" speed="36.11" length="24.49" width="3.00" customShape="1" shape="2.55,19.07 -0.48,13.02 -4.33,5.07 -6.96,-0.06"/>
        <lane id="3450_3" index="3" disallow="rail_fast" speed="36.11" length="24.49" width="3.02" customShape="1" shape="5.28,17.73 2.19,11.57 -1.69,3.62 -4.23,-1.46"/>
        <lane id="3450_4" index="4" disallow="rail_fast" speed="36.11" length="24.49" width="3.02" customShape="1" shape="8.00,16.35 4.88,10.11 0.99,2.16 -1.48,-2.86"/>
        <lane id="3450_5" index="5" disallow="rail_fast" speed="36.11" length="24.49" width="3.03" customShape="1" shape="10.79,14.93 7.57,8.61 3.69,0.66 1.23,-4.24"/>
    </edge>
    <edge id="3456" from="6" to="7" priority="1" spreadType="center" length="24.71">
        <lane id="3456_0" index="0" disallow="rail_fast" speed="36.11" length="24.71" width="3.05" customShape="1" shape="8.37,-10.43 11.54,-4.10 15.39,3.82 18.71,10.83"/>
        <lane id="3456_1" index="1" disallow="rail_fast" speed="36.11" length="24.71" width="2.91" customShape="1" shape="5.56,-9.02 8.97,-2.33 12.65,5.24 16.04,12.16"/>
        <lane id="3456_2" index="2" disallow="rail_fast" speed="36.11" length="24.71" width="2.89" customShape="1" shape="2.85,-7.67 6.34,-0.77 10.13,6.94 13.44,13.46"/>
    </edge>
    <edge id="3462" from="7" to="8" priority="1" spreadType="center" length="8.47">
        <lane id="3462_0" index="0" disallow="rail_fast" speed="36.11" length="8.47" width="3.05" customShape="1" shape="18.81,11.03 21.92,17.11"/>
        <lane id="3462_1" index="1" disallow="rail_fast" speed="36.11" length="8.47" width="2.91" customShape="1" shape="16.15,12.38 19.20,18.47"/>
        <lane id="3462_2" index="2" disallow="rail_fast" speed="36.11" length="8.47" width="2.89" customShape="1" shape="13.55,13.68 16.56,19.79"/>
    </edge>
    <edge id="3468" from="8" to="9" priority="1" spreadType="center" length="22.24">
        <lane id="3468_0" index="0" disallow="rail_fast" speed="36.11" length="22.24" width="3.03" customShape="1" shape="23.30,19.84 27.23,27.78 31.55,36.37"/>
        <lane id="3468_1" index="1" disallow="rail_fast" speed="36.11" length="22.24" width="3.00" customShape="1" shape="20.57,21.19 24.56,29.20 28.77,37.72"/>
        <lane id="3468_2" index="2" disallow="rail_fast" speed="36.11" length="22.24" width="2.94" customShape="1" shape="17.90,22.52 21.86,30.58 26.03,39.05"/>
    </edge>
    <edge id="3498" from="1" to="2" priority="1" spreadType="center" length="9.59">
        <lane id="3498_0" index="0" disallow="rail_fast" speed="36.11" length="9.59" width="4.77" customShape="1" shape="62.56,50.21 53.38,50.51"/>
    </edge>
    <edge id="3500" from="25" to="26" priority="1" spreadType="center" length="9.59">
        <lane id="3500_0" index="0" disallow="rail_fast" speed="36.11" length="9.59" width="5.36" customShape="1" shape="54.20,45.42 62.35,45.15"/>
    </edge>
    <edge id="3509" from="4" to="5" priority="1" spreadType="center" length="15.63">
        <lane id="3509_0" index="0" disallow="rail_fast" speed="36.11" length="15.63" width="3.23" customShape="1" shape="-48.23,-14.81 -43.84,-16.99 -36.14,-20.82"/>
        <lane id="3509_1" index="1" disallow="rail_fast" speed="36.11" length="15.63" width="3.02" customShape="1" shape="-46.84,-12.01 -42.41,-14.21 -34.75,-18.02"/>
        <lane id="3509_2" index="2" disallow="rail_fast" speed="36.11" length="15.63" width="3.06" customShape="1" shape="-45.49,-9.29 -41.00,-11.52 -33.40,-15.29"/>
    </edge>
    <edge id="3517" from="23" to="24" priority="1" spreadType="center" length="14.50">
        <lane id="3517_0" index="0" disallow="rail_fast" speed="36.11" length="14.50" width="5.13" acceleration="1" customShape="1" shape="-29.26,-4.49 -36.60,-0.96 -40.22,1.01"/>
        <lane id="3517_1" index="1" disallow="rail_fast" speed="36.11" length="14.50" width="3.11" customShape="1" shape="-31.05,-8.81 -38.49,-4.81 -42.19,-2.60"/>
        <lane id="3517_2" index="2" disallow="rail_fast" speed="36.11" length="14.50" width="3.66" customShape="1" shape="-32.36,-11.95 -40.02,-7.84 -43.81,-5.57"/>
    </edge>