<routes>
	<vehicle depart="0.1" departLane="0" departPos="41.897095647122185" departSpeed="0.0" id="31" type="passenger">
		<route edges="1901 1486"/>
	</vehicle>
	<vehicle depart="0.1" departLane="0" departPos="19.383620543944076" departSpeed="5.2844521" id="32" type="passenger">
		<route edges=":50_2 1489 1900"/>
	</vehicle>
	<vehicle depart="0.1" departLane="0" departPos="33.58036392238574" departSpeed="6.6914123" id="39" type="passenger">
		<route edges=":52_3 1900 1955"/>
	</vehicle>
	<vehicle depart="0.1" departLane="0" departPos="16.62410592123626" departSpeed="10.582488" id="314" type="passenger">
		<route edges="1490 1493"/>
	</vehicle>
	<vehicle depart="0.1" departLane="0" departPos="10.910472138934514" departSpeed="4.629791" id="315" type="passenger">
		<route edges="1489 1486"/>
	</vehicle>
	<vehicle depart="0.1" departLane="0" departPos="66.45463372520068" departSpeed="2.401879" id="318" type="passenger">
		<route edges="1760 1483"/>
	</vehicle>
	<vehicle depart="0.1" departLane="0" departPos="6.55561087807493" departSpeed="9.5344669" id="325" type="passenger">
		<route edges=":52_0 1900"/>
	</vehicle>
	<vehicle depart="0.1" departLane="0" departPos="4.954877982585155" departSpeed="2.8824697" id="354" type="passenger">
		<route edges=":51_0 1487"/>
	</vehicle>
	<vehicle depart="0.1" departLane="0" departPos="10.457148933342761" departSpeed="3.4583345" id="35" type="motorcycle">
		<route edges=":51_3 1487"/>
	</vehicle>
	<vehicle depart="0.1" departLane="0" departPos="30.630003745295962" departSpeed="11.211922" id="344" type="truck">
		<route edges=":51_0 1487 1490"/>
	</vehicle>
</routes>
