<!-- generated on Tue Feb  9 22:15:48 2021 by Eclipse SUMO netconvert Version 1.8.0
<configuration xmlns:xsi="http://www.w3.org/2001/XMLSchema-instance" xsi:noNamespaceSchemaLocation="http://sumo.dlr.de/xsd/netconvertConfiguration.xsd">

    <input>
        <node-files value="./converted_scenarios/scenario-factory/ITA_Empoli-5_1_I-1-1/ITA_Empoli-5_1_I-1-1.nod.xml"/>
        <edge-files value="./converted_scenarios/scenario-factory/ITA_Empoli-5_1_I-1-1/ITA_Empoli-5_1_I-1-1.edg.xml"/>
        <connection-files value="./converted_scenarios/scenario-factory/ITA_Empoli-5_1_I-1-1/ITA_Empoli-5_1_I-1-1.con.xml"/>
        <tllogic-files value="./converted_scenarios/scenario-factory/ITA_Empoli-5_1_I-1-1/ITA_Empoli-5_1_I-1-1.tll.xml"/>
        <type-files value="/home/zen/commonroad-interactive-benchmarks/install/commonroad-map-tool/crmapconverter/sumo_map/templates/DEU.typ.xml"/>
    </input>

    <output>
        <output-file value="./converted_scenarios/scenario-factory/ITA_Empoli-5_1_I-1-1/ITA_Empoli-5_1_I-1-1.net.xml"/>
    </output>

    <processing>
        <geometry.remove.keep-edges.explicit value="true"/>
        <geometry.avoid-overlap value="true"/>
        <offset.disable-normalization value="true"/>
    </processing>

    <junctions>
        <no-turnarounds value="true"/>
        <junctions.internal-link-detail value="20"/>
    </junctions>

    <report>
        <aggregate-warnings value="5"/>
    </report>

    <random_number>
        <seed value="1234"/>
    </random_number>

</configuration>
--><net xmlns:xsi="http://www.w3.org/2001/XMLSchema-instance" version="1.6" junctionCornerDetail="5" junctionLinkDetail="20" limitTurnSpeed="5.50" xsi:noNamespaceSchemaLocation="http://sumo.dlr.de/xsd/net_file.xsd">

    <location netOffset="0.00,0.00" convBoundary="275.25,716.66,538.26,967.66" origBoundary="275.25,716.66,538.26,967.66" projParameter="!"/>

    <type id="highway.bridleway" priority="1" speed="2.78" allow="pedestrian" oneway="1" width="2.00"/>
    <type id="highway.bus_guideway" priority="1" speed="27.78" allow="bus" oneway="1"/>
    <type id="highway.cycleway" priority="1" speed="8.33" allow="bicycle" oneway="0" width="1.00"/>
    <type id="highway.footway" priority="1" speed="2.78" allow="pedestrian" oneway="1" width="2.00"/>
    <type id="highway.ford" priority="1" speed="2.78" allow="army" oneway="0"/>
    <type id="highway.living_street" priority="2" speed="2.78" disallow="tram rail_urban rail rail_electric rail_fast ship" oneway="0"/>
    <type id="highway.motorway" priority="14" speed="39.44" allow="private emergency authority army vip passenger hov taxi bus coach delivery truck trailer motorcycle evehicle custom1 custom2" oneway="1"/>
    <type id="highway.motorway_link" priority="9" speed="22.22" allow="private emergency authority army vip passenger hov taxi bus coach delivery truck trailer motorcycle evehicle custom1 custom2" oneway="1"/>
    <type id="highway.path" priority="1" speed="2.78" allow="pedestrian bicycle" oneway="0" width="2.00"/>
    <type id="highway.pedestrian" priority="1" speed="2.78" allow="pedestrian" oneway="1" width="2.00"/>
    <type id="highway.primary" priority="12" speed="27.78" disallow="pedestrian tram rail_urban rail rail_electric rail_fast ship" oneway="0"/>
    <type id="highway.primary_link" priority="7" speed="22.22" disallow="pedestrian tram rail_urban rail rail_electric rail_fast ship" oneway="0"/>
    <type id="highway.raceway" priority="15" speed="83.33" allow="vip" oneway="0"/>
    <type id="highway.residential" priority="3" speed="13.89" disallow="pedestrian tram rail_urban rail rail_electric rail_fast ship" oneway="0"/>
    <type id="highway.secondary" priority="11" speed="27.78" disallow="pedestrian tram rail_urban rail rail_electric rail_fast ship" oneway="0"/>
    <type id="highway.secondary_link" priority="6" speed="22.22" disallow="pedestrian tram rail_urban rail rail_electric rail_fast ship" oneway="0"/>
    <type id="highway.service" priority="1" speed="5.56" allow="pedestrian delivery bicycle" oneway="0"/>
    <type id="highway.stairs" priority="1" speed="1.39" allow="pedestrian" oneway="1" width="2.00"/>
    <type id="highway.step" priority="1" speed="1.39" allow="pedestrian" oneway="1" width="2.00"/>
    <type id="highway.steps" priority="1" speed="1.39" allow="pedestrian" oneway="1" width="2.00"/>
    <type id="highway.tertiary" priority="10" speed="22.22" disallow="pedestrian tram rail_urban rail rail_electric rail_fast ship" oneway="0"/>
    <type id="highway.tertiary_link" priority="5" speed="22.22" disallow="pedestrian tram rail_urban rail rail_electric rail_fast ship" oneway="0"/>
    <type id="highway.track" priority="1" speed="5.56" allow="pedestrian motorcycle moped bicycle" oneway="0"/>
    <type id="highway.trunk" priority="13" speed="27.78" disallow="pedestrian bicycle tram rail_urban rail rail_electric rail_fast ship" oneway="0"/>
    <type id="highway.trunk_link" priority="8" speed="22.22" disallow="pedestrian bicycle tram rail_urban rail rail_electric rail_fast ship" oneway="0"/>
    <type id="highway.unclassified" priority="4" speed="13.89" disallow="pedestrian tram rail_urban rail rail_electric rail_fast ship" oneway="0"/>
    <type id="highway.unsurfaced" priority="1" speed="8.33" disallow="tram rail_urban rail rail_electric rail_fast ship" oneway="0"/>
    <type id="railway.highspeed" priority="21" speed="69.44" allow="rail_fast" oneway="1"/>
    <type id="railway.light_rail" priority="19" speed="27.78" allow="rail_urban" oneway="1"/>
    <type id="railway.preserved" priority="16" speed="27.78" allow="rail" oneway="1"/>
    <type id="railway.rail" priority="20" speed="44.44" allow="rail" oneway="1"/>
    <type id="railway.subway" priority="18" speed="27.78" allow="rail_urban" oneway="1"/>
    <type id="railway.tram" priority="17" speed="13.89" allow="tram" oneway="1"/>

    <edge id=":49_0" function="internal">
        <lane id=":49_0_0" index="0" disallow="pedestrian tram rail_urban rail rail_electric rail_fast ship" speed="36.11" length="38.76" width="3.50" shape="381.79,886.01 372.65,888.34 344.17,895.34"/>
    </edge>
    <edge id=":49_1" function="internal">
        <lane id=":49_1_0" index="0" disallow="pedestrian tram rail_urban rail rail_electric rail_fast ship" speed="12.65" length="34.86" width="3.50" shape="381.79,886.01 380.55,886.30 378.06,886.74 375.49,886.94 372.89,886.85 370.30,886.42 367.80,885.63 366.55,885.07 365.39,884.42 364.25,883.67 362.25,882.01 360.48,880.10 358.96,878.02 357.66,875.82 356.55,873.54 355.21,870.09"/>
    </edge>
    <edge id=":49_2" function="internal">
        <lane id=":49_2_0" index="0" disallow="pedestrian tram rail_urban rail rail_electric rail_fast ship" speed="11.68" length="29.56" width="3.50" shape="358.53,868.97 359.70,872.01 360.66,873.98 361.77,875.87 363.05,877.65 364.53,879.27 366.21,880.68 367.12,881.29 368.08,881.82 369.07,882.28 371.16,882.96 373.32,883.33 375.51,883.41 377.69,883.25 379.85,882.87 380.92,882.62"/>
    </edge>
    <edge id=":49_3" function="internal">
        <lane id=":49_3_0" index="0" disallow="pedestrian tram rail_urban rail rail_electric rail_fast ship" speed="11.94" length="35.09" width="3.50" shape="358.53,868.97 359.58,872.69 360.05,875.30 360.25,877.98 360.11,880.66 359.87,882.06 359.52,883.41 359.05,884.74 358.44,886.01 357.71,887.22 356.87,888.35 355.94,889.39 354.89,890.36 352.71,891.95 350.34,893.23 347.88,894.24 344.17,895.34"/>
    </edge>
    <edge id=":49_4" function="internal">
        <lane id=":49_4_0" index="0" disallow="pedestrian tram rail_urban rail rail_electric rail_fast ship" speed="10.93" length="29.19" width="3.50" shape="343.32,891.94 346.56,890.99 348.64,890.14 350.61,889.06 352.43,887.74 353.25,886.97 354.00,886.14 354.67,885.24 355.25,884.27 355.73,883.26 356.11,882.20 356.39,881.11 356.57,880.00 356.69,877.76 356.52,875.52 356.12,873.30 355.21,870.09"/>
    </edge>
    <edge id=":49_5" function="internal">
        <lane id=":49_5_0" index="0" disallow="pedestrian tram rail_urban rail rail_electric rail_fast ship" speed="36.11" length="38.74" width="3.50" shape="343.32,891.94 371.79,884.95 380.92,882.62"/>
    </edge>
    <edge id=":50_0" function="internal">
        <lane id=":50_0_0" index="0" disallow="pedestrian tram rail_urban rail rail_electric rail_fast ship" speed="36.11" length="37.95" width="3.50" shape="427.32,835.42 423.91,826.85 418.32,813.62 412.40,800.53"/>
    </edge>
    <edge id=":50_1" function="internal">
        <lane id=":50_1_0" index="0" disallow="pedestrian tram rail_urban rail rail_electric rail_fast ship" speed="12.45" length="34.02" width="3.50" shape="427.32,835.42 426.88,834.21 426.14,831.78 425.60,829.26 425.32,826.66 425.38,824.01 425.80,821.40 426.18,820.07 426.66,818.81 427.25,817.59 427.94,816.40 429.51,814.29 431.36,812.41 433.38,810.78 435.54,809.36 438.90,807.59"/>
    </edge>
    <edge id=":50_2" function="internal">
        <lane id=":50_2_0" index="0" disallow="pedestrian tram rail_urban rail rail_electric rail_fast ship" speed="11.46" length="28.68" width="3.50" shape="440.37,810.77 437.44,812.31 435.59,813.52 433.87,814.90 432.33,816.47 431.01,818.24 430.45,819.19 429.98,820.18 429.58,821.22 429.27,822.27 428.91,824.45 428.87,826.65 429.10,828.85 429.56,831.00 430.20,833.11 430.59,834.15"/>
    </edge>
    <edge id=":50_3" function="internal">
        <lane id=":50_3_0" index="0" disallow="pedestrian tram rail_urban rail rail_electric rail_fast ship" speed="12.19" length="34.14" width="3.50" shape="440.37,810.77 436.71,812.23 434.19,812.95 431.60,813.42 428.98,813.55 427.67,813.48 426.37,813.30 425.09,813.01 423.84,812.62 422.63,812.11 421.46,811.50 420.36,810.80 418.32,809.15 416.53,807.23 414.96,805.12 413.60,802.88 412.40,800.53"/>
    </edge>
    <edge id=":50_4" function="internal">
        <lane id=":50_4_0" index="0" disallow="pedestrian tram rail_urban rail rail_electric rail_fast ship" speed="11.19" length="28.58" width="3.50" shape="415.57,799.04 416.61,801.10 417.78,803.03 419.11,804.82 420.61,806.42 422.30,807.79 423.17,808.34 424.11,808.83 425.08,809.23 426.08,809.55 427.11,809.78 428.16,809.92 429.20,809.98 431.40,809.87 433.57,809.48 435.71,808.87 438.90,807.59"/>
    </edge>
    <edge id=":50_5" function="internal">
        <lane id=":50_5_0" index="0" disallow="pedestrian tram rail_urban rail rail_electric rail_fast ship" speed="36.11" length="38.19" width="3.50" shape="415.57,799.04 421.53,812.22 427.15,825.52 430.59,834.15"/>
    </edge>
    <edge id=":51_0" function="internal">
        <lane id=":51_0_0" index="0" disallow="pedestrian tram rail_urban rail rail_electric rail_fast ship" speed="36.11" length="39.38" width="3.50" shape="467.01,929.43 459.93,914.40 452.79,898.30 450.77,893.56"/>
    </edge>
    <edge id=":51_1" function="internal">
        <lane id=":51_1_0" index="0" disallow="pedestrian tram rail_urban rail rail_electric rail_fast ship" speed="12.76" length="35.35" width="3.50" shape="467.01,929.43 465.53,925.90 464.81,923.49 464.34,921.01 464.18,918.49 464.36,915.98 464.91,913.51 465.81,911.16 467.04,908.96 468.54,906.93 470.25,905.08 472.13,903.39 475.17,901.14 477.31,899.80"/>
    </edge>
    <edge id=":51_2" function="internal">
        <lane id=":51_2_0" index="0" disallow="pedestrian tram rail_urban rail rail_electric rail_fast ship" speed="11.80" length="30.07" width="3.50" shape="479.08,902.82 477.20,903.99 474.51,905.98 472.89,907.42 471.42,909.00 470.15,910.71 469.12,912.54 468.36,914.47 467.90,916.49 467.74,918.56 467.87,920.66 468.26,922.76 468.87,924.82 470.16,927.90"/>
    </edge>
    <edge id=":51_3" function="internal">
        <lane id=":51_3_0" index="0" disallow="pedestrian tram rail_urban rail rail_electric rail_fast ship" speed="11.80" length="35.18" width="3.50" shape="479.08,902.82 476.80,904.06 474.41,905.14 471.89,906.01 469.28,906.59 467.88,906.74 466.49,906.78 465.09,906.69 463.69,906.47 462.32,906.10 461.00,905.59 459.73,904.95 458.55,904.20 457.44,903.35 456.43,902.42 455.47,901.41 453.85,899.30 452.45,897.04 450.77,893.56"/>
    </edge>
    <edge id=":51_4" function="internal">
        <lane id=":51_4_0" index="0" disallow="pedestrian tram rail_urban rail rail_electric rail_fast ship" speed="10.77" length="29.12" width="3.50" shape="453.98,892.17 455.44,895.19 456.62,897.10 457.99,898.87 458.75,899.69 459.58,900.44 460.47,901.13 461.41,901.72 462.41,902.23 463.46,902.63 464.54,902.92 465.65,903.10 466.77,903.17 467.89,903.13 469.00,903.01 471.19,902.53 473.30,901.80 475.34,900.87 477.31,899.80"/>
    </edge>
    <edge id=":51_5" function="internal">
        <lane id=":51_5_0" index="0" disallow="pedestrian tram rail_urban rail rail_electric rail_fast ship" speed="36.11" length="39.23" width="3.50" shape="453.98,892.17 456.00,896.91 463.11,912.94 470.16,927.90"/>
    </edge>
    <edge id=":52_0" function="internal">
        <lane id=":52_0_0" index="0" disallow="pedestrian tram rail_urban rail rail_electric rail_fast ship" speed="12.19" length="30.34" width="3.50" shape="447.63,886.15 446.71,884.19 445.62,882.32 444.35,880.56 442.89,878.96 441.23,877.57 439.39,876.41 437.42,875.52 435.34,874.90 433.21,874.53 431.04,874.39 428.88,874.45 425.65,874.84 422.47,875.52"/>
    </edge>
    <edge id=":52_1" function="internal">
        <lane id=":52_1_0" index="0" disallow="pedestrian tram rail_urban rail rail_electric rail_fast ship" speed="36.11" length="38.88" width="3.50" shape="447.63,886.15 441.75,871.98 433.04,850.11"/>
    </edge>
    <edge id=":52_2" function="internal">
        <lane id=":52_2_0" index="0" disallow="pedestrian tram rail_urban rail rail_electric rail_fast ship" speed="36.11" length="38.77" width="3.50" shape="436.30,848.84 444.99,870.66 450.85,884.77"/>
    </edge>
    <edge id=":52_3" function="internal">
        <lane id=":52_3_0" index="0" disallow="pedestrian tram rail_urban rail rail_electric rail_fast ship" speed="11.90" length="35.53" width="3.50" shape="436.30,848.84 437.60,852.75 438.19,855.42 438.49,858.13 438.51,859.50 438.43,860.86 438.23,862.21 437.92,863.54 437.47,864.83 436.90,866.08 436.20,867.25 435.39,868.35 434.48,869.37 433.49,870.30 431.29,871.92 428.90,873.24 426.38,874.30 422.47,875.52"/>
    </edge>
    <edge id=":52_4" function="internal">
        <lane id=":52_4_0" index="0" disallow="pedestrian tram rail_urban rail rail_electric rail_fast ship" speed="10.88" length="29.49" width="3.50" shape="421.59,872.14 425.00,871.08 427.14,870.17 429.14,869.07 430.97,867.72 431.75,866.99 432.48,866.18 433.12,865.32 433.66,864.40 434.11,863.43 434.46,862.41 434.71,861.36 434.87,860.27 434.94,859.17 434.92,858.07 434.67,855.77 434.17,853.51 433.04,850.11"/>
    </edge>
    <edge id=":52_5" function="internal">
        <lane id=":52_5_0" index="0" disallow="pedestrian tram rail_urban rail rail_electric rail_fast ship" speed="13.13" length="35.36" width="3.50" shape="421.59,872.14 425.19,871.36 428.85,870.93 431.37,870.87 433.89,871.05 436.39,871.50 438.85,872.26 441.20,873.34 443.37,874.74 445.34,876.41 447.06,878.30 448.54,880.36 449.79,882.54 450.85,884.77"/>
    </edge>
    <edge id=":53_0" function="internal">
        <lane id=":53_0_0" index="0" disallow="pedestrian tram rail_urban rail rail_electric rail_fast ship" speed="36.11" length="23.84" width="3.50" shape="472.97,794.15 459.24,801.78 452.41,805.20 451.96,805.41"/>
    </edge>
    <edge id=":53_1" function="internal">
        <lane id=":53_1_0" index="0" disallow="pedestrian tram rail_urban rail rail_electric rail_fast ship" speed="4.84" length="4.38" width="3.50" shape="471.21,790.49 469.82,790.05 468.24,789.29 467.27,788.64"/>
    </edge>
    <edge id=":53_2" function="internal">
        <lane id=":53_2_0" index="0" disallow="pedestrian tram rail_urban rail rail_electric rail_fast ship" speed="8.44" length="16.14" width="3.50" shape="450.47,802.24 453.62,800.60 456.07,798.98 457.88,797.46 459.48,795.73 460.49,794.28 461.29,792.71 461.74,791.38"/>
    </edge>
    <edge id=":54_0" function="internal">
        <lane id=":54_0_0" index="0" disallow="pedestrian tram rail_urban rail rail_electric rail_fast ship" speed="15.44" length="36.35" width="3.50" shape="345.26,840.71 344.51,838.82 343.58,837.04 342.47,835.37 341.18,833.83 339.76,832.41 337.34,830.50 334.71,828.88 331.90,827.51 328.97,826.36 324.91,825.13 320.76,824.19 315.48,823.35"/>
    </edge>
    <edge id=":54_1" function="internal">
        <lane id=":54_1_0" index="0" disallow="pedestrian tram rail_urban rail rail_electric rail_fast ship" speed="36.11" length="42.06" width="3.50" shape="345.26,840.71 342.93,833.90 331.38,801.01"/>
    </edge>
    <edge id=":54_2" function="internal">
        <lane id=":54_2_0" index="0" disallow="pedestrian tram rail_urban rail rail_electric rail_fast ship" speed="36.11" length="42.08" width="3.50" shape="334.68,799.84 346.24,832.76 348.56,839.56"/>
    </edge>
    <edge id=":54_3" function="internal">
        <lane id=":54_3_0" index="0" disallow="pedestrian tram rail_urban rail rail_electric rail_fast ship" speed="16.24" length="40.24" width="3.50" shape="315.92,819.88 321.59,820.79 326.07,821.82 330.47,823.18 333.67,824.46 336.75,826.01 339.67,827.85 342.34,830.03 343.96,831.66 345.40,833.45 346.66,835.37 347.72,837.42 348.56,839.56"/>
    </edge>

    <edge id="1431" from="54" to="44" priority="3" type="highway.residential" spreadType="center" length="5.74" shape="332.03,822.47 309.79,822.62">
        <lane id="1431_0" index="0" disallow="pedestrian tram rail_urban rail rail_electric rail_fast ship" speed="36.11" length="5.74" width="3.50" customShape="1" shape="315.48,823.35 312.62,822.98 309.79,822.62"/>
    </edge>
    <edge id="1432" from="47" to="54" priority="3" type="highway.residential" spreadType="center" length="5.76" shape="310.21,819.15 332.01,818.98">
        <lane id="1432_0" index="0" disallow="pedestrian tram rail_urban rail rail_electric rail_fast ship" speed="36.11" length="5.76" width="3.50" customShape="1" shape="310.21,819.15 313.06,819.51 315.92,819.88"/>
    </edge>
    <edge id="1483" from="51" to="21" priority="3" type="highway.residential" spreadType="center" length="42.51" shape="468.02,906.98 488.75,966.13">
        <lane id="1483_0" index="0" disallow="pedestrian tram rail_urban rail rail_electric rail_fast ship" speed="36.11" length="42.51" width="3.50" customShape="1" shape="470.16,927.90 479.45,947.00 488.75,966.13"/>
    </edge>
    <edge id="1484" from="36" to="51" priority="3" type="highway.residential" spreadType="center" length="42.54" shape="485.60,967.66 464.72,908.14">
        <lane id="1484_0" index="0" disallow="pedestrian tram rail_urban rail rail_electric rail_fast ship" speed="36.11" length="42.54" width="3.50" customShape="1" shape="485.60,967.66 476.30,948.53 467.00,929.40"/>
    </edge>
    <edge id="1486" from="52" to="51" priority="3" type="highway.residential" spreadType="center" length="8.07" shape="436.63,868.44 467.74,906.50">
        <lane id="1486_0" index="0" disallow="pedestrian tram rail_urban rail rail_electric rail_fast ship" speed="36.11" length="8.07" width="3.50" customShape="1" shape="450.85,884.77 452.42,888.48 453.99,892.20"/>
    </edge>
    <edge id="1487" from="51" to="52" priority="3" type="highway.residential" spreadType="center" length="8.07" shape="465.03,908.71 433.92,870.65">
        <lane id="1487_0" index="0" disallow="pedestrian tram rail_urban rail rail_electric rail_fast ship" speed="36.11" length="8.07" width="3.50" customShape="1" shape="450.77,893.56 449.19,889.84 447.62,886.13"/>
    </edge>
    <edge id="1489" from="50" to="52" priority="3" type="highway.residential" spreadType="center" length="15.78" shape="429.26,814.34 437.05,869.40">
        <lane id="1489_0" index="0" disallow="pedestrian tram rail_urban rail rail_electric rail_fast ship" speed="36.11" length="15.78" width="3.50" customShape="1" shape="430.59,834.15 433.45,841.51 436.31,848.86"/>
    </edge>
    <edge id="1490" from="52" to="50" priority="3" type="highway.residential" spreadType="center" length="15.77" shape="433.59,869.89 425.79,814.83">
        <lane id="1490_0" index="0" disallow="pedestrian tram rail_urban rail rail_electric rail_fast ship" speed="36.11" length="15.77" width="3.50" customShape="1" shape="433.04,850.11 430.18,842.77 427.32,835.41"/>
    </edge>
    <edge id="1492" from="37" to="50" priority="3" type="highway.residential" spreadType="center" length="70.01" shape="385.97,735.61 429.07,813.77">
        <lane id="1492_0" index="0" disallow="pedestrian tram rail_urban rail rail_electric rail_fast ship" speed="36.11" length="70.01" width="3.50" customShape="1" shape="385.97,735.61 415.57,799.05"/>
    </edge>
    <edge id="1493" from="50" to="25" priority="3" type="highway.residential" spreadType="center" length="69.99" shape="426.01,815.46 382.81,737.10">
        <lane id="1493_0" index="0" disallow="pedestrian tram rail_urban rail rail_electric rail_fast ship" speed="36.11" length="69.99" width="3.50" customShape="1" shape="412.40,800.53 382.81,737.10"/>
    </edge>
    <edge id="1501" from="53" to="50" priority="3" type="highway.residential" spreadType="center" length="12.77" shape="462.43,795.44 428.43,816.08">
        <lane id="1501_0" index="0" disallow="pedestrian tram rail_urban rail rail_electric rail_fast ship" speed="36.11" length="12.77" width="3.50" customShape="1" shape="451.96,805.41 446.16,808.09 440.37,810.77"/>
    </edge>
    <edge id="1502" from="50" to="53" priority="3" type="highway.residential" spreadType="center" length="12.77" shape="426.62,813.09 460.62,792.46">
        <lane id="1502_0" index="0" disallow="pedestrian tram rail_urban rail rail_electric rail_fast ship" speed="36.11" length="12.77" width="3.50" customShape="1" shape="438.90,807.59 444.69,804.91 450.49,802.23"/>
    </edge>
    <edge id="1609" from="53" to="31" priority="3" type="highway.residential" spreadType="center" length="81.27">
        <lane id="1609_0" index="0" disallow="pedestrian tram rail_urban rail rail_electric rail_fast ship" speed="36.11" length="81.27" width="3.50" customShape="1" shape="465.04,789.75 440.87,741.00 432.69,723.78 429.51,716.66"/>
    </edge>
    <edge id="1636" from="38" to="53" priority="3" type="highway.residential" spreadType="center" length="41.01">
        <lane id="1636_0" index="0" disallow="pedestrian tram rail_urban rail rail_electric rail_fast ship" speed="36.11" length="41.01" width="3.50" customShape="1" shape="509.75,775.99 496.56,782.34 472.79,793.76"/>
    </edge>
    <edge id="1638" from="49" to="54" priority="3" type="highway.residential" spreadType="center" length="31.05" shape="359.07,883.23 330.28,821.43">
        <lane id="1638_0" index="0" disallow="pedestrian tram rail_urban rail rail_electric rail_fast ship" speed="36.11" length="31.05" width="3.50" customShape="1" shape="355.21,870.09 350.23,855.37 345.25,840.68"/>
    </edge>
    <edge id="1639" from="54" to="49" priority="3" type="highway.residential" spreadType="center" length="31.05" shape="333.45,819.95 362.24,881.76">
        <lane id="1639_0" index="0" disallow="pedestrian tram rail_urban rail rail_electric rail_fast ship" speed="36.11" length="31.05" width="3.50" customShape="1" shape="348.56,839.56 353.54,854.25 358.53,868.97"/>
    </edge>
    <edge id="1760" from="27" to="51" priority="3" type="highway.residential" spreadType="center" length="70.00" shape="538.26,865.52 467.27,909.12">
        <lane id="1760_0" index="0" disallow="pedestrian tram rail_urban rail rail_electric rail_fast ship" speed="36.11" length="70.00" width="3.50" customShape="1" shape="538.26,865.52 536.12,866.92 525.91,874.28 519.29,878.85 509.03,885.23 479.08,902.82"/>
    </edge>
    <edge id="1761" from="51" to="19" priority="3" type="highway.residential" spreadType="center" length="69.99" shape="465.43,906.14 536.48,862.50">
        <lane id="1761_0" index="0" disallow="pedestrian tram rail_urban rail rail_electric rail_fast ship" speed="36.11" length="69.99" width="3.50" customShape="1" shape="477.31,899.80 507.37,882.15 517.61,875.77 524.21,871.19 534.49,863.79 536.48,862.50"/>
    </edge>
    <edge id="1829" from="48" to="54" priority="3" type="highway.residential" spreadType="center" length="70.01" shape="311.18,733.93 333.58,820.32">
        <lane id="1829_0" index="0" disallow="pedestrian tram rail_urban rail rail_electric rail_fast ship" speed="36.11" length="70.01" width="3.50" customShape="1" shape="311.18,733.93 320.18,759.17 334.69,799.87"/>
    </edge>
    <edge id="1830" from="54" to="45" priority="3" type="highway.residential" spreadType="center" length="69.99" shape="330.20,821.20 307.88,735.08">
        <lane id="1830_0" index="0" disallow="pedestrian tram rail_urban rail rail_electric rail_fast ship" speed="36.11" length="69.99" width="3.50" customShape="1" shape="331.38,801.01 316.88,760.34 307.88,735.08"/>
    </edge>
    <edge id="1900" from="52" to="49" priority="3" type="highway.residential" spreadType="center" length="42.02" shape="435.65,871.31 360.95,884.22">
        <lane id="1900_0" index="0" disallow="pedestrian tram rail_urban rail rail_electric rail_fast ship" speed="36.11" length="42.02" width="3.50" customShape="1" shape="422.47,875.52 402.13,880.77 381.78,886.01"/>
    </edge>
    <edge id="1901" from="49" to="52" priority="3" type="highway.residential" spreadType="center" length="42.00" shape="360.36,880.77 435.06,867.86">
        <lane id="1901_0" index="0" disallow="pedestrian tram rail_urban rail rail_electric rail_fast ship" speed="36.11" length="42.00" width="3.50" customShape="1" shape="380.92,882.62 401.26,877.38 421.59,872.14"/>
    </edge>
    <edge id="1954" from="46" to="49" priority="3" type="highway.residential" spreadType="center" length="70.03" shape="275.25,908.23 360.15,880.82">
        <lane id="1954_0" index="0" disallow="pedestrian tram rail_urban rail rail_electric rail_fast ship" speed="36.11" length="70.03" width="3.50" customShape="1" shape="275.25,908.23 303.90,901.38 343.36,891.94"/>
    </edge>
    <edge id="1955" from="49" to="35" priority="3" type="highway.residential" spreadType="center" length="70.00" shape="361.23,884.15 276.09,911.63">
        <lane id="1955_0" index="0" disallow="pedestrian tram rail_urban rail rail_electric rail_fast ship" speed="36.11" length="70.00" width="3.50" customShape="1" shape="344.17,895.34 304.71,904.78 276.09,911.63"/>
    </edge>

    <junction id="19" type="dead_end" x="536.48" y="862.50" incLanes="1761_0" intLanes="" shape="535.53,861.03 537.44,863.96" rightOfWay="edgePriority"/>
    <junction id="21" type="dead_end" x="488.75" y="966.13" incLanes="1483_0" intLanes="" shape="490.33,965.37 487.18,966.90" rightOfWay="edgePriority"/>
    <junction id="25" type="dead_end" x="382.81" y="737.10" incLanes="1493_0" intLanes="" shape="381.22,737.84 384.39,736.36" rightOfWay="edgePriority"/>
    <junction id="27" type="dead_end" x="538.26" y="865.52" incLanes="" intLanes="" shape="537.30,864.05 539.21,866.98" rightOfWay="edgePriority"/>
    <junction id="31" type="dead_end" x="429.51" y="716.66" incLanes="1609_0" intLanes="" shape="427.91,717.37 431.10,715.94" rightOfWay="edgePriority"/>
    <junction id="35" type="dead_end" x="276.09" y="911.63" incLanes="1955_0" intLanes="" shape="276.50,913.33 275.69,909.93" rightOfWay="edgePriority"/>
    <junction id="36" type="dead_end" x="485.60" y="967.66" incLanes="" intLanes="" shape="487.18,966.89 484.03,968.42" rightOfWay="edgePriority"/>
    <junction id="37" type="dead_end" x="385.97" y="735.61" incLanes="" intLanes="" shape="384.39,736.34 387.56,734.87" rightOfWay="edgePriority"/>
    <junction id="38" type="dead_end" x="509.75" y="775.99" incLanes="" intLanes="" shape="509.00,774.42 510.51,777.57" rightOfWay="edgePriority"/>
    <junction id="44" type="dead_end" x="309.79" y="822.62" incLanes="1431_0" intLanes="" shape="309.56,824.36 310.01,820.88" rightOfWay="edgePriority"/>
    <junction id="45" type="dead_end" x="307.88" y="735.08" incLanes="1830_0" intLanes="" shape="306.23,735.67 309.53,734.49" rightOfWay="edgePriority"/>
    <junction id="46" type="dead_end" x="275.25" y="908.23" incLanes="" intLanes="" shape="275.65,909.94 274.84,906.53" rightOfWay="edgePriority"/>
    <junction id="47" type="dead_end" x="310.21" y="819.15" incLanes="" intLanes="" shape="309.98,820.88 310.43,817.41" rightOfWay="edgePriority"/>
    <junction id="48" type="dead_end" x="311.18" y="733.93" incLanes="" intLanes="" shape="309.53,734.52 312.83,733.34" rightOfWay="edgePriority"/>
    <junction id="49" type="priority" x="360.66" y="882.50" incLanes="1900_0 1639_0 1954_0" intLanes=":49_0_0 :49_1_0 :49_2_0 :49_3_0 :49_4_0 :49_5_0" shape="382.23,887.70 380.48,880.92 375.82,881.63 371.66,881.22 368.02,879.70 364.90,877.05 362.28,873.29 360.18,868.40 353.55,870.65 354.74,875.57 354.75,879.83 353.58,883.43 351.22,886.36 347.67,888.63 342.95,890.24 344.58,897.04">
        <request index="0" response="000000" foes="001000" cont="0"/>
        <request index="1" response="110000" foes="111000" cont="0"/>
        <request index="2" response="100000" foes="100000" cont="0"/>
        <request index="3" response="100011" foes="100011" cont="0"/>
        <request index="4" response="000000" foes="000010" cont="0"/>
        <request index="5" response="000000" foes="001110" cont="0"/>
    </junction>
    <junction id="50" type="priority" x="427.52" y="814.58" incLanes="1490_0 1501_0 1492_0" intLanes=":50_0_0 :50_1_0 :50_2_0 :50_3_0 :50_4_0 :50_5_0" shape="425.69,836.05 432.22,833.51 430.90,828.91 430.70,824.74 431.63,821.00 433.67,817.69 436.83,814.80 441.10,812.35 438.17,806.00 433.60,807.63 429.46,808.09 425.75,807.39 422.46,805.53 419.60,802.50 417.16,798.31 410.82,801.27">
        <request index="0" response="000000" foes="001000" cont="0"/>
        <request index="1" response="110000" foes="111000" cont="0"/>
        <request index="2" response="100000" foes="100000" cont="0"/>
        <request index="3" response="100011" foes="100011" cont="0"/>