<routes>
	<vehicle depart="0.1" departLane="0" departPos="34.624118244433134" departSpeed="6.0799886" id="315" type="bicycle">
		<route edges="126032"/>
	</vehicle>
	<vehicle depart="0.1" departLane="0" departPos="49.06219166837985" departSpeed="9.6058341" id="328" type="bus">
		<route edges="126031 125293"/>
	</vehicle>
	<vehicle depart="0.1" departLane="0" departPos="20.2445329498441" departSpeed="1.9224262" id="32" type="passenger">
		<route edges=":12_1 126032"/>
	</vehicle>
	<vehicle depart="0.1" departLane="0" departPos="12.177463180896494" departSpeed="0.226484" id="33" type="passenger">
		<route edges=":12_2 125293"/>
	</vehicle>
	<vehicle depart="0.1" departLane="0" departPos="33.363521951249346" departSpeed="0.10788097" id="35" type="passenger">
		<route edges="126091 125293"/>
	</vehicle>
	<vehicle depart="0.1" departLane="0" departPos="35.62883635115668" departSpeed="13.942293" id="323" type="passenger">
		<route edges=":12_4 126032"/>
	</vehicle>
	<vehicle depart="0.1" departLane="0" departPos="20.42672200459692" departSpeed="6.0943548" id="327" type="passenger">
		<route edges="125299 126032"/>
	</vehicle>
	<vehicle depart="0.1" departLane="0" departPos="8.14819494427238" departSpeed="7.2286344" id="329" type="passenger">
		<route edges="125295 125299 126032"/>
	</vehicle>
</routes>
