<routes>
	<vehicle depart="0.1" departLane="1" departPos="104.64668513660494" departSpeed="11.534719" id="1" type="passenger">
		<route edges="26 28 24"/>
	</vehicle>
	<vehicle depart="0.1" departLane="0" departPos="0" departSpeed="14.277459" id="2" type="passenger">
		<route edges="26 26 28 24"/>
	</vehicle>
	<vehicle depart="0.1" departLane="0" departPos="116.11332832435161" departSpeed="4.0027168" id="3" type="passenger">
		<route edges="26 27 24"/>
	</vehicle>
</routes>
