<routes>
	<vehicle depart="0.1" departLane="0" departPos="10.708813705566826" departSpeed="2.1075261" id="328" type="passenger">
		<route edges=":91_11 3386"/>
	</vehicle>
	<vehicle depart="0.1" departLane="0" departPos="11.192343668211421" departSpeed="2.261275" id="335" type="passenger">
		<route edges=":91_5 3382"/>
	</vehicle>
	<vehicle depart="0.1" departLane="0" departPos="26.981197835123343" departSpeed="9.1083164" id="352" type="passenger">
		<route edges=":91_6 3547 3419"/>
	</vehicle>
	<vehicle depart="0.1" departLane="0" departPos="27.235950309808462" departSpeed="11.133849" id="363" type="passenger">
		<route edges="3383 3386"/>
	</vehicle>
	<vehicle depart="0.1" departLane="0" departPos="44.04049283430635" departSpeed="0.2086815" id="369" type="passenger">
		<route edges="3550 3386"/>
	</vehicle>
	<vehicle depart="0.1" departLane="0" departPos="2.5" departSpeed="13.482706" id="384" type="passenger">
		<route edges="3383 3386"/>
	</vehicle>
</routes>
