<!-- generated on Tue Feb  9 22:00:55 2021 by Eclipse SUMO netconvert Version 1.8.0
<configuration xmlns:xsi="http://www.w3.org/2001/XMLSchema-instance" xsi:noNamespaceSchemaLocation="http://sumo.dlr.de/xsd/netconvertConfiguration.xsd">

    <input>
        <node-files value="./converted_scenarios/scenario-factory/ARG_Carcarana-5_1_I-1-1/ARG_Carcarana-5_1_I-1-1.nod.xml"/>
        <edge-files value="./converted_scenarios/scenario-factory/ARG_Carcarana-5_1_I-1-1/ARG_Carcarana-5_1_I-1-1.edg.xml"/>
        <connection-files value="./converted_scenarios/scenario-factory/ARG_Carcarana-5_1_I-1-1/ARG_Carcarana-5_1_I-1-1.con.xml"/>
        <tllogic-files value="./converted_scenarios/scenario-factory/ARG_Carcarana-5_1_I-1-1/ARG_Carcarana-5_1_I-1-1.tll.xml"/>
        <type-files value="/home/zen/commonroad-interactive-benchmarks/install/commonroad-map-tool/crmapconverter/sumo_map/templates/DEU.typ.xml"/>
    </input>

    <output>
        <output-file value="./converted_scenarios/scenario-factory/ARG_Carcarana-5_1_I-1-1/ARG_Carcarana-5_1_I-1-1.net.xml"/>
    </output>

    <processing>
        <geometry.remove.keep-edges.explicit value="true"/>
        <geometry.avoid-overlap value="true"/>
        <offset.disable-normalization value="true"/>
    </processing>

    <junctions>
        <no-turnarounds value="true"/>
        <junctions.internal-link-detail value="20"/>
    </junctions>

    <report>
        <aggregate-warnings value="5"/>
    </report>

    <random_number>
        <seed value="1234"/>
    </random_number>

</configuration>
--><net xmlns:xsi="http://www.w3.org/2001/XMLSchema-instance" version="1.6" junctionCornerDetail="5" junctionLinkDetail="20" limitTurnSpeed="5.50" xsi:noNamespaceSchemaLocation="http://sumo.dlr.de/xsd/net_file.xsd">

    <location netOffset="0.00,0.00" convBoundary="219.77,-414.62,562.62,-44.37" origBoundary="219.77,-414.62,562.62,-44.37" projParameter="!"/>

    <type id="highway.bridleway" priority="1" speed="2.78" allow="pedestrian" oneway="1" width="2.00"/>
    <type id="highway.bus_guideway" priority="1" speed="27.78" allow="bus" oneway="1"/>
    <type id="highway.cycleway" priority="1" speed="8.33" allow="bicycle" oneway="0" width="1.00"/>
    <type id="highway.footway" priority="1" speed="2.78" allow="pedestrian" oneway="1" width="2.00"/>
    <type id="highway.ford" priority="1" speed="2.78" allow="army" oneway="0"/>
    <type id="highway.living_street" priority="2" speed="2.78" disallow="tram rail_urban rail rail_electric rail_fast ship" oneway="0"/>
    <type id="highway.motorway" priority="14" speed="39.44" allow="private emergency authority army vip passenger hov taxi bus coach delivery truck trailer motorcycle evehicle custom1 custom2" oneway="1"/>
    <type id="highway.motorway_link" priority="9" speed="22.22" allow="private emergency authority army vip passenger hov taxi bus coach delivery truck trailer motorcycle evehicle custom1 custom2" oneway="1"/>
    <type id="highway.path" priority="1" speed="2.78" allow="pedestrian bicycle" oneway="0" width="2.00"/>
    <type id="highway.pedestrian" priority="1" speed="2.78" allow="pedestrian" oneway="1" width="2.00"/>
    <type id="highway.primary" priority="12" speed="27.78" disallow="pedestrian tram rail_urban rail rail_electric rail_fast ship" oneway="0"/>
    <type id="highway.primary_link" priority="7" speed="22.22" disallow="pedestrian tram rail_urban rail rail_electric rail_fast ship" oneway="0"/>
    <type id="highway.raceway" priority="15" speed="83.33" allow="vip" oneway="0"/>
    <type id="highway.residential" priority="3" speed="13.89" disallow="pedestrian tram rail_urban rail rail_electric rail_fast ship" oneway="0"/>
    <type id="highway.secondary" priority="11" speed="27.78" disallow="pedestrian tram rail_urban rail rail_electric rail_fast ship" oneway="0"/>
    <type id="highway.secondary_link" priority="6" speed="22.22" disallow="pedestrian tram rail_urban rail rail_electric rail_fast ship" oneway="0"/>
    <type id="highway.service" priority="1" speed="5.56" allow="pedestrian delivery bicycle" oneway="0"/>
    <type id="highway.stairs" priority="1" speed="1.39" allow="pedestrian" oneway="1" width="2.00"/>
    <type id="highway.step" priority="1" speed="1.39" allow="pedestrian" oneway="1" width="2.00"/>
    <type id="highway.steps" priority="1" speed="1.39" allow="pedestrian" oneway="1" width="2.00"/>
    <type id="highway.tertiary" priority="10" speed="22.22" disallow="pedestrian tram rail_urban rail rail_electric rail_fast ship" oneway="0"/>
    <type id="highway.tertiary_link" priority="5" speed="22.22" disallow="pedestrian tram rail_urban rail rail_electric rail_fast ship" oneway="0"/>
    <type id="highway.track" priority="1" speed="5.56" allow="pedestrian motorcycle moped bicycle" oneway="0"/>
    <type id="highway.trunk" priority="13" speed="27.78" disallow="pedestrian bicycle tram rail_urban rail rail_electric rail_fast ship" oneway="0"/>
    <type id="highway.trunk_link" priority="8" speed="22.22" disallow="pedestrian bicycle tram rail_urban rail rail_electric rail_fast ship" oneway="0"/>
    <type id="highway.unclassified" priority="4" speed="13.89" disallow="pedestrian tram rail_urban rail rail_electric rail_fast ship" oneway="0"/>
    <type id="highway.unsurfaced" priority="1" speed="8.33" disallow="tram rail_urban rail rail_electric rail_fast ship" oneway="0"/>
    <type id="railway.highspeed" priority="21" speed="69.44" allow="rail_fast" oneway="1"/>
    <type id="railway.light_rail" priority="19" speed="27.78" allow="rail_urban" oneway="1"/>
    <type id="railway.preserved" priority="16" speed="27.78" allow="rail" oneway="1"/>
    <type id="railway.rail" priority="20" speed="44.44" allow="rail" oneway="1"/>
    <type id="railway.subway" priority="18" speed="27.78" allow="rail_urban" oneway="1"/>
    <type id="railway.tram" priority="17" speed="13.89" allow="tram" oneway="1"/>

    <edge id=":89_0" function="internal">
        <lane id=":89_0_0" index="0" disallow="pedestrian tram rail_urban rail rail_electric rail_fast ship" speed="11.25" length="28.88" width="3.50" shape="446.86,-245.18 445.99,-248.40 445.20,-250.48 444.19,-252.46 442.95,-254.31 442.24,-255.16 441.46,-255.95 440.61,-256.67 439.71,-257.32 438.75,-257.89 437.75,-258.37 436.71,-258.76 434.55,-259.31 432.34,-259.55 430.12,-259.54 427.91,-259.32 425.74,-258.95"/>
    </edge>
    <edge id=":89_1" function="internal">
        <lane id=":89_1_0" index="0" disallow="pedestrian tram rail_urban rail rail_electric rail_fast ship" speed="36.11" length="38.81" width="3.50" shape="446.86,-245.18 442.77,-264.15 438.69,-283.12"/>
    </edge>
    <edge id=":89_2" function="internal">
        <lane id=":89_2_0" index="0" disallow="pedestrian tram rail_urban rail rail_electric rail_fast ship" speed="12.19" length="34.33" width="3.50" shape="446.86,-245.18 446.23,-249.09 446.06,-251.72 446.16,-254.36 446.59,-256.96 446.94,-258.23 447.39,-259.47 447.94,-260.67 448.59,-261.82 449.35,-262.90 450.19,-263.92 451.12,-264.85 452.12,-265.71 454.30,-267.20 456.66,-268.39 459.12,-269.33 462.97,-270.35"/>
    </edge>
    <edge id=":89_3" function="internal">
        <lane id=":89_3_0" index="0" disallow="pedestrian tram rail_urban rail rail_electric rail_fast ship" speed="11.18" length="28.73" width="3.50" shape="463.69,-266.93 460.34,-266.04 458.25,-265.24 456.27,-264.24 454.45,-262.99 453.66,-262.31 452.91,-261.56 452.23,-260.74 451.63,-259.88 451.11,-258.96 450.67,-257.99 450.31,-256.99 450.03,-255.98 449.67,-253.79 449.59,-251.57 449.73,-249.32 450.28,-245.91"/>
    </edge>
    <edge id=":89_4" function="internal">
        <lane id=":89_4_0" index="0" disallow="pedestrian tram rail_urban rail rail_electric rail_fast ship" speed="36.11" length="38.78" width="3.50" shape="463.69,-266.93 444.69,-262.93 425.74,-258.95"/>
    </edge>
    <edge id=":89_5" function="internal">
        <lane id=":89_5_0" index="0" disallow="pedestrian tram rail_urban rail rail_electric rail_fast ship" speed="12.20" length="34.13" width="3.50" shape="463.69,-266.93 459.78,-266.32 457.16,-266.18 454.54,-266.30 451.95,-266.76 450.69,-267.12 449.46,-267.58 448.28,-268.15 447.15,-268.81 446.08,-269.57 445.08,-270.42 444.16,-271.36 442.54,-273.42 441.21,-275.69 440.16,-278.09 439.33,-280.58 438.69,-283.12"/>
    </edge>
    <edge id=":89_6" function="internal">
        <lane id=":89_6_0" index="0" disallow="pedestrian tram rail_urban rail rail_electric rail_fast ship" speed="11.20" length="28.57" width="3.50" shape="442.11,-283.86 442.66,-281.65 443.38,-279.50 444.27,-277.47 445.37,-275.57 446.72,-273.86 447.45,-273.13 448.25,-272.44 449.11,-271.83 450.01,-271.30 450.97,-270.85 451.96,-270.48 452.96,-270.18 455.13,-269.80 457.33,-269.70 459.56,-269.82 462.97,-270.35"/>
    </edge>
    <edge id=":89_7" function="internal">
        <lane id=":89_7_0" index="0" disallow="pedestrian tram rail_urban rail rail_electric rail_fast ship" speed="36.11" length="38.82" width="3.50" shape="442.11,-283.86 446.19,-264.89 450.28,-245.91"/>
    </edge>
    <edge id=":89_8" function="internal">
        <lane id=":89_8_0" index="0" disallow="pedestrian tram rail_urban rail rail_electric rail_fast ship" speed="12.15" length="34.13" width="3.50" shape="442.11,-283.86 442.71,-280.10 442.85,-277.51 442.72,-274.89 442.26,-272.31 441.87,-270.99 441.38,-269.73 440.78,-268.51 440.08,-267.34 439.27,-266.24 438.37,-265.22 437.40,-264.28 436.34,-263.41 434.16,-261.98 431.82,-260.82 429.39,-259.91 425.74,-258.95"/>
    </edge>
    <edge id=":89_9" function="internal">
        <lane id=":89_9_0" index="0" disallow="pedestrian tram rail_urban rail rail_electric rail_fast ship" speed="11.15" length="28.54" width="3.50" shape="425.01,-262.37 428.18,-263.21 430.24,-263.98 432.21,-264.95 434.05,-266.15 434.89,-266.85 435.69,-267.61 436.41,-268.43 437.06,-269.32 437.63,-270.26 438.12,-271.25 438.51,-272.27 438.83,-273.32 439.22,-275.48 439.33,-277.68 439.21,-279.87 438.69,-283.12"/>
    </edge>
    <edge id=":89_10" function="internal">
        <lane id=":89_10_0" index="0" disallow="pedestrian tram rail_urban rail rail_electric rail_fast ship" speed="36.11" length="38.79" width="3.50" shape="425.01,-262.37 443.97,-266.36 462.97,-270.35"/>
    </edge>
    <edge id=":89_11" function="internal">
        <lane id=":89_11_0" index="0" disallow="pedestrian tram rail_urban rail rail_electric rail_fast ship" speed="12.25" length="34.46" width="3.50" shape="425.01,-262.37 427.52,-262.81 430.10,-263.06 432.72,-263.07 435.37,-262.77 437.95,-262.13 439.26,-261.63 440.49,-261.04 441.67,-260.34 442.79,-259.54 443.83,-258.65 444.79,-257.68 445.68,-256.62 447.15,-254.42 448.34,-252.07 449.28,-249.62 450.28,-245.91"/>
    </edge>
    <edge id=":90_0" function="internal">
        <lane id=":90_0_0" index="0" disallow="pedestrian tram rail_urban rail rail_electric rail_fast ship" speed="11.22" length="28.74" width="3.50" shape="462.16,-174.13 461.60,-176.36 460.89,-178.52 460.00,-180.58 458.90,-182.50 457.55,-184.24 456.83,-184.98 456.03,-185.68 455.17,-186.31 454.27,-186.85 453.31,-187.32 452.32,-187.71 451.32,-188.01 449.14,-188.41 446.93,-188.52 444.69,-188.41 441.28,-187.88"/>
    </edge>
    <edge id=":90_1" function="internal">
        <lane id=":90_1_0" index="0" disallow="pedestrian tram rail_urban rail rail_electric rail_fast ship" speed="36.11" length="38.79" width="3.50" shape="462.16,-174.13 458.08,-193.10 453.99,-212.05"/>
    </edge>
    <edge id=":90_2" function="internal">
        <lane id=":90_2_0" index="0" disallow="pedestrian tram rail_urban rail rail_electric rail_fast ship" speed="12.19" length="34.32" width="3.50" shape="462.16,-174.13 461.71,-176.65 461.45,-179.21 461.42,-181.82 461.70,-184.46 462.33,-187.03 462.82,-188.34 463.40,-189.57 464.10,-190.75 464.89,-191.87 465.78,-192.91 466.75,-193.86 467.81,-194.75 470.00,-196.21 472.35,-197.39 474.79,-198.31 478.46,-199.29"/>
    </edge>
    <edge id=":90_3" function="internal">
        <lane id=":90_3_0" index="0" disallow="pedestrian tram rail_urban rail rail_electric rail_fast ship" speed="11.18" length="28.73" width="3.50" shape="479.19,-195.87 476.00,-195.02 473.93,-194.24 471.96,-193.25 470.12,-192.02 469.27,-191.31 468.48,-190.53 467.77,-189.69 467.12,-188.79 466.56,-187.84 466.09,-186.84 465.70,-185.80 465.17,-183.66 464.94,-181.46 464.96,-179.25 465.19,-177.05 465.58,-174.87"/>
    </edge>
    <edge id=":90_4" function="internal">
        <lane id=":90_4_0" index="0" disallow="pedestrian tram rail_urban rail rail_electric rail_fast ship" speed="36.11" length="38.74" width="3.50" shape="479.19,-195.87 460.25,-191.87 441.28,-187.88"/>
    </edge>
    <edge id=":90_5" function="internal">
        <lane id=":90_5_0" index="0" disallow="pedestrian tram rail_urban rail rail_electric rail_fast ship" speed="12.21" length="34.22" width="3.50" shape="479.19,-195.87 476.70,-195.43 474.14,-195.17 471.54,-195.15 468.91,-195.43 466.34,-196.05 465.04,-196.53 463.81,-197.10 462.63,-197.78 461.51,-198.57 460.47,-199.44 459.50,-200.40 458.61,-201.45 457.13,-203.62 455.93,-205.96 454.99,-208.39 453.99,-212.05"/>
    </edge>
    <edge id=":90_6" function="internal">
        <lane id=":90_6_0" index="0" disallow="pedestrian tram rail_urban rail rail_electric rail_fast ship" speed="11.21" length="28.65" width="3.50" shape="457.41,-212.80 458.28,-209.62 459.07,-207.56 460.08,-205.59 461.32,-203.77 462.04,-202.93 462.83,-202.16 463.67,-201.45 464.58,-200.81 465.53,-200.27 466.53,-199.80 467.57,-199.42 469.71,-198.90 471.91,-198.67 474.12,-198.69 476.31,-198.91 478.46,-199.29"/>
    </edge>
    <edge id=":90_7" function="internal">
        <lane id=":90_7_0" index="0" disallow="pedestrian tram rail_urban rail rail_electric rail_fast ship" speed="36.11" length="38.80" width="3.50" shape="457.41,-212.80 461.50,-193.84 465.58,-174.87"/>
    </edge>
    <edge id=":90_8" function="internal">
        <lane id=":90_8_0" index="0" disallow="pedestrian tram rail_urban rail rail_electric rail_fast ship" speed="12.13" length="33.99" width="3.50" shape="457.41,-212.80 457.86,-210.32 458.12,-207.78 458.15,-205.20 457.87,-202.59 457.25,-200.04 456.77,-198.75 456.20,-197.53 455.51,-196.36 454.73,-195.25 453.85,-194.22 452.90,-193.27 451.85,-192.39 449.68,-190.94 447.36,-189.77 444.94,-188.85 441.28,-187.88"/>
    </edge>
    <edge id=":90_9" function="internal">
        <lane id=":90_9_0" index="0" disallow="pedestrian tram rail_urban rail rail_electric rail_fast ship" speed="11.12" length="28.38" width="3.50" shape="440.56,-191.30 443.73,-192.14 445.77,-192.92 447.72,-193.90 449.54,-195.12 450.37,-195.82 451.15,-196.59 451.85,-197.43 452.49,-198.32 453.04,-199.26 453.50,-200.25 453.88,-201.27 454.40,-203.39 454.63,-205.57 454.60,-207.75 454.38,-209.92 453.99,-212.05"/>
    </edge>
    <edge id=":90_10" function="internal">
        <lane id=":90_10_0" index="0" disallow="pedestrian tram rail_urban rail rail_electric rail_fast ship" speed="36.11" length="38.73" width="3.50" shape="440.56,-191.30 459.52,-195.30 478.46,-199.29"/>
    </edge>
    <edge id=":90_11" function="internal">
        <lane id=":90_11_0" index="0" disallow="pedestrian tram rail_urban rail rail_electric rail_fast ship" speed="12.22" length="34.31" width="3.50" shape="440.56,-191.30 444.47,-191.91 447.11,-192.05 449.74,-191.91 452.34,-191.43 453.60,-191.06 454.83,-190.58 456.02,-190.00 457.15,-189.32 458.22,-188.54 459.21,-187.68 460.13,-186.73 461.74,-184.64 463.06,-182.35 464.11,-179.93 464.94,-177.43 465.58,-174.87"/>
    </edge>
    <edge id=":91_0" function="internal">
        <lane id=":91_0_0" index="0" disallow="pedestrian tram rail_urban rail rail_electric rail_fast ship" speed="11.13" length="28.38" width="3.50" shape="337.92,-148.21 337.09,-151.36 336.32,-153.40 335.34,-155.36 334.13,-157.17 333.43,-158.01 332.66,-158.79 331.84,-159.50 330.95,-160.14 330.01,-160.69 329.02,-161.16 328.00,-161.55 325.88,-162.08 323.71,-162.32 321.53,-162.31 319.35,-162.09 317.20,-161.72"/>
    </edge>
    <edge id=":91_1" function="internal">
        <lane id=":91_1_0" index="0" disallow="pedestrian tram rail_urban rail rail_electric rail_fast ship" speed="36.11" length="38.77" width="3.50" shape="337.92,-148.21 333.96,-167.16 329.99,-186.16"/>
    </edge>
    <edge id=":91_2" function="internal">
        <lane id=":91_2_0" index="0" disallow="pedestrian tram rail_urban rail rail_electric rail_fast ship" speed="12.19" length="34.18" width="3.50" shape="337.92,-148.21 337.35,-151.96 337.22,-154.56 337.37,-157.18 337.84,-159.76 338.24,-161.08 338.73,-162.34 339.33,-163.56 340.04,-164.73 340.85,-165.82 341.75,-166.84 342.72,-167.78 343.78,-168.65 345.97,-170.09 348.31,-171.25 350.74,-172.16 354.42,-173.14"/>
    </edge>
    <edge id=":91_3" function="internal">
        <lane id=":91_3_0" index="0" disallow="pedestrian tram rail_urban rail rail_electric rail_fast ship" speed="11.19" length="28.60" width="3.50" shape="355.15,-169.71 351.95,-168.87 349.89,-168.09 347.92,-167.12 346.08,-165.91 345.22,-165.21 344.43,-164.45 343.70,-163.62 343.05,-162.74 342.48,-161.80 341.99,-160.81 341.59,-159.79 341.27,-158.73 340.86,-156.57 340.74,-154.37 340.85,-152.17 341.34,-148.93"/>
    </edge>
    <edge id=":91_4" function="internal">
        <lane id=":91_4_0" index="0" disallow="pedestrian tram rail_urban rail rail_electric rail_fast ship" speed="36.11" length="38.78" width="3.50" shape="355.15,-169.71 336.17,-165.71 317.20,-161.72"/>
    </edge>
    <edge id=":91_5" function="internal">
        <lane id=":91_5_0" index="0" disallow="pedestrian tram rail_urban rail rail_electric rail_fast ship" speed="12.23" length="34.50" width="3.50" shape="355.15,-169.71 351.22,-169.09 348.57,-168.95 345.92,-169.08 343.31,-169.54 342.03,-169.91 340.79,-170.38 339.60,-170.95 338.46,-171.63 337.38,-172.40 336.37,-173.27 335.44,-174.21 333.82,-176.31 332.50,-178.61 331.45,-181.04 330.62,-183.56 329.99,-186.16"/>
    </edge>
    <edge id=":91_6" function="internal">
        <lane id=":91_6_0" index="0" disallow="pedestrian tram rail_urban rail rail_electric rail_fast ship" speed="11.23" length="28.91" width="3.50" shape="333.41,-186.88 333.97,-184.61 334.67,-182.44 335.57,-180.37 336.67,-178.45 338.02,-176.70 338.76,-175.96 339.56,-175.27 340.43,-174.64 341.34,-174.10 342.30,-173.64 343.31,-173.26 344.32,-172.97 346.51,-172.58 348.74,-172.47 351.00,-172.60 354.42,-173.14"/>
    </edge>
    <edge id=":91_7" function="internal">
        <lane id=":91_7_0" index="0" disallow="pedestrian tram rail_urban rail rail_electric rail_fast ship" speed="36.11" length="38.77" width="3.50" shape="333.41,-186.88 337.38,-167.88 341.34,-148.93"/>
    </edge>
    <edge id=":91_8" function="internal">
        <lane id=":91_8_0" index="0" disallow="pedestrian tram rail_urban rail rail_electric rail_fast ship" speed="12.22" length="34.33" width="3.50" shape="333.41,-186.88 334.03,-182.94 334.17,-180.31 334.05,-177.67 333.61,-175.07 333.25,-173.80 332.79,-172.57 332.24,-171.37 331.58,-170.23 330.82,-169.15 329.97,-168.14 329.04,-167.20 326.96,-165.57 324.69,-164.24 322.27,-163.18 319.77,-162.35 317.20,-161.72"/>
    </edge>
    <edge id=":91_9" function="internal">
        <lane id=":91_9_0" index="0" disallow="pedestrian tram rail_urban rail rail_electric rail_fast ship" speed="11.21" length="28.75" width="3.50" shape="316.48,-165.14 318.71,-165.69 320.86,-166.40 322.91,-167.30 324.81,-168.41 326.53,-169.77 327.26,-170.50 327.94,-171.32 328.55,-172.18 329.08,-173.10 329.52,-174.06 329.89,-175.06 330.18,-176.07 330.55,-178.26 330.65,-180.48 330.53,-182.73 329.99,-186.16"/>
    </edge>
    <edge id=":91_10" function="internal">
        <lane id=":91_10_0" index="0" disallow="pedestrian tram rail_urban rail rail_electric rail_fast ship" speed="36.11" length="38.77" width="3.50" shape="316.48,-165.14 335.45,-169.14 354.42,-173.14"/>
    </edge>
    <edge id=":91_11" function="internal">
        <lane id=":91_11_0" index="0" disallow="pedestrian tram rail_urban rail rail_electric rail_fast ship" speed="12.14" length="33.96" width="3.50" shape="316.48,-165.14 318.97,-165.58 321.51,-165.83 324.09,-165.84 326.70,-165.55 329.25,-164.92 330.53,-164.43 331.75,-163.85 332.92,-163.16 334.02,-162.37 335.05,-161.49 335.99,-160.53 336.86,-159.48 338.31,-157.31 339.47,-154.98 340.38,-152.56 341.34,-148.93"/>
    </edge>
    <edge id=":92_0" function="internal">
        <lane id=":92_0_0" index="0" disallow="pedestrian tram rail_urban rail rail_electric rail_fast ship" speed="11.21" length="28.66" width="3.50" shape="477.06,-104.97 476.21,-108.15 475.42,-110.21 474.44,-112.18 473.22,-114.02 472.51,-114.87 471.75,-115.66 470.92,-116.39 470.02,-117.04 469.08,-117.61 468.09,-118.09 467.06,-118.49 466.00,-118.81 463.83,-119.21 461.63,-119.33 459.43,-119.21 456.16,-118.70"/>
    </edge>
    <edge id=":92_1" function="internal">
        <lane id=":92_1_0" index="0" disallow="pedestrian tram rail_urban rail rail_electric rail_fast ship" speed="36.11" length="38.77" width="3.50" shape="477.06,-104.97 472.98,-123.90 468.90,-142.87"/>
    </edge>
    <edge id=":92_2" function="internal">
        <lane id=":92_2_0" index="0" disallow="pedestrian tram rail_urban rail rail_electric rail_fast ship" speed="12.19" length="34.36" width="3.50" shape="477.06,-104.97 476.61,-107.47 476.35,-110.04 476.33,-112.65 476.60,-115.28 477.24,-117.86 477.72,-119.17 478.31,-120.40 479.00,-121.59 479.80,-122.70 480.69,-123.74 481.65,-124.70 482.71,-125.58 484.91,-127.05 487.26,-128.23 489.70,-129.15 493.40,-130.14"/>
    </edge>
    <edge id=":92_3" function="internal">
        <lane id=":92_3_0" index="0" disallow="pedestrian tram rail_urban rail rail_electric rail_fast ship" speed="11.19" length="28.75" width="3.50" shape="494.12,-126.71 490.91,-125.86 488.84,-125.08 486.86,-124.09 485.02,-122.86 484.18,-122.14 483.39,-121.37 482.67,-120.52 482.03,-119.62 481.47,-118.67 480.99,-117.67 480.60,-116.63 480.08,-114.48 479.85,-112.28 479.87,-110.07 480.10,-107.87 480.48,-105.71"/>
    </edge>
    <edge id=":92_4" function="internal">
        <lane id=":92_4_0" index="0" disallow="pedestrian tram rail_urban rail rail_electric rail_fast ship" speed="36.11" length="38.80" width="3.50" shape="494.12,-126.71 475.14,-122.71 456.16,-118.70"/>
    </edge>
    <edge id=":92_5" function="internal">
        <lane id=":92_5_0" index="0" disallow="pedestrian tram rail_urban rail rail_electric rail_fast ship" speed="12.23" length="34.33" width="3.50" shape="494.12,-126.71 490.21,-126.10 487.58,-125.95 484.94,-126.06 482.34,-126.50 481.07,-126.85 479.83,-127.30 478.63,-127.86 477.48,-128.51 476.40,-129.27 475.39,-130.11 474.45,-131.04 472.80,-133.10 471.46,-135.38 470.39,-137.79 469.55,-140.29 468.90,-142.87"/>
    </edge>
    <edge id=":92_6" function="internal">
        <lane id=":92_6_0" index="0" disallow="pedestrian tram rail_urban rail rail_electric rail_fast ship" speed="11.23" length="28.77" width="3.50" shape="472.32,-143.61 472.88,-141.36 473.60,-139.21 474.51,-137.16 475.63,-135.27 477.00,-133.56 477.74,-132.83 478.56,-132.15 479.43,-131.55 480.34,-131.02 481.31,-130.58 482.32,-130.21 483.33,-129.93 485.52,-129.56 487.74,-129.47 489.99,-129.60 493.40,-130.14"/>
    </edge>
    <edge id=":92_7" function="internal">
        <lane id=":92_7_0" index="0" disallow="pedestrian tram rail_urban rail rail_electric rail_fast ship" speed="36.11" length="38.77" width="3.50" shape="472.32,-143.61 476.41,-124.64 480.48,-105.71"/>
    </edge>
    <edge id=":92_8" function="internal">
        <lane id=":92_8_0" index="0" disallow="pedestrian tram rail_urban rail rail_electric rail_fast ship" speed="12.15" length="34.09" width="3.50" shape="472.32,-143.61 472.95,-139.71 473.10,-137.09 472.98,-134.47 472.54,-131.89 472.18,-130.63 471.71,-129.40 471.15,-128.22 470.49,-127.09 469.72,-126.03 468.87,-125.03 467.94,-124.11 465.87,-122.50 463.60,-121.19 461.20,-120.15 458.70,-119.33 456.16,-118.70"/>
    </edge>
    <edge id=":92_9" function="internal">
        <lane id=":92_9_0" index="0" disallow="pedestrian tram rail_urban rail rail_electric rail_fast ship" speed="11.14" length="28.49" width="3.50" shape="455.44,-122.13 457.65,-122.67 459.79,-123.37 461.83,-124.26 463.72,-125.35 465.44,-126.68 466.17,-127.41 466.85,-128.20 467.46,-129.06 467.99,-129.96 468.45,-130.91 468.82,-131.89 469.11,-132.89 469.48,-135.05 469.58,-137.25 469.45,-139.47 468.90,-142.87"/>
    </edge>
    <edge id=":92_10" function="internal">
        <lane id=":92_10_0" index="0" disallow="pedestrian tram rail_urban rail rail_electric rail_fast ship" speed="36.11" length="38.80" width="3.50" shape="455.44,-122.13 474.42,-126.13 493.40,-130.14"/>
    </edge>
    <edge id=":92_11" function="internal">
        <lane id=":92_11_0" index="0" disallow="pedestrian tram rail_urban rail rail_electric rail_fast ship" speed="12.21" length="34.22" width="3.50" shape="455.44,-122.13 459.21,-122.71 461.81,-122.85 464.43,-122.71 467.02,-122.24 468.34,-121.85 469.61,-121.35 470.83,-120.76 472.00,-120.05 473.10,-119.25 474.13,-118.35 475.07,-117.38 475.95,-116.32 477.40,-114.14 478.57,-111.80 479.49,-109.37 480.48,-105.71"/>
    </edge>
    <edge id=":93_0" function="internal">
        <lane id=":93_0_0" index="0" disallow="pedestrian tram rail_urban rail rail_electric rail_fast ship" speed="11.27" length="28.98" width="3.50" shape="433.42,-307.56 432.86,-309.81 432.13,-311.98 431.22,-314.05 430.10,-315.97 428.73,-317.71 427.99,-318.45 427.18,-319.14 426.31,-319.76 425.39,-320.30 424.42,-320.76 423.41,-321.14 422.40,-321.44 420.20,-321.82 417.96,-321.93 415.70,-321.81 412.26,-321.27"/>
    </edge>
    <edge id=":93_1" function="internal">
        <lane id=":93_1_0" index="0" disallow="pedestrian tram rail_urban rail rail_electric rail_fast ship" speed="36.11" length="38.77" width="3.50" shape="433.42,-307.56 429.33,-326.51 425.25,-345.46"/>
    </edge>
    <edge id=":93_2" function="internal">
        <lane id=":93_2_0" index="0" disallow="pedestrian tram rail_urban rail rail_electric rail_fast ship" speed="12.16" length="34.17" width="3.50" shape="433.42,-307.56 432.97,-310.06 432.70,-312.61 432.67,-315.21 432.93,-317.82 433.53,-320.39 434.00,-321.69 434.58,-322.92 435.25,-324.10 436.03,-325.22 436.91,-326.26 437.86,-327.22 438.91,-328.11 441.08,-329.58 443.42,-330.77 445.85,-331.69 449.53,-332.67"/>
    </edge>
    <edge id=":93_3" function="internal">
        <lane id=":93_3_0" index="0" disallow="pedestrian tram rail_urban rail rail_electric rail_fast ship" speed="11.15" length="28.57" width="3.50" shape="450.25,-329.25 447.06,-328.40 445.01,-327.62 443.05,-326.62 441.23,-325.39 440.40,-324.68 439.62,-323.90 438.92,-323.06 438.29,-322.15 437.74,-321.20 437.28,-320.20 436.91,-319.17 436.40,-317.03 436.19,-314.85 436.22,-312.65 436.45,-310.46 436.84,-308.30"/>
    </edge>
    <edge id=":93_4" function="internal">
        <lane id=":93_4_0" index="0" disallow="pedestrian tram rail_urban rail rail_electric rail_fast ship" speed="36.11" length="38.82" width="3.50" shape="450.25,-329.25 431.26,-325.26 412.26,-321.27"/>
    </edge>
    <edge id=":93_5" function="internal">
        <lane id=":93_5_0" index="0" disallow="pedestrian tram rail_urban rail rail_electric rail_fast ship" speed="12.20" length="34.14" width="3.50" shape="450.25,-329.25 446.35,-328.64 443.73,-328.50 441.11,-328.63 438.52,-329.08 437.26,-329.45 436.03,-329.91 434.85,-330.47 433.72,-331.14 432.65,-331.90 431.65,-332.75 430.72,-333.69 429.10,-335.75 427.78,-338.02 426.72,-340.42 425.89,-342.91 425.25,-345.46"/>
    </edge>
    <edge id=":93_6" function="internal">
        <lane id=":93_6_0" index="0" disallow="pedestrian tram rail_urban rail rail_electric rail_fast ship" speed="11.20" length="28.58" width="3.50" shape="428.67,-346.20 429.23,-343.98 429.94,-341.84 430.84,-339.80 431.94,-337.91 433.29,-336.19 434.02,-335.46 434.82,-334.77 435.68,-334.16 436.58,-333.63 437.54,-333.18 438.53,-332.80 439.53,-332.51 441.70,-332.13 443.91,-332.02 446.14,-332.14 449.53,-332.67"/>
    </edge>
    <edge id=":93_7" function="internal">
        <lane id=":93_7_0" index="0" disallow="pedestrian tram rail_urban rail rail_electric rail_fast ship" speed="36.11" length="38.77" width="3.50" shape="428.67,-346.20 432.76,-327.25 436.84,-308.30"/>
    </edge>
    <edge id=":93_8" function="internal">
        <lane id=":93_8_0" index="0" disallow="pedestrian tram rail_urban rail rail_electric rail_fast ship" speed="12.16" length="34.19" width="3.50" shape="428.67,-346.20 429.27,-342.44 429.42,-339.84 429.28,-337.22 428.82,-334.64 428.43,-333.32 427.94,-332.06 427.34,-330.83 426.64,-329.67 425.83,-328.57 424.93,-327.55 423.96,-326.61 422.90,-325.74 420.71,-324.30 418.37,-323.15 415.94,-322.24 412.26,-321.27"/>
    </edge>
    <edge id=":93_9" function="internal">
        <lane id=":93_9_0" index="0" disallow="pedestrian tram rail_urban rail rail_electric rail_fast ship" speed="11.15" length="28.58" width="3.50" shape="411.54,-324.69 414.73,-325.53 416.79,-326.30 418.76,-327.27 420.60,-328.48 421.45,-329.18 422.25,-329.94 422.97,-330.76 423.62,-331.65 424.19,-332.59 424.68,-333.57 425.08,-334.60 425.39,-335.65 425.78,-337.81 425.89,-340.01 425.77,-342.20 425.25,-345.46"/>
    </edge>
    <edge id=":93_10" function="internal">
        <lane id=":93_10_0" index="0" disallow="pedestrian tram rail_urban rail rail_electric rail_fast ship" speed="36.11" length="38.82" width="3.50" shape="411.54,-324.69 430.54,-328.68 449.53,-332.67"/>
    </edge>
    <edge id=":93_11" function="internal">
        <lane id=":93_11_0" index="0" disallow="pedestrian tram rail_urban rail rail_electric rail_fast ship" speed="12.27" length="34.54" width="3.50" shape="411.54,-324.69 415.48,-325.31 418.13,-325.45 420.79,-325.32 423.40,-324.86 424.68,-324.50 425.92,-324.03 427.12,-323.46 428.27,-322.79 429.35,-322.02 430.36,-321.15 431.30,-320.21 432.94,-318.12 434.28,-315.83 435.35,-313.40 436.19,-310.88 436.84,-308.30"/>
    </edge>
    <edge id=":94_0" function="internal">