<routes>
	<vehicle depart="0.1" departLane="2" departPos="0" departSpeed="0.0" id="2487" type="passenger">
		<route edges="3632 3652 3616 3456 3462 3468 3713"/>
	</vehicle>
	<vehicle depart="0.1" departLane="0" departPos="23.226905159411473" departSpeed="11.8537" id="2488" type="passenger">
		<route edges="3542"/>
	</vehicle>
	<vehicle depart="0.1" departLane="3" departPos="47.161908523916466" departSpeed="0.0" id="2489" type="passenger">
		<route edges="3568 3632 3652 3616 3456 3462 3468 3713"/>
	</vehicle>
	<vehicle depart="0.1" departLane="0" departPos="0" departSpeed="12.4084" id="2496" type="passenger">
		<route edges="3542"/>
	</vehicle>
	<vehicle depart="0.1" departLane="0" departPos="52.130508809401974" departSpeed="9.7506" id="2497" type="passenger">
		<route edges="3664 3525"/>
	</vehicle>
	<vehicle depart="0.1" departLane="0" departPos="10.774901502579691" departSpeed="9.7445" id="2498" type="passenger">
		<route edges="3646 3626 3600 3626 3600 3542"/>
	</vehicle>
	<vehicle depart="0.1" departLane="2" departPos="52.52593060530437" departSpeed="15.4137" id="2500" type="passenger">
		<route edges="3542"/>
	</vehicle>
	<vehicle depart="0.1" departLane="0" departPos="0" departSpeed="11.1069" id="2501" type="passenger">
		<route edges="3610 3646 3626 3600 3542"/>
	</vehicle>
	<vehicle depart="0.1" departLane="2" departPos="27.557229372950108" departSpeed="15.2461" id="2502" type="passenger">
		<route edges="3542"/>
	</vehicle>
	<vehicle depart="0.1" departLane="1" departPos="32.597768704227384" departSpeed="11.2593" id="2507" type="passenger">
		<route edges="3542"/>
	</vehicle>
	<vehicle depart="0.1" departLane="1" departPos="14.297019090706424" departSpeed="6.666" id="2515" type="passenger">
		<route edges="3450 3610 3646 3626 3600 3626 3542"/>
	</vehicle>
	<vehicle depart="0.1" departLane="1" departPos="0" departSpeed="12.2652" id="2516" type="passenger">
		<route edges="3542"/>
	</vehicle>
	<vehicle depart="0.1" departLane="0" departPos="33.52181428068745" departSpeed="6.3673" id="2517" type="passenger">
		<route edges="3664 3525"/>
	</vehicle>
	<vehicle depart="0.1" departLane="1" departPos="18.920396574863116" departSpeed="5.3889" id="2518" type="passenger">
		<route edges="3664 3664 3680 3525"/>
	</vehicle>
	<vehicle depart="0.1" departLane="1" departPos="0" departSpeed="6.8428" id="2521" type="passenger">
		<route edges="3450 3610 3646 3626 3600 3626 3542"/>
	</vehicle>
	<vehicle depart="0.1" departLane="1" departPos="12.192422312649775" departSpeed="9.6347" id="2523" type="passenger">
		<route edges="3626 3542 3542"/>
	</vehicle>
	<vehicle depart="0.1" departLane="2" departPos="9.0213343477375" departSpeed="9.2751" id="2524" type="passenger">
		<route edges="3646 3626 3542"/>
	</vehicle>
	<vehicle depart="0.1" departLane="2" departPos="0" departSpeed="7.3213" id="2526" type="passenger">
		<route edges="3450 3610 3646 3626 3542"/>
	</vehicle>
	<vehicle depart="0.1" departLane="1" departPos="13.565796419764668" departSpeed="8.8788" id="2527" type="passenger">
		<route edges="3610 3646 3626 3542"/>
	</vehicle>
	<vehicle depart="0.1" departLane="0" departPos="0" departSpeed="6.4648" id="2529" type="passenger">
		<route edges="3664 3664 3664 3525"/>
	</vehicle>
	<vehicle depart="0.1" departLane="2" departPos="15.678337029121758" departSpeed="7.5164" id="2531" type="passenger">
		<route edges="3450 3610 3646 3626 3542"/>
	</vehicle>
	<vehicle depart="0.1" departLane="0" departPos="0" departSpeed="0.027432" id="2532" type="passenger">
		<route edges="3632 3652 3616 3456 3462 3468 3713"/>
	</vehicle>
	<vehicle depart="0.1" departLane="4" departPos="20.791686894962808" departSpeed="8.0315" id="2533" type="passenger">
		<route edges="3450 3664 3664 3664 3525"/>
	</vehicle>
	<vehicle depart="0.1" departLane="0" departPos="19.10031815778513" departSpeed="6.2088" id="2536" type="passenger">
		<route edges="3426 3438 3450 3610 3646 3626 3600 3542"/>
	</vehicle>
	<vehicle depart="0.1" departLane="1" departPos="0" departSpeed="6.6965" id="2540" type="passenger">
		<route edges="3664 3672 3662 3662 3668 3664 3676 3525"/>
	</vehicle>
	<vehicle depart="0.1" departLane="0" departPos="0" departSpeed="7.3061" id="2543" type="passenger">
		<route edges="3426 3438 3450 3610 3646 3626 3542"/>
	</vehicle>
	<vehicle depart="0.1" departLane="0" departPos="20.42394300627576" departSpeed="0.87478" id="2546" type="passenger">
		<route edges="3705 3426 3438 3450 3610 3646 3626 3542"/>
	</vehicle>
	<vehicle depart="0.1" departLane="3" departPos="15.914270205004826" departSpeed="8.0071" id="2549" type="passenger">
		<route edges="3450 3610 3646 3626 3542"/>
	</vehicle>
	<vehicle depart="0.1" departLane="1" departPos="0" departSpeed="0.0" id="2551" type="passenger">
		<route edges="3632 3652 3616 3456 3462 3468 3713"/>
	</vehicle>
	<vehicle depart="0.1" departLane="0" departPos="0" departSpeed="0.14326" id="2552" type="passenger">
		<route edges="3705 3426 3438 3450 3610 3646 3626 3542"/>
	</vehicle>
	<vehicle depart="0.1" departLane="1" departPos="0" departSpeed="7.8913" id="2554" type="passenger">
		<route edges="3426 3438 3450 3610 3646 3626 3542"/>
	</vehicle>
	<vehicle depart="0.1" departLane="3" departPos="0" departSpeed="9.7902" id="2567" type="passenger">
		<route edges="3426 3438 3450 3664 3525"/>
	</vehicle>
	<vehicle depart="0.1" departLane="3" departPos="8.472730326907614" departSpeed="8.9367" id="2569" type="passenger">
		<route edges="3438 3450 3610 3646 3626 3542"/>
	</vehicle>
	<vehicle depart="0.1" departLane="1" departPos="47.08668512312134" departSpeed="0.0" id="2570" type="passenger">
		<route edges="3568 3680 3525"/>
	</vehicle>
	<vehicle depart="0.1" departLane="3" departPos="0" departSpeed="0.0" id="2572" type="passenger">
		<route edges="3568 3632 3652 3616 3456 3462 3468 3713"/>
	</vehicle>
	<vehicle depart="0.1" departLane="2" departPos="47.116916666997895" departSpeed="0.051816" id="2574" type="passenger">
		<route edges="3568 3632 3652 3616 3456 3462 3468 3713"/>
	</vehicle>
	<vehicle depart="0.1" departLane="2" departPos="36.58880637988076" departSpeed="0.0" id="2575" type="passenger">
		<route edges="3568 3632 3652 3616 3456 3462 3468 3713"/>
	</vehicle>
	<vehicle depart="0.1" departLane="3" departPos="33.509280371653034" departSpeed="0.033528" id="2577" type="passenger">
		<route edges="3568 3632 3652 3616 3456 3462 3468 3713"/>
	</vehicle>
	<vehicle depart="0.1" departLane="1" departPos="33.01024314412635" departSpeed="0.042672" id="2580" type="passenger">
		<route edges="3568 3680 3525"/>
	</vehicle>
	<vehicle depart="0.1" departLane="2" departPos="26.59278161709843" departSpeed="0.0" id="2583" type="passenger">
		<route edges="3568 3632 3652 3616 3456 3462 3468 3713"/>
	</vehicle>
	<vehicle depart="0.1" departLane="1" departPos="26.909324256190384" departSpeed="5.587" id="2584" type="passenger">
		<route edges="3664 3676 3664 3676 3525"/>
	</vehicle>
	<vehicle depart="0.1" departLane="1" departPos="24.30572221684698" departSpeed="0.01524" id="2586" type="passenger">
		<route edges="3568 3680 3525"/>
	</vehicle>
	<vehicle depart="0.1" departLane="2" departPos="19.286479593837903" departSpeed="0.0" id="2587" type="passenger">
		<route edges="3568 3632 3652 3616 3456 3462 3468 3713"/>
	</vehicle>
	<vehicle depart="0.1" departLane="0" departPos="0" departSpeed="0.37186" id="2593" type="passenger">
		<route edges="3705 3426 3438 3450 3450 3604 3517"/>
	</vehicle>
	<vehicle depart="0.1" departLane="4" departPos="0" departSpeed="9.1531" id="2597" type="passenger">
		<route edges="3450 3664 3664 3664 3676 3525"/>
	</vehicle>
	<vehicle depart="0.1" departLane="3" departPos="27.10033437763803" departSpeed="0.0" id="2600" type="passenger">
		<route edges="3568 3632 3652 3616 3456 3462 3468 3713"/>
	</vehicle>
	<vehicle depart="0.1" departLane="3" departPos="21.004098946264712" departSpeed="0.0" id="2601" type="passenger">
		<route edges="3568 3632 3652 3616 3456 3462 3468 3713"/>
	</vehicle>
	<vehicle depart="0.1" departLane="1" departPos="0" departSpeed="0.0" id="2604" type="passenger">
		<route edges="3568 3680 3525"/>
	</vehicle>
	<vehicle depart="0.1" departLane="4" departPos="0" departSpeed="9.1227" id="2606" type="passenger">
		<route edges="3438 3450 3664 3664 3664 3525"/>
	</vehicle>
	<vehicle depart="0.1" departLane="2" departPos="0" departSpeed="0.0" id="2607" type="passenger">
		<route edges="3568 3632 3652 3616 3456 3462 3468 3713"/>
	</vehicle>
	<vehicle depart="0.1" departLane="1" departPos="0" departSpeed="0.0" id="2608" type="passenger">
		<route edges="3568 3680 3525"/>
	</vehicle>
	<vehicle depart="0.1" departLane="3" departPos="0" departSpeed="0.0" id="2609" type="passenger">
		<route edges="3568 3632 3652 3616 3456 3462 3468 3713"/>
	</vehicle>
	<vehicle depart="0.1" departLane="1" departPos="0" departSpeed="0.0" id="2611" type="passenger">
		<route edges="3568 3680 3525"/>
	</vehicle>
	<vehicle depart="0.1" departLane="2" departPos="0" departSpeed="0.0" id="2612" type="passenger">
		<route edges="3568 3632 3652 3616 3456 3462 3468 3713"/>
	</vehicle>
	<vehicle depart="0.1" departLane="2" departPos="17.515982744608017" departSpeed="0.057912" id="2615" type="passenger">
		<route edges="3559 3568 3632 3652 3616 3456 3462 3468 3713"/>
	</vehicle>
	<vehicle depart="0.1" departLane="1" departPos="12.638811430304862" departSpeed="0.0" id="2616" type="passenger">
		<route edges="3559 3568 3680 3525"/>
	</vehicle>
	<vehicle depart="0.1" departLane="2" departPos="10.379189381952342" departSpeed="0.012192" id="2617" type="passenger">
		<route edges="3559 3568 3632 3652 3616 3456 3462 3468 3713"/>
	</vehicle>
	<vehicle depart="0.1" departLane="1" departPos="0" departSpeed="0.0" id="2622" type="passenger">
		<route edges="3559 3568 3680 3525"/>
	</vehicle>
	<vehicle depart="0.1" departLane="3" departPos="0" departSpeed="0.0" id="2624" type="passenger">
		<route edges="3568 3632 3652 3616 3456 3462 3468 3713"/>
	</vehicle>
	<vehicle depart="0.1" departLane="1" departPos="6.185612078808863" departSpeed="0.0" id="2628" type="passenger">
		<route edges="3555 3559 3568 3680 3525"/>
	</vehicle>
	<vehicle depart="0.1" departLane="2" departPos="0" departSpeed="0.033528" id="2630" type="passenger">
		<route edges="3559 3568 3632 3652 3616 3456 3462 3468 3713"/>
	</vehicle>
	<vehicle depart="0.1" departLane="0" departPos="4.423740798220982" departSpeed="0.0" id="2635" type="passenger">
		<route edges="3680 3525"/>
	</vehicle>
	<vehicle depart="0.1" departLane="2" departPos="0" departSpeed="0.24689" id="2636" type="passenger">
		<route edges="3555 3559 3568 3632 3652 3616 3456 3462 3468"/>
	</vehicle>
	<vehicle depart="0.1" departLane="0" departPos="47.20091018876078" departSpeed="0.0" id="2637" type="passenger">
		<route edges="3568 3680 3525"/>
	</vehicle>
	<vehicle depart="0.1" departLane="0" departPos="37.79787254029492" departSpeed="0.14935" id="2642" type="passenger">
		<route edges="3568 3680 3525"/>
	</vehicle>
	<vehicle depart="0.1" departLane="0" departPos="0" departSpeed="0.0" id="2647" type="passenger">
		<route edges="3620 3662 3640 3517"/>
	</vehicle>
	<vehicle depart="0.1" departLane="0" departPos="29.971030513444493" departSpeed="0.49987" id="2648" type="passenger">
		<route edges="3568 3680 3525"/>
	</vehicle>
	<vehicle depart="0.1" departLane="2" departPos="6.5308884214404745" departSpeed="0.027432" id="2650" type="passenger">
		<route edges="3555 3559 3568 3632 3652 3616 3456 3462 3468"/>
	</vehicle>
	<vehicle depart="0.1" departLane="3" departPos="10.742017373936589" departSpeed="1.2832" id="2654" type="passenger">
		<route edges="3559 3568 3632 3652 3616 3456 3462 3468 3713"/>
	</vehicle>
	<vehicle depart="0.1" departLane="1" departPos="0" departSpeed="0.06096" id="2677" type="passenger">
		<route edges="3536 3620 3662 3640 3517"/>
	</vehicle>
</routes>
