<?xml version="1.0" encoding="UTF-8"?>

<!-- generated on Fri Dec 18 16:02:08 2020 by Eclipse SUMO netconvert Version 1.8.0
<configuration xmlns:xsi="http://www.w3.org/2001/XMLSchema-instance" xsi:noNamespaceSchemaLocation="http://sumo.dlr.de/xsd/netconvertConfiguration.xsd">

    <input>
        <node-files value="./converted_scenarios/NGSIM/Lankershim/USA_Lanker-2_20_I-1-1/nodes.net.xml"/>
        <edge-files value="./converted_scenarios/NGSIM/Lankershim/USA_Lanker-2_20_I-1-1/edges.net.xml"/>
        <connection-files value="./converted_scenarios/NGSIM/Lankershim/USA_Lanker-2_20_I-1-1/_connections.net.xml"/>
        <tllogic-files value="./converted_scenarios/NGSIM/Lankershim/USA_Lanker-2_20_I-1-1/_tll.net.xml"/>
    </input>

    <output>
        <output-file value="./converted_scenarios/NGSIM/Lankershim/USA_Lanker-2_20_I-1-1/USA_Lanker-2_20_I-1-1.net.xml"/>
    </output>

    <processing>
        <plain.extend-edge-shape value="true"/>
        <geometry.remove.keep-edges.explicit value="true"/>
        <geometry.avoid-overlap value="true"/>
        <offset.disable-normalization value="true"/>
    </processing>

    <junctions>
        <no-turnarounds value="true"/>
        <junctions.internal-link-detail value="20"/>
    </junctions>

    <report>
        <aggregate-warnings value="5"/>
    </report>

    <random_number>
        <seed value="1234"/>
    </random_number>

</configuration>
-->

<net version="1.6" junctionCornerDetail="5" junctionLinkDetail="20" limitTurnSpeed="5.50" xmlns:xsi="http://www.w3.org/2001/XMLSchema-instance" xsi:noNamespaceSchemaLocation="http://sumo.dlr.de/xsd/net_file.xsd">

    <location netOffset="0.00,0.00" convBoundary="-64.80,-146.34,53.84,40.21" origBoundary="-67.63,-148.52,53.84,42.84" projParameter="!"/>

    <edge id=":11_0" function="internal">
        <lane id=":11_0_0" index="0" disallow="rail_fast" speed="36.11" length="0.26" width="3.31" shape="-32.40,-58.39 -32.62,-58.27"/>
        <lane id=":11_0_1" index="1" disallow="rail_fast" speed="36.11" length="0.26" width="3.11" shape="-30.93,-55.52 -31.16,-55.40"/>
    </edge>
    <edge id=":12_0" function="internal">
        <lane id=":12_0_0" index="0" disallow="rail_fast" speed="36.11" length="3.06" width="3.50" shape="-13.25,-68.34 -10.51,-69.74"/>
        <lane id=":12_0_1" index="1" disallow="rail_fast" speed="36.11" length="3.06" width="3.31" shape="-11.74,-65.31 -9.01,-66.68"/>
    </edge>
    <edge id=":13_0" function="internal">
        <lane id=":13_0_0" index="0" disallow="bus truck rail_fast" speed="11.02" length="10.30" width="3.87" shape="-7.85,-78.71 -7.19,-78.54 -6.58,-78.40 -6.03,-78.28 -5.52,-78.18 -5.05,-78.10 -4.61,-78.05 -4.20,-78.01 -3.80,-78.01 -3.42,-78.02 -3.04,-78.07 -2.66,-78.14 -2.28,-78.23 -1.88,-78.35 -1.46,-78.50 -1.02,-78.68 -0.54,-78.89 -0.03,-79.13 0.53,-79.40 1.14,-79.70"/>
        <lane id=":13_0_1" index="1" disallow="bus truck rail_fast" speed="12.20" length="10.30" width="3.51" shape="-7.97,-75.15 -7.17,-74.97 -6.45,-74.80 -5.78,-74.67 -5.17,-74.55 -4.61,-74.47 -4.09,-74.40 -3.59,-74.37 -3.12,-74.36 -2.66,-74.38 -2.21,-74.43 -1.76,-74.52 -1.31,-74.63 -0.83,-74.78 -0.33,-74.95 0.19,-75.17 0.76,-75.42 1.38,-75.70 2.05,-76.02 2.78,-76.38"/>
    </edge>
    <edge id=":13_2" function="internal">
        <lane id=":13_2_0" index="0" disallow="bus truck rail_fast" speed="36.11" length="11.23" width="3.51" shape="-7.18,-71.13 2.78,-76.38"/>
        <lane id=":13_2_1" index="1" disallow="bus truck rail_fast" speed="36.11" length="11.23" width="3.38" shape="-5.44,-67.81 -4.76,-68.30 -4.14,-68.73 -3.58,-69.11 -3.06,-69.46 -2.59,-69.76 -2.15,-70.04 -1.73,-70.29 -1.33,-70.52 -0.94,-70.73 -0.54,-70.94 -0.14,-71.14 0.27,-71.35 0.71,-71.56 1.18,-71.78 1.70,-72.02 2.26,-72.29 2.87,-72.58 3.55,-72.91 4.31,-73.28"/>
    </edge>
    <edge id=":13_4" function="internal">
        <lane id=":13_4_0" index="0" disallow="rail_fast" speed="36.11" length="13.86" width="3.51" shape="-9.63,-70.18 2.78,-76.38"/>
        <lane id=":13_4_1" index="1" disallow="rail_fast" speed="36.11" length="13.86" width="3.38" shape="-8.11,-67.13 4.31,-73.28"/>
    </edge>
    <edge id=":15_0" function="internal">
        <lane id=":15_0_0" index="0" disallow="rail_fast" speed="36.11" length="19.07" width="2.82" shape="-32.08,-57.52 -40.53,-74.62"/>
        <lane id=":15_0_1" index="1" disallow="rail_fast" speed="36.11" length="19.07" width="2.97" shape="-29.31,-58.95 -37.70,-76.07"/>
        <lane id=":15_0_2" index="2" disallow="rail_fast" speed="36.11" length="19.07" width="2.96" shape="-26.61,-60.33 -35.01,-77.45"/>
    </edge>
    <edge id=":15_3" function="internal">
        <lane id=":15_3_0" index="0" disallow="bus truck rail_fast" speed="13.68" length="23.17" width="2.96" shape="-20.19,-60.57 -20.95,-60.73 -21.71,-60.97 -22.47,-61.30 -23.23,-61.70 -24.00,-62.18 -24.77,-62.75 -25.54,-63.40 -26.31,-64.12 -27.09,-64.93 -27.87,-65.82 -28.65,-66.79 -29.44,-67.84 -30.23,-68.97 -31.02,-70.18 -31.81,-71.47 -32.61,-72.84 -33.40,-74.30 -34.21,-75.83 -35.01,-77.45"/>
    </edge>
    <edge id=":15_4" function="internal">
        <lane id=":15_4_0" index="0" disallow="bus truck rail_fast" speed="36.11" length="4.30" width="2.82" shape="-38.65,-70.75 -40.53,-74.62"/>
    </edge>
    <edge id=":18_0" function="internal">
        <lane id=":18_0_0" index="0" disallow="rail_fast" speed="14.45" length="8.28" width="3.25" shape="15.57,-67.36 15.03,-67.09 14.54,-66.85 14.10,-66.62 13.70,-66.41 13.34,-66.21 13.01,-66.01 12.71,-65.82 12.43,-65.62 12.17,-65.42 11.92,-65.21 11.68,-64.99 11.44,-64.74 11.20,-64.48 10.95,-64.18 10.69,-63.86 10.41,-63.50 10.11,-63.10 9.79,-62.66 9.43,-62.18"/>
        <lane id=":18_0_1" index="1" disallow="rail_fast" speed="36.11" length="8.28" width="3.60" shape="15.57,-67.36 8.34,-63.79"/>
        <lane id=":18_0_2" index="2" disallow="rail_fast" speed="36.11" length="8.28" width="3.67" shape="13.98,-70.63 6.28,-66.83"/>
    </edge>
    <edge id=":19_0" function="internal">
        <lane id=":19_0_0" index="0" disallow="rail_fast" speed="9.74" length="3.41" width="3.19" shape="8.09,-60.36 7.93,-60.14 7.78,-59.95 7.63,-59.78 7.50,-59.64 7.36,-59.51 7.24,-59.40 7.11,-59.31 6.98,-59.22 6.85,-59.15 6.72,-59.08 6.58,-59.02 6.44,-58.95 6.28,-58.89 6.11,-58.83 5.94,-58.76 5.74,-58.68 5.53,-58.59 5.31,-58.49 5.06,-58.37"/>
        <lane id=":19_0_1" index="1" disallow="rail_fast" speed="36.11" length="3.41" width="3.52" shape="6.62,-62.93 3.58,-61.43"/>
        <lane id=":19_0_2" index="2" disallow="rail_fast" speed="36.11" length="3.41" width="3.68" shape="4.81,-66.10 2.01,-64.70"/>
    </edge>
    <edge id=":2_0" function="internal">
        <lane id=":2_0_0" index="0" disallow="bus truck rail_fast" speed="8.75" length="5.40" width="3.35" shape="44.65,19.39 44.26,19.40 43.90,19.42 43.57,19.44 43.28,19.46 43.00,19.49 42.75,19.52 42.51,19.56 42.29,19.62 42.08,19.68 41.88,19.76 41.68,19.85 41.48,19.96 41.27,20.08 41.06,20.22 40.84,20.39 40.61,20.57 40.36,20.78 40.08,21.01 39.79,21.27"/>
    </edge>
    <edge id=":20_0" function="internal">
        <lane id=":20_0_0" index="0" disallow="bus truck rail_fast" speed="14.27" length="3.68" width="2.93" shape="2.44,-57.10 2.19,-56.99 1.97,-56.88 1.76,-56.79 1.58,-56.70 1.41,-56.62 1.25,-56.55 1.10,-56.48 0.97,-56.41 0.84,-56.33 0.71,-56.26 0.59,-56.18 0.46,-56.09 0.34,-55.99 0.21,-55.88 0.07,-55.76 -0.08,-55.62 -0.24,-55.47 -0.41,-55.29 -0.60,-55.09"/>
    </edge>
    <edge id=":20_1" function="internal">
        <lane id=":20_1_0" index="0" disallow="rail_fast" speed="36.11" length="4.87" width="3.46" shape="0.98,-60.14 -3.37,-57.99"/>
        <lane id=":20_1_1" index="1" disallow="rail_fast" speed="36.11" length="4.87" width="3.70" shape="-0.58,-63.40 -4.94,-61.22"/>
    </edge>
    <edge id=":20_3" function="internal">
        <lane id=":20_3_0" index="0" disallow="bus truck rail_fast" speed="36.11" length="4.93" width="3.01" shape="-0.58,-63.40 -0.91,-63.24 -1.21,-63.09 -1.48,-62.97 -1.72,-62.85 -1.95,-62.75 -2.16,-62.66 -2.36,-62.58 -2.55,-62.50 -2.73,-62.44 -2.92,-62.38 -3.11,-62.32 -3.30,-62.26 -3.51,-62.20 -3.73,-62.14 -3.97,-62.08 -4.23,-62.01 -4.52,-61.93 -4.85,-61.84 -5.20,-61.75"/>
    </edge>
    <edge id=":21_0" function="internal">
        <lane id=":21_0_0" index="0" disallow="rail_fast" speed="36.11" length="3.05" width="3.21" shape="-4.54,-57.40 -7.27,-56.05"/>
        <lane id=":21_0_1" index="1" disallow="rail_fast" speed="36.11" length="3.05" width="3.68" shape="-6.12,-60.63 -8.84,-59.26"/>
    </edge>
    <edge id=":22_0" function="internal">
        <lane id=":22_0_0" index="0" disallow="rail_fast" speed="36.11" length="10.83" width="3.17" shape="-18.79,-50.35 -28.50,-45.55"/>
        <lane id=":22_0_1" index="1" disallow="rail_fast" speed="36.11" length="10.83" width="3.68" shape="-20.36,-53.48 -30.04,-48.63"/>
    </edge>
    <edge id=":22_2" function="internal">
        <lane id=":22_2_0" index="0" disallow="bus truck rail_fast" speed="9.83" length="11.33" width="3.68" shape="-23.41,-57.26 -23.53,-56.65 -23.68,-56.06 -23.85,-55.48 -24.05,-54.93 -24.27,-54.39 -24.52,-53.86 -24.80,-53.36 -25.09,-52.87 -25.42,-52.40 -25.77,-51.94 -26.14,-51.51 -26.54,-51.09 -26.97,-50.68 -27.42,-50.30 -27.89,-49.93 -28.39,-49.58 -28.92,-49.25 -29.47,-48.93 -30.04,-48.63"/>
    </edge>
    <edge id=":23_0" function="internal">
        <lane id=":23_0_0" index="0" disallow="bus truck rail_fast" speed="36.11" length="4.83" width="5.13" shape="-42.66,-34.39 -37.99,-35.62"/>
    </edge>
    <edge id=":23_1" function="internal">
        <lane id=":23_1_0" index="0" disallow="rail_fast" speed="36.11" length="4.52" width="3.11" shape="-35.75,-42.00 -39.78,-39.93"/>
        <lane id=":23_1_1" index="1" disallow="rail_fast" speed="36.11" length="4.52" width="3.66" shape="-37.07,-45.15 -41.08,-43.07"/>
    </edge>
    <edge id=":25_0" function="internal">
        <lane id=":25_0_0" index="0" disallow="bus truck rail_fast" speed="36.11" length="2.87" width="5.36" shape="42.61,14.32 45.48,14.30"/>
    </edge>
    <edge id=":28_0" function="internal">
        <lane id=":28_0_0" index="0" disallow="rail_fast" speed="36.11" length="7.96" width="3.51" shape="-46.87,-143.75 -43.26,-136.42"/>
        <lane id=":28_0_1" index="1" disallow="rail_fast" speed="36.11" length="7.96" width="2.89" shape="-49.77,-142.17 -46.18,-134.98"/>
        <lane id=":28_0_2" index="2" disallow="rail_fast" speed="36.11" length="7.96" width="3.01" shape="-52.45,-140.71 -48.91,-133.63"/>
        <lane id=":28_0_3" index="3" disallow="rail_fast" speed="36.11" length="7.96" width="2.82" shape="-55.15,-139.24 -51.61,-132.29"/>
        <lane id=":28_0_4" index="4" disallow="bus rail_fast" speed="36.11" length="7.96" width="2.91" shape="-55.15,-139.24 -54.88,-138.71 -54.64,-138.24 -54.42,-137.81 -54.23,-137.42 -54.06,-137.06 -53.91,-136.73 -53.78,-136.41 -53.66,-136.11 -53.55,-135.81 -53.45,-135.52 -53.35,-135.22 -53.26,-134.90 -53.18,-134.57 -53.09,-134.21 -52.99,-133.83 -52.89,-133.40 -52.78,-132.93 -52.66,-132.42 -52.53,-131.84"/>
    </edge>
    <edge id=":29_0" function="internal">
        <lane id=":29_0_0" index="0" disallow="rail_fast" speed="36.11" length="3.88" width="3.35" shape="-38.48,-126.71 -36.78,-123.29"/>
        <lane id=":29_0_1" index="1" disallow="rail_fast" speed="36.11" length="3.88" width="2.89" shape="-41.34,-125.23 -39.61,-121.79"/>
        <lane id=":29_0_2" index="2" disallow="rail_fast" speed="36.11" length="3.88" width="3.08" shape="-44.03,-123.84 -42.29,-120.37"/>
        <lane id=":29_0_3" index="3" disallow="rail_fast" speed="36.11" length="3.88" width="2.82" shape="-46.69,-122.46 -44.94,-118.97"/>
        <lane id=":29_0_4" index="4" disallow="bus rail_fast" speed="36.11" length="3.88" width="3.05" shape="-49.08,-121.21 -48.98,-120.94 -48.89,-120.69 -48.81,-120.46 -48.74,-120.25 -48.67,-120.07 -48.61,-119.89 -48.55,-119.73 -48.49,-119.58 -48.44,-119.43 -48.38,-119.29 -48.32,-119.14 -48.26,-118.99 -48.19,-118.83 -48.11,-118.67 -48.03,-118.49 -47.94,-118.29 -47.83,-118.07 -47.72,-117.83 -47.59,-117.57"/>
    </edge>
    <edge id=":30_0" function="internal">
        <lane id=":30_0_0" index="0" disallow="bus truck rail_fast" speed="10.23" length="10.24" width="3.11" shape="-17.06,-84.37 -16.82,-83.96 -16.56,-83.57 -16.28,-83.20 -15.98,-82.83 -15.66,-82.48 -15.31,-82.14 -14.94,-81.82 -14.54,-81.51 -14.13,-81.21 -13.69,-80.92 -13.23,-80.65 -12.75,-80.39 -12.24,-80.14 -11.71,-79.91 -11.16,-79.68 -10.59,-79.48 -9.99,-79.28 -9.37,-79.10 -8.73,-78.93"/>
    </edge>
    <edge id=":30_1" function="internal">
        <lane id=":30_1_0" index="0" disallow="bus truck rail_fast" speed="11.58" length="11.05" width="3.13" shape="-20.11,-82.76 -19.75,-82.05 -19.41,-81.41 -19.08,-80.84 -18.76,-80.33 -18.44,-79.88 -18.13,-79.48 -17.80,-79.12 -17.47,-78.80 -17.13,-78.52 -16.76,-78.26 -16.37,-78.02 -15.96,-77.79 -15.51,-77.57 -15.02,-77.35 -14.49,-77.13 -13.91,-76.90 -13.29,-76.66 -12.60,-76.39 -11.86,-76.09"/>
    </edge>
    <edge id=":30_2" function="internal">
        <lane id=":30_2_0" index="0" disallow="rail_fast" speed="36.11" length="10.45" width="3.12" shape="-20.11,-82.76 -15.55,-73.20"/>
        <lane id=":30_2_1" index="1" disallow="rail_fast" speed="36.11" length="10.45" width="3.06" shape="-22.84,-81.32 -18.34,-71.89"/>
        <lane id=":30_2_2" index="2" disallow="rail_fast" speed="36.11" length="10.45" width="2.98" shape="-25.54,-79.91 -21.08,-70.60"/>
    </edge>
    <edge id=":30_5" function="internal">
        <lane id=":30_5_0" index="0" disallow="bus truck rail_fast" speed="36.11" length="10.20" width="2.87" shape="-28.23,-78.49 -27.89,-77.81 -27.58,-77.19 -27.30,-76.63 -27.05,-76.12 -26.82,-75.66 -26.61,-75.23 -26.41,-74.82 -26.23,-74.44 -26.05,-74.06 -25.88,-73.69 -25.72,-73.32 -25.56,-72.93 -25.39,-72.51 -25.22,-72.07 -25.04,-71.60 -24.85,-71.07 -24.64,-70.50 -24.41,-69.86 -24.17,-69.15"/>
    </edge>
    <edge id=":31_0" function="internal">
        <lane id=":31_0_0" index="0" disallow="rail_fast" speed="36.11" length="3.22" width="3.12" shape="-14.67,-71.35 -13.28,-68.44"/>
        <lane id=":31_0_1" index="1" disallow="rail_fast" speed="36.11" length="3.22" width="3.06" shape="-17.42,-69.95 -16.03,-67.04"/>
        <lane id=":31_0_2" index="2" disallow="rail_fast" speed="36.11" length="3.22" width="2.95" shape="-20.11,-68.58 -18.73,-65.67"/>
    </edge>
    <edge id=":32_0" function="internal">
        <lane id=":32_0_0" index="0" disallow="rail_fast" speed="36.11" length="2.64" width="3.14" shape="-7.23,-55.86 -6.08,-53.46"/>
        <lane id=":32_0_1" index="1" disallow="rail_fast" speed="36.11" length="2.64" width="3.10" shape="-10.04,-54.49 -8.90,-52.11"/>
        <lane id=":32_0_2" index="2" disallow="rail_fast" speed="36.11" length="2.64" width="2.93" shape="-12.76,-53.17 -11.63,-50.79"/>
    </edge>
    <edge id=":34_0" function="internal">
        <lane id=":34_0_0" index="0" disallow="rail_fast" speed="36.11" length="3.05" width="2.78" shape="5.45,17.84 4.09,15.10"/>
        <lane id=":34_0_1" index="1" disallow="rail_fast" speed="36.11" length="3.05" width="3.00" shape="8.05,16.57 6.70,13.84"/>
        <lane id=":34_0_2" index="2" disallow="bus rail_fast" speed="36.11" length="3.05" width="3.02" shape="10.77,15.25 9.43,12.51"/>
        <lane id=":34_0_3" index="3" disallow="bus rail_fast" speed="36.11" length="3.05" width="2.96" shape="13.50,13.93 12.15,11.20"/>
        <lane id=":34_0_4" index="4" disallow="rail_fast" speed="36.11" length="3.05" width="3.03" shape="16.21,12.61 14.86,9.88"/>
    </edge>
    <edge id=":35_0" function="internal">
        <lane id=":35_0_0" index="0" disallow="rail_fast" speed="21.96" length="7.43" width="2.94" shape="-3.91,-0.77 -4.16,-1.27 -4.40,-1.71 -4.62,-2.11 -4.83,-2.46 -5.03,-2.78 -5.22,-3.07 -5.42,-3.34 -5.61,-3.58 -5.81,-3.81 -6.01,-4.03 -6.22,-4.24 -6.45,-4.46 -6.70,-4.69 -6.96,-4.92 -7.24,-5.18 -7.56,-5.46 -7.90,-5.77 -8.27,-6.11 -8.68,-6.49"/>
        <lane id=":35_0_1" index="1" disallow="rail_fast" speed="36.11" length="7.43" width="2.94" shape="-3.91,-0.77 -7.21,-7.32"/>
        <lane id=":35_0_2" index="2" disallow="rail_fast" speed="36.11" length="7.43" width="3.05" shape="-1.24,-2.11 -4.57,-8.82"/>
        <lane id=":35_0_3" index="3" disallow="rail_fast" speed="36.11" length="7.43" width="3.03" shape="1.49,-3.49 -1.91,-10.33"/>
        <lane id=":35_0_4" index="4" disallow="rail_fast" speed="36.11" length="7.43" width="3.05" shape="4.22,-4.87 0.75,-11.84"/>
        <lane id=":35_0_5" index="5" disallow="rail_fast" speed="36.11" length="7.43" width="3.12" shape="6.97,-6.25 3.98,-12.32"/>
    </edge>
    <edge id=":36_0" function="internal">
        <lane id=":36_0_0" index="0" disallow="rail_fast" speed="15.71" length="3.50" width="3.22" shape="-9.07,-6.85 -9.27,-7.04 -9.46,-7.20 -9.64,-7.34 -9.81,-7.46 -9.97,-7.57 -10.12,-7.67 -10.27,-7.76 -10.40,-7.84 -10.54,-7.92 -10.66,-8.01 -10.78,-8.09 -10.90,-8.19 -11.02,-8.30 -11.14,-8.42 -11.26,-8.56 -11.38,-8.72 -11.50,-8.91 -11.62,-9.12 -11.75,-9.36"/>
        <lane id=":36_0_1" index="1" disallow="rail_fast" speed="36.11" length="3.50" width="2.87" shape="-7.41,-7.71 -8.93,-10.72"/>
        <lane id=":36_0_2" index="2" disallow="rail_fast" speed="36.11" length="3.50" width="3.00" shape="-4.71,-9.09 -6.18,-12.05"/>
        <lane id=":36_0_3" index="3" disallow="rail_fast" speed="36.11" length="3.50" width="3.02" shape="-1.99,-10.49 -3.45,-13.40"/>
        <lane id=":36_0_4" index="4" disallow="rail_fast" speed="36.11" length="3.50" width="3.02" shape="0.70,-11.93 -0.73,-14.78"/>
        <lane id=":36_0_5" index="5" disallow="rail_fast" speed="36.11" length="3.50" width="3.03" shape="3.89,-12.50 2.06,-16.19"/>
    </edge>
    <edge id=":37_0" function="internal">
        <lane id=":37_0_0" index="0" disallow="bus truck rail_fast" speed="36.11" length="4.73" width="3.84" shape="-21.30,-28.32 -21.46,-28.64 -21.60,-28.92 -21.73,-29.18 -21.84,-29.42 -21.95,-29.64 -22.04,-29.84 -22.13,-30.02 -22.22,-30.20 -22.31,-30.37 -22.40,-30.53 -22.49,-30.69 -22.59,-30.86 -22.70,-31.03 -22.83,-31.22 -22.97,-31.41 -23.12,-31.62 -23.30,-31.85 -23.49,-32.10 -23.72,-32.37"/>
    </edge>
    <edge id=":37_1" function="internal">
        <lane id=":37_1_0" index="0" disallow="rail_fast" speed="36.11" length="5.10" width="2.87" shape="-18.33,-29.84 -20.64,-34.42"/>
        <lane id=":37_1_1" index="1" disallow="rail_fast" speed="36.11" length="5.10" width="3.02" shape="-15.68,-31.19 -17.98,-35.74"/>
        <lane id=":37_1_2" index="2" disallow="rail_fast" speed="36.11" length="5.10" width="3.12" shape="-12.95,-32.58 -15.20,-37.12"/>
    </edge>
    <edge id=":37_4" function="internal">
        <lane id=":37_4_0" index="0" disallow="bus truck rail_fast" speed="36.11" length="5.03" width="2.93" shape="-10.21,-33.98 -12.45,-38.48"/>
    </edge>
    <edge id=":37_5" function="internal">
        <lane id=":37_5_0" index="0" disallow="bus truck rail_fast" speed="36.11" length="4.99" width="3.03" shape="-7.49,-35.37 -9.72,-39.83"/>
    </edge>
    <edge id=":38_0" function="internal">
        <lane id=":38_0_0" index="0" disallow="rail_fast" speed="36.11" length="3.02" width="3.06" shape="-25.22,-43.67 -26.56,-46.38"/>
        <lane id=":38_0_1" index="1" disallow="rail_fast" speed="36.11" length="3.02" width="2.99" shape="-22.50,-45.00 -23.83,-47.72"/>
        <lane id=":38_0_2" index="2" disallow="rail_fast" speed="36.11" length="3.02" width="3.06" shape="-19.74,-46.35 -21.08,-49.07"/>
    </edge>
    <edge id=":39_0" function="internal">
        <lane id=":39_0_0" index="0" disallow="rail_fast" speed="36.11" length="1.22" width="3.29" shape="-32.54,-58.43 -32.00,-57.34"/>
        <lane id=":39_0_1" index="1" disallow="rail_fast" speed="36.11" length="1.22" width="2.97" shape="-29.75,-59.86 -29.22,-58.77"/>
        <lane id=":39_0_2" index="2" disallow="rail_fast" speed="36.11" length="1.22" width="3.01" shape="-27.06,-61.24 -26.53,-60.15"/>
    </edge>
    <edge id=":5_0" function="internal">
        <lane id=":5_0_0" index="0" disallow="bus truck rail_fast" speed="8.72" length="16.70" width="3.23" shape="-44.87,-51.95 -43.63,-52.58 -42.47,-53.22 -41.40,-53.85 -40.40,-54.48 -39.49,-55.11 -38.66,-55.74 -37.92,-56.37 -37.26,-56.99 -36.67,-57.62 -36.18,-58.24 -35.76,-58.86 -35.43,-59.48 -35.17,-60.09 -35.00,-60.71 -34.92,-61.32 -34.91,-61.94 -34.99,-62.55 -35.15,-63.15 -35.39,-63.76"/>
    </edge>
    <edge id=":5_1" function="internal">
        <lane id=":5_1_0" index="0" disallow="rail_fast" speed="36.11" length="13.86" width="3.23" shape="-44.87,-51.95 -32.57,-58.30"/>
        <lane id=":5_1_1" index="1" disallow="rail_fast" speed="36.11" length="13.86" width="3.03" shape="-43.48,-49.15 -31.11,-55.43"/>
    </edge>
    <edge id=":5_3" function="internal">
        <lane id=":5_3_0" index="0" disallow="bus truck rail_fast" speed="36.11" length="1.56" width="2.92" shape="-42.13,-46.41 -43.53,-45.73"/>
    </edge>
    <edge id=":6_0" function="internal">
        <lane id=":6_0_0" index="0" disallow="bus truck rail_fast" speed="9.12" length="13.80" width="3.05" shape="-1.16,-54.50 -1.52,-54.08 -1.85,-53.62 -2.12,-53.14 -2.35,-52.63 -2.54,-52.09 -2.68,-51.52 -2.77,-50.92 -2.82,-50.30 -2.82,-49.64 -2.78,-48.96 -2.69,-48.25 -2.56,-47.51 -2.38,-46.75 -2.16,-45.95 -1.89,-45.13 -1.57,-44.28 -1.21,-43.40 -0.80,-42.49 -0.35,-41.55"/>
    </edge>
    <edge id=":6_1" function="internal">
        <lane id=":6_1_0" index="0" disallow="rail_fast" speed="36.11" length="13.06" width="3.05" shape="-5.99,-53.28 -0.35,-41.55"/>
        <lane id=":6_1_1" index="1" disallow="rail_fast" speed="36.11" length="13.06" width="2.91" shape="-8.81,-51.93 -3.17,-40.15"/>
        <lane id=":6_1_2" index="2" disallow="rail_fast" speed="36.11" length="13.06" width="2.89" shape="-11.54,-50.61 -5.87,-38.79"/>
    </edge>
    <edge id=":6_4" function="internal">
        <lane id=":6_4_0" index="0" disallow="bus truck rail_fast" speed="36.11" length="13.55" width="2.89" shape="-12.39,-50.67 -5.87,-38.79"/>
    </edge>
    <edge id=":7_0" function="internal">
        <lane id=":7_0_0" index="0" disallow="rail_fast" speed="36.11" length="0.24" width="3.05" shape="9.98,-20.30 10.08,-20.09"/>
        <lane id=":7_0_1" index="1" disallow="rail_fast" speed="36.11" length="0.24" width="2.91" shape="7.31,-18.96 7.42,-18.75"/>
        <lane id=":7_0_2" index="2" disallow="rail_fast" speed="36.11" length="0.24" width="2.89" shape="4.72,-17.67 4.83,-17.44"/>
    </edge>
    <edge id=":8_0" function="internal">
        <lane id=":8_0_0" index="0" disallow="rail_fast" speed="36.11" length="3.05" width="3.03" shape="13.20,-14.01 14.57,-11.29"/>
        <lane id=":8_0_1" index="1" disallow="rail_fast" speed="36.11" length="3.05" width="3.00" shape="10.48,-12.65 11.84,-9.93"/>
        <lane id=":8_0_2" index="2" disallow="rail_fast" speed="36.11" length="3.05" width="2.94" shape="7.84,-11.33 9.18,-8.61"/>
    </edge>
    <edge id=":9_0" function="internal">
        <lane id=":9_0_0" index="0" disallow="bus truck rail_fast" speed="10.11" length="13.46" width="3.16" shape="22.83,5.24 23.27,6.09 23.71,6.88 24.16,7.64 24.62,8.35 25.09,9.02 25.56,9.65 26.04,10.23 26.53,10.77 27.03,11.27 27.53,11.73 28.04,12.14 28.56,12.51 29.08,12.84 29.61,13.12 30.15,13.37 30.69,13.57 31.25,13.72 31.81,13.84 32.37,13.91"/>
    </edge>
    <edge id=":9_1" function="internal">
        <lane id=":9_1_0" index="0" disallow="rail_fast" speed="36.11" length="13.11" width="3.16" shape="22.83,5.24 28.63,17.01"/>
        <lane id=":9_1_1" index="1" disallow="bus rail_fast" speed="36.11" length="13.11" width="2.93" shape="20.05,6.60 25.87,18.35"/>
        <lane id=":9_1_2" index="2" disallow="rail_fast" speed="36.11" length="13.11" width="3.07" shape="17.30,7.93 23.13,19.68"/>
    </edge>

    <edge id="3426" from="34" to="35" priority="1" spreadType="center" length="21.90">
        <lane id="3426_0" index="0" disallow="rail_fast" speed="36.11" length="21.90" width="2.78" customShape="1" shape="4.09,15.10 -0.38,6.21 -3.91,-0.77"/>
        <lane id="3426_1" index="1" disallow="rail_fast" speed="36.11" length="21.90" width="3.00" customShape="1" shape="6.70,13.84 2.27,4.95 -1.24,-2.11"/>
        <lane id="3426_2" index="2" disallow="rail_fast" speed="36.11" length="21.90" width="3.02" customShape="1" shape="9.43,12.51 4.96,3.52 1.49,-3.49"/>
        <lane id="3426_3" index="3" disallow="rail_fast" speed="36.11" length="21.90" width="2.96" customShape="1" shape="12.15,11.20 7.64,2.06 4.22,-4.87"/>
        <lane id="3426_4" index="4" disallow="rail_fast" speed="36.11" length="21.90" width="3.03" customShape="1" shape="14.86,9.88 10.37,0.68 6.97,-6.25"/>
    </edge>
    <edge id="3438" from="35" to="36" priority="1" spreadType="center" length="8.44">
        <lane id="3438_0" index="0" disallow="rail_fast" speed="36.11" length="8.44" width="2.94" customShape="1" shape="-8.68,-6.49 -9.07,-6.85"/>
        <lane id="3438_1" index="1" disallow="rail_fast" speed="36.11" length="8.44" width="2.94" customShape="1" shape="-7.21,-7.32 -7.41,-7.71"/>
        <lane id="3438_2" index="2" disallow="rail_fast" speed="36.11" length="8.44" width="3.05" customShape="1" shape="-4.57,-8.82 -4.71,-9.09"/>
        <lane id="3438_3" index="3" disallow="rail_fast" speed="36.11" length="8.44" width="3.03" customShape="1" shape="-1.91,-10.33 -1.99,-10.49"/>
        <lane id="3438_4" index="4" disallow="rail_fast" speed="36.11" length="8.44" width="3.05" customShape="1" shape="0.75,-11.84 0.70,-11.93"/>
        <lane id="3438_5" index="5" disallow="rail_fast" speed="36.11" length="8.44" width="3.12" customShape="1" shape="3.98,-12.32 3.89,-12.50"/>
    </edge>
    <edge id="3450" from="36" to="37" priority="1" spreadType="center" length="24.49">
        <lane id="3450_0" index="0" disallow="rail_fast" speed="36.11" length="24.49" width="3.22" customShape="1" shape="-11.75,-9.36 -14.93,-15.62 -18.72,-23.31 -21.30,-28.32"/>
        <lane id="3450_1" index="1" disallow="rail_fast" speed="36.11" length="24.49" width="2.87" customShape="1" shape="-8.93,-10.72 -11.93,-16.77 -15.76,-24.72 -18.33,-29.84"/>
        <lane id="3450_2" index="2" disallow="rail_fast" speed="36.11" length="24.49" width="3.00" customShape="1" shape="-6.18,-12.05 -9.20,-18.11 -13.05,-26.05 -15.68,-31.19"/>
        <lane id="3450_3" index="3" disallow="rail_fast" speed="36.11" length="24.49" width="3.02" customShape="1" shape="-3.45,-13.40 -6.53,-19.56 -10.42,-27.50 -12.95,-32.58"/>
        <lane id="3450_4" index="4" disallow="rail_fast" speed="36.11" length="24.49" width="3.02" customShape="1" shape="-0.73,-14.78 -3.85,-21.01 -7.73,-28.96 -10.21,-33.98"/>
        <lane id="3450_5" index="5" disallow="rail_fast" speed="36.11" length="24.49" width="3.03" customShape="1" shape="2.06,-16.19 -1.15,-22.52 -5.04,-30.46 -7.49,-35.37"/>
    </edge>
    <edge id="3456" from="6" to="7" priority="1" spreadType="center" length="24.71">
        <lane id="3456_0" index="0" disallow="rail_fast" speed="36.11" length="24.71" width="3.05" customShape="1" shape="-0.35,-41.55 2.81,-35.22 6.67,-27.30 9.98,-20.30"/>
        <lane id="3456_1" index="1" disallow="rail_fast" speed="36.11" length="24.71" width="2.91" customShape="1" shape="-3.17,-40.15 0.25,-33.45 3.93,-25.89 7.31,-18.96"/>
        <lane id="3456_2" index="2" disallow="rail_fast" speed="36.11" length="24.71" width="2.89" customShape="1" shape="-5.87,-38.79 -2.38,-31.89 1.41,-24.19 4.72,-17.67"/>
    </edge>
    <edge id="3462" from="7" to="8" priority="1" spreadType="center" length="8.47">
        <lane id="3462_0" index="0" disallow="rail_fast" speed="36.11" length="8.47" width="3.05" customShape="1" shape="10.08,-20.09 13.20,-14.01"/>
        <lane id="3462_1" index="1" disallow="rail_fast" speed="36.11" length="8.47" width="2.91" customShape="1" shape="7.42,-18.75 10.48,-12.65"/>
        <lane id="3462_2" index="2" disallow="rail_fast" speed="36.11" length="8.47" width="2.89" customShape="1" shape="4.83,-17.44 7.84,-11.33"/>
    </edge>
    <edge id="3468" from="8" to="9" priority="1" spreadType="center" length="22.24">
        <lane id="3468_0" index="0" disallow="rail_fast" speed="36.11" length="22.24" width="3.03" customShape="1" shape="14.57,-11.29 18.51,-3.34 22.83,5.24"/>
        <lane id="3468_1" index="1" disallow="rail_fast" speed="36.11" length="22.24" width="3.00" customShape="1" shape="11.84,-9.93 15.83,-1.92 20.05,6.60"/>
        <lane id="3468_2" index="2" disallow="rail_fast" speed="36.11" length="22.24" width="2.94" customShape="1" shape="9.18,-8.61 13.14,-0.55 17.30,7.93"/>
    </edge>
    <edge id="3498" from="1" to="2" priority="1" spreadType="center" length="9.59">
        <lane id="3498_0" index="0" disallow="rail_fast" speed="36.11" length="9.59" width="4.77" customShape="1" shape="53.84,19.08 44.65,19.39"/>
    </edge>
    <edge id="3500" from="25" to="26" priority="1" spreadType="center" length="9.59">
        <lane id="3500_0" index="0" disallow="rail_fast" speed="36.11" length="9.59" width="5.36" customShape="1" shape="45.48,14.30 53.62,14.02"/>
    </edge>
    <edge id="3509" from="4" to="5" priority="1" spreadType="center" length="15.63">
        <lane id="3509_0" index="0" disallow="rail_fast" speed="36.11" length="15.63" width="3.23" customShape="1" shape="-56.96,-45.94 -52.56,-48.12 -44.87,-51.95"/>
        <lane id="3509_1" index="1" disallow="rail_fast" speed="36.11" length="15.63" width="3.02" customShape="1" shape="-55.57,-43.14 -51.13,-45.34 -43.48,-49.15"/>
        <lane id="3509_2" index="2" disallow="rail_fast" speed="36.11" length="15.63" width="3.06" customShape="1" shape="-54.22,-40.41 -49.72,-42.64 -42.13,-46.41"/>
    </edge>
    <edge id="3517" from="23" to="24" priority="1" spreadType="center" length="14.50">
        <lane id="3517_0" index="0" disallow="rail_fast" speed="36.11" length="14.50" width="5.13" acceleration="1" customShape="1" shape="-37.99,-35.62 -45.32,-32.08 -48.94,-30.11"/>