<routes>
	<vehicle depart="0.1" departLane="0" departPos="29.272976249156073" departSpeed="6.2008637" id="1" type="passenger">
		<route edges="50201 50213 50197"/>
	</vehicle>
	<vehicle depart="0.1" departLane="0" departPos="125.59421306056358" departSpeed="0.0" id="2" type="passenger">
		<route edges="50195 50211 50199"/>
	</vehicle>
	<vehicle depart="0.1" departLane="0" departPos="137.54989938892956" departSpeed="2.0546196" id="4" type="passenger">
		<route edges="50205 50207 50197"/>
	</vehicle>
	<vehicle depart="0.1" departLane="0" departPos="145.54993353835462" departSpeed="3.7863506" id="5" type="passenger">
		<route edges="50205 50217 50207 50217 50199"/>
	</vehicle>
	<vehicle depart="0.1" departLane="0" departPos="12.029682145098992" departSpeed="3.2128615" id="7" type="passenger">
		<route edges="50201 50213 50197"/>
	</vehicle>
</routes>
