<routes>
	<vehicle depart="0.1" departLane="0" departPos="36.41187489995953" departSpeed="7.3603616" id="358" type="bicycle">
		<route edges=":106_4 2339 2336"/>
	</vehicle>
	<vehicle depart="0.1" departLane="0" departPos="5.442526098883493" departSpeed="2.5733843" id="335" type="passenger">
		<route edges=":108_0 2340 2343"/>
	</vehicle>
	<vehicle depart="0.1" departLane="0" departPos="12.913610775989572" departSpeed="2.0036174" id="339" type="passenger">
		<route edges="2339 2336"/>
	</vehicle>
	<vehicle depart="0.1" departLane="0" departPos="30.839762233070573" departSpeed="1.5904617" id="351" type="passenger">
		<route edges=":106_1 2339 2336"/>
	</vehicle>
	<vehicle depart="0.1" departLane="0" departPos="7.089516886262706" departSpeed="5.1812898" id="364" type="passenger">
		<route edges="1950 2339"/>
	</vehicle>
</routes>
