<!-- generated on Tue Feb  9 22:12:04 2021 by Eclipse SUMO netconvert Version 1.8.0
<configuration xmlns:xsi="http://www.w3.org/2001/XMLSchema-instance" xsi:noNamespaceSchemaLocation="http://sumo.dlr.de/xsd/netconvertConfiguration.xsd">

    <input>
        <node-files value="./converted_scenarios/scenario-factory/ITA_Scicli-2_1_I-1-1/ITA_Scicli-2_1_I-1-1.nod.xml"/>
        <edge-files value="./converted_scenarios/scenario-factory/ITA_Scicli-2_1_I-1-1/ITA_Scicli-2_1_I-1-1.edg.xml"/>
        <connection-files value="./converted_scenarios/scenario-factory/ITA_Scicli-2_1_I-1-1/ITA_Scicli-2_1_I-1-1.con.xml"/>
        <tllogic-files value="./converted_scenarios/scenario-factory/ITA_Scicli-2_1_I-1-1/ITA_Scicli-2_1_I-1-1.tll.xml"/>
        <type-files value="/home/zen/commonroad-interactive-benchmarks/install/commonroad-map-tool/crmapconverter/sumo_map/templates/DEU.typ.xml"/>
    </input>

    <output>
        <output-file value="./converted_scenarios/scenario-factory/ITA_Scicli-2_1_I-1-1/ITA_Scicli-2_1_I-1-1.net.xml"/>
    </output>

    <processing>
        <geometry.remove.keep-edges.explicit value="true"/>
        <geometry.avoid-overlap value="true"/>
        <offset.disable-normalization value="true"/>
    </processing>

    <junctions>
        <no-turnarounds value="true"/>
        <junctions.internal-link-detail value="20"/>
    </junctions>

    <report>
        <aggregate-warnings value="5"/>
    </report>

    <random_number>
        <seed value="1234"/>
    </random_number>

</configuration>
--><net xmlns:xsi="http://www.w3.org/2001/XMLSchema-instance" version="1.6" junctionCornerDetail="5" junctionLinkDetail="20" limitTurnSpeed="5.50" xsi:noNamespaceSchemaLocation="http://sumo.dlr.de/xsd/net_file.xsd">

    <location netOffset="0.00,0.00" convBoundary="-1041.17,-977.95,-634.02,-600.83" origBoundary="-1041.17,-991.01,-634.02,-600.83" projParameter="!"/>

    <type id="highway.bridleway" priority="1" speed="2.78" allow="pedestrian" oneway="1" width="2.00"/>
    <type id="highway.bus_guideway" priority="1" speed="27.78" allow="bus" oneway="1"/>
    <type id="highway.cycleway" priority="1" speed="8.33" allow="bicycle" oneway="0" width="1.00"/>
    <type id="highway.footway" priority="1" speed="2.78" allow="pedestrian" oneway="1" width="2.00"/>
    <type id="highway.ford" priority="1" speed="2.78" allow="army" oneway="0"/>
    <type id="highway.living_street" priority="2" speed="2.78" disallow="tram rail_urban rail rail_electric rail_fast ship" oneway="0"/>
    <type id="highway.motorway" priority="14" speed="39.44" allow="private emergency authority army vip passenger hov taxi bus coach delivery truck trailer motorcycle evehicle custom1 custom2" oneway="1"/>
    <type id="highway.motorway_link" priority="9" speed="22.22" allow="private emergency authority army vip passenger hov taxi bus coach delivery truck trailer motorcycle evehicle custom1 custom2" oneway="1"/>
    <type id="highway.path" priority="1" speed="2.78" allow="pedestrian bicycle" oneway="0" width="2.00"/>
    <type id="highway.pedestrian" priority="1" speed="2.78" allow="pedestrian" oneway="1" width="2.00"/>
    <type id="highway.primary" priority="12" speed="27.78" disallow="pedestrian tram rail_urban rail rail_electric rail_fast ship" oneway="0"/>
    <type id="highway.primary_link" priority="7" speed="22.22" disallow="pedestrian tram rail_urban rail rail_electric rail_fast ship" oneway="0"/>
    <type id="highway.raceway" priority="15" speed="83.33" allow="vip" oneway="0"/>
    <type id="highway.residential" priority="3" speed="13.89" disallow="pedestrian tram rail_urban rail rail_electric rail_fast ship" oneway="0"/>
    <type id="highway.secondary" priority="11" speed="27.78" disallow="pedestrian tram rail_urban rail rail_electric rail_fast ship" oneway="0"/>
    <type id="highway.secondary_link" priority="6" speed="22.22" disallow="pedestrian tram rail_urban rail rail_electric rail_fast ship" oneway="0"/>
    <type id="highway.service" priority="1" speed="5.56" allow="pedestrian delivery bicycle" oneway="0"/>
    <type id="highway.stairs" priority="1" speed="1.39" allow="pedestrian" oneway="1" width="2.00"/>
    <type id="highway.step" priority="1" speed="1.39" allow="pedestrian" oneway="1" width="2.00"/>
    <type id="highway.steps" priority="1" speed="1.39" allow="pedestrian" oneway="1" width="2.00"/>
    <type id="highway.tertiary" priority="10" speed="22.22" disallow="pedestrian tram rail_urban rail rail_electric rail_fast ship" oneway="0"/>
    <type id="highway.tertiary_link" priority="5" speed="22.22" disallow="pedestrian tram rail_urban rail rail_electric rail_fast ship" oneway="0"/>
    <type id="highway.track" priority="1" speed="5.56" allow="pedestrian motorcycle moped bicycle" oneway="0"/>
    <type id="highway.trunk" priority="13" speed="27.78" disallow="pedestrian bicycle tram rail_urban rail rail_electric rail_fast ship" oneway="0"/>
    <type id="highway.trunk_link" priority="8" speed="22.22" disallow="pedestrian bicycle tram rail_urban rail rail_electric rail_fast ship" oneway="0"/>
    <type id="highway.unclassified" priority="4" speed="13.89" disallow="pedestrian tram rail_urban rail rail_electric rail_fast ship" oneway="0"/>
    <type id="highway.unsurfaced" priority="1" speed="8.33" disallow="tram rail_urban rail rail_electric rail_fast ship" oneway="0"/>
    <type id="railway.highspeed" priority="21" speed="69.44" allow="rail_fast" oneway="1"/>
    <type id="railway.light_rail" priority="19" speed="27.78" allow="rail_urban" oneway="1"/>
    <type id="railway.preserved" priority="16" speed="27.78" allow="rail" oneway="1"/>
    <type id="railway.rail" priority="20" speed="44.44" allow="rail" oneway="1"/>
    <type id="railway.subway" priority="18" speed="27.78" allow="rail_urban" oneway="1"/>
    <type id="railway.tram" priority="17" speed="13.89" allow="tram" oneway="1"/>

    <edge id=":101_0" function="internal">
        <lane id=":101_0_0" index="0" disallow="pedestrian tram rail_urban rail rail_electric rail_fast ship" speed="5.04" length="5.56" width="3.49" shape="-900.48,-932.60 -900.05,-933.37 -899.40,-935.10 -899.24,-936.31 -899.37,-936.92 -899.70,-937.42 -899.31,-937.39"/>
    </edge>
    <edge id=":101_1" function="internal">
        <lane id=":101_1_0" index="0" disallow="pedestrian tram rail_urban rail rail_electric rail_fast ship" speed="36.11" length="13.10" width="3.50" shape="-900.31,-932.49 -899.18,-934.14 -896.52,-937.39 -893.62,-940.42 -891.63,-942.26"/>
    </edge>
    <edge id=":101_2" function="internal">
        <lane id=":101_2_0" index="0" disallow="pedestrian tram rail_urban rail rail_electric rail_fast ship" speed="6.91" length="11.22" width="3.47" shape="-900.31,-932.49 -899.26,-934.02 -897.38,-936.22 -896.06,-937.36 -895.05,-937.92 -894.50,-938.08 -893.92,-938.12 -893.36,-937.99 -891.87,-936.91"/>
    </edge>
    <edge id=":101_3" function="internal">
        <lane id=":101_3_0" index="0" disallow="pedestrian tram rail_urban rail rail_electric rail_fast ship" speed="36.11" length="4.27" width="3.49" shape="-895.57,-935.35 -895.89,-935.57 -898.00,-936.77 -899.31,-937.39"/>
    </edge>
    <edge id=":101_4" function="internal">
        <lane id=":101_4_0" index="0" disallow="pedestrian tram rail_urban rail rail_electric rail_fast ship" speed="6.00" length="8.73" width="3.50" shape="-895.57,-935.35 -895.38,-935.33 -895.68,-935.85 -895.80,-936.45 -895.74,-937.06 -895.29,-938.19 -894.23,-939.68 -892.54,-941.44 -891.63,-942.26"/>
    </edge>
    <edge id=":101_5" function="internal">
        <lane id=":101_5_0" index="0" disallow="pedestrian tram rail_urban rail rail_electric rail_fast ship" speed="6.88" length="6.72" width="3.50" shape="-896.96,-940.18 -897.32,-940.52 -895.64,-940.37 -894.53,-940.53 -893.48,-940.91 -892.52,-941.49 -891.63,-942.26"/>
    </edge>
    <edge id=":101_6" function="internal">
        <lane id=":101_6_0" index="0" disallow="pedestrian tram rail_urban rail rail_electric rail_fast ship" speed="33.28" length="6.06" width="3.47" shape="-896.96,-940.18 -896.40,-939.88 -893.99,-938.50 -891.87,-936.91"/>
    </edge>
    <edge id=":102_0" function="internal">
        <lane id=":102_0_0" index="0" disallow="pedestrian tram rail_urban rail rail_electric rail_fast ship" speed="36.11" length="38.24" width="3.50" shape="-900.37,-802.35 -914.35,-798.49 -937.15,-791.87"/>
    </edge>
    <edge id=":102_1" function="internal">
        <lane id=":102_1_0" index="0" disallow="pedestrian tram rail_urban rail rail_electric rail_fast ship" speed="12.60" length="34.66" width="3.50" shape="-900.37,-802.35 -904.17,-801.54 -906.72,-801.27 -909.28,-801.27 -911.83,-801.58 -914.31,-802.24 -916.65,-803.27 -918.82,-804.65 -920.75,-806.33 -922.45,-808.25 -923.91,-810.35 -925.17,-812.59 -926.72,-816.11 -927.16,-817.32"/>
    </edge>
    <edge id=":102_2" function="internal">
        <lane id=":102_2_0" index="0" disallow="pedestrian tram rail_urban rail rail_electric rail_fast ship" speed="11.62" length="29.34" width="3.50" shape="-923.86,-818.46 -923.48,-817.43 -922.11,-814.31 -921.04,-812.39 -919.79,-810.60 -918.37,-808.98 -916.78,-807.59 -915.01,-806.45 -913.10,-805.60 -911.06,-805.06 -908.94,-804.80 -906.77,-804.80 -904.60,-805.02 -901.28,-805.73"/>
    </edge>
    <edge id=":102_3" function="internal">
        <lane id=":102_3_0" index="0" disallow="pedestrian tram rail_urban rail rail_electric rail_fast ship" speed="12.02" length="34.35" width="3.50" shape="-923.86,-818.46 -923.10,-816.03 -922.52,-813.53 -922.16,-810.95 -922.09,-808.30 -922.39,-805.67 -922.70,-804.31 -923.13,-803.01 -923.68,-801.75 -924.34,-800.54 -925.11,-799.41 -925.97,-798.35 -926.94,-797.35 -928.98,-795.68 -931.22,-794.28 -933.57,-793.15 -937.15,-791.87"/>
    </edge>
    <edge id=":102_4" function="internal">
        <lane id=":102_4_0" index="0" disallow="pedestrian tram rail_urban rail rail_electric rail_fast ship" speed="11.01" length="28.63" width="3.50" shape="-938.18,-795.21 -935.07,-796.33 -933.08,-797.28 -931.21,-798.44 -929.51,-799.84 -928.75,-800.63 -928.05,-801.49 -927.44,-802.40 -926.91,-803.37 -926.48,-804.38 -926.13,-805.43 -925.88,-806.50 -925.64,-808.69 -925.70,-810.89 -926.01,-813.07 -926.51,-815.21 -927.16,-817.32"/>
    </edge>
    <edge id=":102_5" function="internal">
        <lane id=":102_5_0" index="0" disallow="pedestrian tram rail_urban rail rail_electric rail_fast ship" speed="36.11" length="38.37" width="3.50" shape="-938.18,-795.21 -915.30,-801.86 -901.28,-805.73"/>
    </edge>
    <edge id=":103_0" function="internal">
        <lane id=":103_0_0" index="0" disallow="pedestrian tram rail_urban rail rail_electric rail_fast ship" speed="8.65" length="16.81" width="3.50" shape="-856.63,-729.45 -857.74,-732.77 -858.95,-735.42 -860.15,-737.41 -861.60,-739.24 -862.86,-740.45 -864.27,-741.48 -865.81,-742.30 -866.28,-742.47"/>
    </edge>
    <edge id=":103_1" function="internal">
        <lane id=":103_1_0" index="0" disallow="pedestrian tram rail_urban rail rail_electric rail_fast ship" speed="36.11" length="36.35" width="3.50" shape="-856.63,-729.45 -861.68,-746.91 -866.72,-764.37"/>
    </edge>
    <edge id=":103_2" function="internal">
        <lane id=":103_2_0" index="0" disallow="pedestrian tram rail_urban rail rail_electric rail_fast ship" speed="36.11" length="36.37" width="3.50" shape="-863.37,-765.36 -858.31,-747.88 -853.27,-730.42"/>
    </edge>
    <edge id=":103_3" function="internal">
        <lane id=":103_3_0" index="0" disallow="pedestrian tram rail_urban rail rail_electric rail_fast ship" speed="9.42" length="19.97" width="3.50" shape="-863.37,-765.36 -862.68,-762.53 -862.32,-759.66 -862.32,-757.34 -862.65,-755.05 -863.33,-752.84 -864.09,-751.27 -865.40,-749.36 -867.00,-747.68 -867.66,-747.16"/>
    </edge>
    <edge id=":104_0" function="internal">
        <lane id=":104_0_0" index="0" disallow="pedestrian tram rail_urban rail rail_electric rail_fast ship" speed="11.01" length="28.89" width="3.50" shape="-939.89,-860.05 -940.87,-863.42 -941.72,-865.51 -942.76,-867.49 -944.05,-869.30 -944.75,-870.08 -945.52,-870.82 -946.35,-871.48 -947.23,-872.05 -948.17,-872.54 -949.15,-872.94 -950.17,-873.26 -951.18,-873.48 -953.40,-873.70 -955.63,-873.64 -957.86,-873.33 -961.27,-872.51"/>
    </edge>
    <edge id=":104_1" function="internal">
        <lane id=":104_1_0" index="0" disallow="pedestrian tram rail_urban rail rail_electric rail_fast ship" speed="36.11" length="38.98" width="3.50" shape="-939.89,-860.05 -941.56,-867.05 -949.17,-897.91"/>
    </edge>
    <edge id=":104_2" function="internal">
        <lane id=":104_2_0" index="0" disallow="pedestrian tram rail_urban rail rail_electric rail_fast ship" speed="36.11" length="39.00" width="3.50" shape="-945.77,-898.77 -938.16,-867.87 -936.49,-860.89"/>
    </edge>
    <edge id=":104_3" function="internal">
        <lane id=":104_3_0" index="0" disallow="pedestrian tram rail_urban rail rail_electric rail_fast ship" speed="12.45" length="34.66" width="3.50" shape="-945.77,-898.77 -945.02,-894.96 -944.78,-892.41 -944.81,-889.85 -945.14,-887.31 -945.82,-884.84 -946.30,-883.65 -946.87,-882.50 -947.54,-881.41 -949.12,-879.39 -950.98,-877.63 -953.05,-876.12 -955.28,-874.85 -957.61,-873.79 -961.27,-872.51"/>
    </edge>
    <edge id=":104_4" function="internal">
        <lane id=":104_4_0" index="0" disallow="pedestrian tram rail_urban rail rail_electric rail_fast ship" speed="11.47" length="29.24" width="3.50" shape="-962.26,-875.86 -959.04,-876.98 -957.04,-877.90 -955.14,-878.98 -953.40,-880.24 -951.86,-881.69 -950.55,-883.36 -950.03,-884.22 -949.56,-885.15 -949.18,-886.08 -948.60,-888.14 -948.33,-890.25 -948.31,-892.41 -948.51,-894.58 -949.17,-897.91"/>
    </edge>
    <edge id=":104_5" function="internal">
        <lane id=":104_5_0" index="0" disallow="pedestrian tram rail_urban rail rail_electric rail_fast ship" speed="12.02" length="34.66" width="3.50" shape="-962.27,-875.86 -958.35,-876.81 -955.71,-877.17 -953.05,-877.25 -950.40,-876.98 -949.10,-876.70 -947.82,-876.30 -946.59,-875.80 -945.41,-875.18 -944.30,-874.46 -943.25,-873.63 -942.28,-872.71 -941.40,-871.72 -939.86,-869.55 -938.61,-867.20 -937.61,-864.73 -936.49,-860.89"/>
    </edge>
    <edge id=":105_0" function="internal">
        <lane id=":105_0_0" index="0" disallow="pedestrian tram rail_urban rail rail_electric rail_fast ship" speed="11.30" length="28.28" width="3.50" shape="-929.05,-822.75 -930.33,-825.91 -931.36,-827.86 -932.57,-829.67 -933.97,-831.30 -935.59,-832.71 -936.42,-833.28 -937.33,-833.80 -938.28,-834.24 -939.23,-834.59 -941.31,-835.09 -943.44,-835.28 -945.62,-835.20 -947.80,-834.91 -951.12,-834.10"/>
    </edge>
    <edge id=":105_1" function="internal">
        <lane id=":105_1_0" index="0" disallow="pedestrian tram rail_urban rail rail_electric rail_fast ship" speed="36.11" length="38.17" width="3.50" shape="-929.05,-822.75 -932.62,-833.53 -935.84,-844.39 -938.75,-855.35 -939.73,-859.38"/>
    </edge>
    <edge id=":105_2" function="internal">
        <lane id=":105_2_0" index="0" disallow="pedestrian tram rail_urban rail rail_electric rail_fast ship" speed="36.11" length="37.80" width="3.50" shape="-936.32,-860.20 -935.35,-856.20 -932.48,-845.34 -929.28,-834.58 -925.75,-823.92"/>
    </edge>
    <edge id=":105_3" function="internal">
        <lane id=":105_3_0" index="0" disallow="pedestrian tram rail_urban rail rail_electric rail_fast ship" speed="12.41" length="33.99" width="3.50" shape="-936.32,-860.20 -935.61,-856.31 -935.39,-853.71 -935.43,-851.10 -935.78,-848.52 -936.48,-846.00 -936.97,-844.80 -937.56,-843.63 -938.24,-842.52 -939.02,-841.47 -939.87,-840.48 -941.78,-838.71 -943.92,-837.21 -946.21,-835.97 -948.61,-834.94 -951.12,-834.10"/>
    </edge>
    <edge id=":105_4" function="internal">
        <lane id=":105_4_0" index="0" disallow="pedestrian tram rail_urban rail rail_electric rail_fast ship" speed="11.41" length="28.62" width="3.50" shape="-952.12,-837.45 -949.94,-838.19 -947.87,-839.07 -945.92,-840.13 -944.13,-841.38 -942.53,-842.86 -941.86,-843.65 -941.23,-844.50 -940.68,-845.40 -940.20,-846.35 -939.81,-847.30 -939.23,-849.40 -938.94,-851.55 -938.91,-853.76 -939.10,-855.98 -939.73,-859.38"/>
    </edge>
    <edge id=":105_5" function="internal">
        <lane id=":105_5_0" index="0" disallow="pedestrian tram rail_urban rail rail_electric rail_fast ship" speed="12.30" length="33.67" width="3.50" shape="-952.12,-837.45 -948.32,-838.38 -945.75,-838.73 -943.17,-838.81 -940.59,-838.58 -938.08,-837.98 -936.86,-837.54 -935.69,-836.99 -934.57,-836.35 -933.50,-835.62 -931.55,-833.92 -929.87,-831.96 -928.43,-829.81 -927.22,-827.52 -925.75,-823.92"/>
    </edge>
    <edge id=":106_0" function="internal">
        <lane id=":106_0_0" index="0" disallow="pedestrian tram rail_urban rail rail_electric rail_fast ship" speed="11.01" length="28.46" width="3.50" shape="-951.69,-907.87 -952.65,-910.99 -953.50,-913.01 -954.56,-914.93 -955.85,-916.70 -956.59,-917.51 -957.40,-918.25 -958.26,-918.92 -959.18,-919.51 -960.16,-920.02 -961.17,-920.43 -962.22,-920.75 -963.29,-920.98 -965.47,-921.21 -967.66,-921.15 -969.83,-920.86 -973.03,-920.11"/>
    </edge>
    <edge id=":106_1" function="internal">
        <lane id=":106_1_0" index="0" disallow="pedestrian tram rail_urban rail rail_electric rail_fast ship" speed="12.28" length="34.31" width="3.50" shape="-951.69,-907.87 -952.23,-910.35 -952.59,-912.90 -952.72,-915.51 -952.56,-918.15 -952.05,-920.75 -951.64,-922.07 -951.12,-923.34 -950.50,-924.55 -949.78,-925.71 -948.96,-926.81 -948.05,-927.82 -947.05,-928.77 -944.96,-930.38 -942.68,-931.71 -940.29,-932.78 -936.68,-933.97"/>
    </edge>
    <edge id=":106_2" function="internal">
        <lane id=":106_2_0" index="0" disallow="pedestrian tram rail_urban rail rail_electric rail_fast ship" speed="11.28" length="28.80" width="3.50" shape="-935.74,-930.60 -938.89,-929.56 -940.92,-928.65 -942.83,-927.53 -944.59,-926.18 -945.39,-925.42 -946.13,-924.59 -946.80,-923.70 -947.38,-922.76 -947.89,-921.77 -948.30,-920.74 -948.64,-919.68 -949.06,-917.51 -949.19,-915.29 -949.07,-913.08 -948.76,-910.88 -948.30,-908.74"/>
    </edge>
    <edge id=":106_3" function="internal">
        <lane id=":106_3_0" index="0" disallow="pedestrian tram rail_urban rail rail_electric rail_fast ship" speed="36.11" length="38.74" width="3.50" shape="-935.74,-930.60 -961.96,-923.30 -973.03,-920.11"/>
    </edge>
    <edge id=":106_4" function="internal">
        <lane id=":106_4_0" index="0" disallow="pedestrian tram rail_urban rail rail_electric rail_fast ship" speed="36.11" length="38.78" width="3.50" shape="-974.01,-923.47 -962.92,-926.67 -936.68,-933.97"/>
    </edge>
    <edge id=":106_5" function="internal">
        <lane id=":106_5_0" index="0" disallow="pedestrian tram rail_urban rail rail_electric rail_fast ship" speed="12.02" length="34.17" width="3.50" shape="-974.01,-923.47 -970.31,-924.34 -967.74,-924.68 -965.12,-924.74 -962.51,-924.48 -961.16,-924.19 -959.86,-923.79 -958.60,-923.28 -957.39,-922.65 -956.23,-921.91 -955.15,-921.08 -954.16,-920.16 -953.23,-919.14 -951.69,-917.02 -950.42,-914.73 -949.41,-912.34 -948.30,-908.74"/>
    </edge>
    <edge id=":107_0" function="internal">
        <lane id=":107_0_0" index="0" disallow="pedestrian tram rail_urban rail rail_electric rail_fast ship" speed="11.37" length="29.10" width="3.50" shape="-874.60,-791.08 -875.67,-794.13 -876.59,-796.08 -877.70,-797.93 -879.03,-799.63 -880.58,-801.13 -881.43,-801.78 -882.34,-802.37 -883.29,-802.87 -884.29,-803.30 -886.35,-803.91 -888.49,-804.22 -890.64,-804.27 -892.79,-804.10 -895.97,-803.52 -897.01,-803.26"/>
    </edge>
    <edge id=":107_1" function="internal">
        <lane id=":107_1_0" index="0" disallow="pedestrian tram rail_urban rail rail_electric rail_fast ship" speed="36.11" length="146.31" width="3.50" shape="-874.60,-791.08 -882.58,-818.80 -888.95,-842.23 -893.91,-861.86 -897.54,-877.64 -900.16,-890.53 -901.95,-901.00 -903.06,-909.53 -903.58,-916.09 -903.64,-921.15 -903.39,-924.68 -902.96,-927.18 -902.37,-929.11 -900.03,-933.11"/>
    </edge>
    <edge id=":107_2" function="internal">
        <lane id=":107_2_0" index="0" disallow="pedestrian tram rail_urban rail rail_electric rail_fast ship" speed="35.06" length="141.17" width="3.50" shape="-895.65,-929.71 -896.29,-928.43 -897.11,-926.03 -897.72,-923.04 -898.11,-918.99 -898.18,-913.91 -897.83,-907.31 -896.98,-899.23 -895.47,-889.17 -893.25,-877.18 -890.14,-862.77 -885.98,-845.47 -880.69,-825.32 -874.09,-801.83 -871.25,-792.10"/>
    </edge>
    <edge id=":107_3" function="internal">
        <lane id=":107_3_0" index="0" disallow="pedestrian tram rail_urban rail rail_electric rail_fast ship" speed="36.11" length="137.05" width="3.50" shape="-895.65,-929.71 -897.02,-927.43 -898.43,-924.49 -899.53,-921.41 -900.45,-917.72 -901.01,-913.95 -901.27,-909.60 -901.17,-904.71 -900.65,-899.29 -899.71,-893.38 -898.21,-886.46 -895.84,-877.52 -891.70,-863.99 -886.85,-848.40 -884.59,-839.99 -883.23,-833.60 -882.52,-828.75 -882.23,-824.41 -882.31,-821.15 -882.71,-817.91 -883.37,-815.27 -884.38,-812.75 -885.46,-810.86 -886.79,-809.13 -888.33,-807.60 -890.07,-806.29 -892.43,-804.94 -894.94,-803.90 -897.01,-803.26"/>
    </edge>
    <edge id=":107_4" function="internal">
        <lane id=":107_4_0" index="0" disallow="pedestrian tram rail_urban rail rail_electric rail_fast ship" speed="36.11" length="137.87" width="3.50" shape="-897.94,-806.63 -894.83,-807.67 -892.37,-808.85 -890.54,-810.04 -888.89,-811.46 -887.45,-813.10 -886.28,-814.94 -885.38,-816.92 -884.62,-819.54 -884.22,-822.24 -884.11,-825.51 -884.37,-829.32 -885.04,-833.63 -886.24,-838.95 -888.21,-845.77 -891.54,-855.59 -899.11,-876.64 -901.96,-885.47 -903.98,-892.83 -905.36,-899.23 -906.16,-904.63 -906.54,-909.52 -906.52,-913.89 -906.18,-917.69 -905.47,-921.44 -904.53,-924.58 -903.28,-927.60 -900.03,-933.11"/>
    </edge>
    <edge id=":107_5" function="internal">
        <lane id=":107_5_0" index="0" disallow="pedestrian tram rail_urban rail rail_electric rail_fast ship" speed="12.36" length="34.58" width="3.50" shape="-897.94,-806.63 -896.70,-806.94 -893.07,-807.61 -890.53,-807.80 -887.97,-807.74 -885.41,-807.36 -882.93,-806.62 -881.68,-806.08 -880.51,-805.46 -879.40,-804.74 -878.32,-803.92 -876.47,-802.11 -874.88,-800.07 -873.56,-797.88 -872.48,-795.58 -871.25,-792.10"/>
    </edge>
    <edge id=":108_0" function="internal">
        <lane id=":108_0_0" index="0" disallow="pedestrian tram rail_urban rail rail_electric rail_fast ship" speed="15.48" length="16.54" width="3.50" shape="-899.50,-937.47 -901.24,-938.07 -902.11,-938.19 -904.12,-938.21 -907.26,-937.88 -910.41,-937.30 -915.71,-936.01"/>
    </edge>
    <edge id=":108_1" function="internal">
        <lane id=":108_1_0" index="0" disallow="pedestrian tram rail_urban rail rail_electric rail_fast ship" speed="36.11" length="21.50" width="3.50" shape="-916.63,-939.39 -912.14,-940.41 -900.12,-942.45 -895.68,-943.54 -895.81,-943.50"/>
    </edge>
    <edge id=":108_2" function="internal">
        <lane id=":108_2_0" index="0" disallow="pedestrian tram rail_urban rail rail_electric rail_fast ship" speed="16.71" length="19.94" width="3.50" shape="-916.63,-939.39 -910.86,-940.77 -907.37,-941.38 -903.84,-941.70 -901.48,-941.62 -900.31,-941.44 -897.15,-940.26"/>
    </edge>
    <edge id=":109_0" function="internal">
        <lane id=":109_0_0" index="0" disallow="pedestrian tram rail_urban rail rail_electric rail_fast ship" speed="15.90" length="14.22" width="3.50" shape="-885.49,-939.79 -887.79,-938.22 -890.51,-935.88 -892.97,-933.26 -895.54,-929.87"/>
    </edge>
    <edge id=":109_1" function="internal">
        <lane id=":109_1_0" index="0" disallow="pedestrian tram rail_urban rail rail_electric rail_fast ship" speed="9.86" length="12.26" width="3.50" shape="-885.29,-939.29 -888.82,-935.98 -890.14,-934.99 -891.61,-934.25 -892.69,-934.05 -893.23,-934.09 -894.27,-934.46 -895.41,-935.24"/>
    </edge>
    <edge id=":109_2" function="internal">
        <lane id=":109_2_0" index="0" disallow="pedestrian tram rail_urban rail rail_electric rail_fast ship" speed="6.64" length="8.79" width="3.50" shape="-891.71,-936.79 -892.30,-937.11 -892.19,-936.55 -892.38,-935.42 -893.05,-933.83 -894.52,-931.36 -895.54,-929.87"/>
    </edge>
    <edge id=":110_0" function="internal">
        <lane id=":110_0_0" index="0" disallow="pedestrian tram rail_urban rail rail_electric rail_fast ship" speed="36.11" length="27.49" width="3.50" shape="-895.62,-943.56 -882.86,-947.43 -869.29,-951.46"/>
    </edge>
    <edge id=":110_1" function="internal">
        <lane id=":110_1_0" index="0" disallow="pedestrian tram rail_urban rail rail_electric rail_fast ship" speed="24.18" length="24.13" width="3.50" shape="-891.48,-942.39 -889.86,-943.59 -887.20,-945.17 -883.47,-946.93 -878.65,-948.74 -872.25,-950.70 -869.29,-951.46"/>
    </edge>
    <edge id=":111_0" function="internal">
        <lane id=":111_0_0" index="0" disallow="pedestrian tram rail_urban rail rail_electric rail_fast ship" speed="10.82" length="29.35" width="3.50" shape="-841.96,-670.50 -842.71,-674.01 -843.41,-676.20 -844.32,-678.29 -845.49,-680.23 -846.14,-681.07 -846.88,-681.87 -847.68,-682.58 -848.53,-683.21 -849.45,-683.75 -850.42,-684.19 -851.44,-684.54 -852.50,-684.80 -853.59,-684.97 -854.67,-685.06 -856.97,-685.03 -859.25,-684.74 -862.71,-683.95"/>
    </edge>
    <edge id=":111_1" function="internal">
        <lane id=":111_1_0" index="0" disallow="pedestrian tram rail_urban rail rail_electric rail_fast ship" speed="36.11" length="39.75" width="3.50" shape="-841.96,-670.50 -842.84,-675.53 -844.87,-685.51 -847.46,-696.41 -850.89,-709.21"/>
    </edge>
    <edge id=":111_2" function="internal">
        <lane id=":111_2_0" index="0" disallow="pedestrian tram rail_urban rail rail_electric rail_fast ship" speed="36.11" length="40.12" width="3.50" shape="-847.53,-710.17 -844.06,-697.25 -841.45,-686.24 -839.40,-676.17 -838.51,-671.10"/>
    </edge>
    <edge id=":111_3" function="internal">
        <lane id=":111_3_0" index="0" disallow="pedestrian tram rail_urban rail rail_electric rail_fast ship" speed="12.27" length="34.65" width="3.50" shape="-847.53,-710.17 -846.70,-706.53 -846.40,-704.00 -846.35,-701.44 -846.63,-698.86 -847.28,-696.35 -847.77,-695.08 -848.36,-693.89 -849.04,-692.75 -849.81,-691.68 -850.69,-690.65 -852.57,-688.89 -854.67,-687.39 -856.89,-686.15 -859.19,-685.13 -862.71,-683.95"/>
    </edge>
    <edge id=":111_4" function="internal">
        <lane id=":111_4_0" index="0" disallow="pedestrian tram rail_urban rail rail_electric rail_fast ship" speed="11.28" length="29.06" width="3.50" shape="-863.67,-687.31 -860.61,-688.34 -858.64,-689.21 -856.76,-690.26 -855.00,-691.51 -853.43,-692.97 -852.73,-693.79 -852.09,-694.66 -851.54,-695.58 -851.06,-696.55 -850.66,-697.55 -850.12,-699.63 -849.89,-701.77 -849.92,-703.92 -850.18,-706.06 -850.89,-709.21"/>
    </edge>
    <edge id=":111_5" function="internal">
        <lane id=":111_5_0" index="0" disallow="pedestrian tram rail_urban rail rail_electric rail_fast ship" speed="11.84" length="35.35" width="3.50" shape="-863.67,-687.31 -859.69,-688.23 -856.99,-688.56 -854.28,-688.61 -852.92,-688.50 -851.58,-688.29 -850.26,-687.97 -848.97,-687.52 -847.73,-686.96 -846.56,-686.28 -845.46,-685.48 -844.45,-684.57 -843.52,-683.57 -842.69,-682.50 -841.29,-680.17 -840.20,-677.68 -839.37,-675.09 -838.51,-671.10"/>
    </edge>
    <edge id=":112_0" function="internal">
        <lane id=":112_0_0" index="0" disallow="pedestrian tram rail_urban rail rail_electric rail_fast ship" speed="36.11" length="20.05" width="3.50" shape="-806.14,-962.58 -806.51,-964.61 -806.57,-966.67 -806.31,-969.23 -805.43,-973.26 -804.26,-978.28 -803.90,-981.35 -803.86,-982.33"/>
    </edge>
    <edge id=":112_1" function="internal">
        <lane id=":112_1_0" index="0" disallow="pedestrian tram rail_urban rail rail_electric rail_fast ship" speed="36.11" length="0.10" width="3.50" shape="-798.45,-978.04 -798.35,-978.07"/>
    </edge>
    <edge id=":112_2" function="internal">
        <lane id=":112_2_0" index="0" disallow="pedestrian tram rail_urban rail rail_electric rail_fast ship" speed="10.95" length="19.87" width="3.50" shape="-814.12,-966.51 -811.52,-968.13 -809.40,-969.84 -807.53,-971.81 -806.26,-973.58 -805.24,-975.51 -804.50,-977.56 -804.06,-979.69 -803.86,-982.33"/>
    </edge>
    <edge id=":112_3" function="internal">
        <lane id=":112_3_0" index="0" disallow="pedestrian tram rail_urban rail rail_electric rail_fast ship" speed="36.11" length="19.31" width="3.50" shape="-814.33,-967.20 -813.68,-967.64 -805.59,-974.05 -802.59,-976.06 -799.84,-977.50 -798.45,-978.03"/>
    </edge>
    <edge id=":113_0" function="internal">
        <lane id=":113_0_0" index="0" disallow="pedestrian tram rail_urban rail rail_electric rail_fast ship" speed="36.11" length="39.02" width="3.50" shape="-710.84,-694.34 -715.44,-706.16 -720.12,-719.03 -724.11,-731.03"/>
    </edge>
    <edge id=":113_1" function="internal">
        <lane id=":113_1_0" index="0" disallow="pedestrian tram rail_urban rail rail_electric rail_fast ship" speed="12.22" length="34.91" width="3.50" shape="-696.78,-717.79 -700.52,-716.75 -703.07,-716.29 -705.64,-716.06 -708.23,-716.12 -710.78,-716.51 -712.03,-716.85 -713.25,-717.30 -714.42,-717.84 -715.54,-718.48 -716.61,-719.21 -717.61,-720.03 -719.40,-721.89 -720.93,-723.98 -722.20,-726.24 -723.25,-728.60 -724.11,-731.03"/>
    </edge>
    <edge id=":113_2" function="internal">
        <lane id=":113_2_0" index="0" disallow="pedestrian tram rail_urban rail rail_electric rail_fast ship" speed="11.23" length="29.31" width="3.50" shape="-720.78,-732.11 -720.02,-729.98 -719.12,-727.95 -718.05,-726.04 -716.78,-724.30 -715.28,-722.76 -714.49,-722.12 -713.63,-721.53 -712.73,-721.02 -711.79,-720.59 -710.80,-720.24 -709.82,-719.97 -707.68,-719.65 -705.52,-719.61 -703.33,-719.81 -701.14,-720.21 -697.87,-721.11"/>
    </edge>
    <edge id=":113_3" function="internal">