<routes>
	<vehicle depart="0.1" departLane="0" departPos="7.7095997973046755" departSpeed="8.5307312" id="333" type="bicycle">
		<route edges="70124 70314"/>
	</vehicle>
	<vehicle depart="0.1" departLane="0" departPos="6.612831922817669" departSpeed="1.9188272" id="312" type="passenger">
		<route edges="70392 70124"/>
	</vehicle>
	<vehicle depart="0.1" departLane="0" departPos="29.732611579778027" departSpeed="0.03623346" id="322" type="passenger">
		<route edges=":38_4 70120"/>
	</vehicle>
	<vehicle depart="0.1" departLane="0" departPos="5.877105858011056" departSpeed="7.6243208" id="327" type="passenger">
		<route edges="70393 70396"/>
	</vehicle>
	<vehicle depart="0.1" departLane="0" departPos="12.655280718958624" departSpeed="1.4994871" id="330" type="passenger">
		<route edges="70123 70120"/>
	</vehicle>
	<vehicle depart="0.1" departLane="0" departPos="37.97445946290605" departSpeed="1.2036075" id="335" type="passenger">
		<route edges=":39_3 70123 70120"/>
	</vehicle>
	<vehicle depart="0.1" departLane="0" departPos="35.03320633315038" departSpeed="7.1569951" id="340" type="passenger">
		<route edges=":38_11 70393 70252"/>
	</vehicle>
	<vehicle depart="0.1" departLane="0" departPos="26.287707862475717" departSpeed="13.727079" id="345" type="passenger">
		<route edges=":38_10 70124 70127"/>
	</vehicle>
	<vehicle depart="0.1" departLane="0" departPos="60.53530737507366" departSpeed="8.3273152" id="354" type="passenger">
		<route edges="70121 70393 70252"/>
	</vehicle>
	<vehicle depart="0.1" departLane="0" departPos="15.227917494539659" departSpeed="0.29528363" id="326" type="motorcycle">
		<route edges=":38_4 70120"/>
	</vehicle>
</routes>
