<!-- generated on Tue Feb  9 22:24:03 2021 by Eclipse SUMO netconvert Version 1.8.0
<configuration xmlns:xsi="http://www.w3.org/2001/XMLSchema-instance" xsi:noNamespaceSchemaLocation="http://sumo.dlr.de/xsd/netconvertConfiguration.xsd">

    <input>
        <node-files value="./converted_scenarios/scenario-factory/DEU_Guetersloh-19_1_I-1-1/DEU_Guetersloh-19_1_I-1-1.nod.xml"/>
        <edge-files value="./converted_scenarios/scenario-factory/DEU_Guetersloh-19_1_I-1-1/DEU_Guetersloh-19_1_I-1-1.edg.xml"/>
        <connection-files value="./converted_scenarios/scenario-factory/DEU_Guetersloh-19_1_I-1-1/DEU_Guetersloh-19_1_I-1-1.con.xml"/>
        <tllogic-files value="./converted_scenarios/scenario-factory/DEU_Guetersloh-19_1_I-1-1/DEU_Guetersloh-19_1_I-1-1.tll.xml"/>
        <type-files value="/home/zen/commonroad-interactive-benchmarks/install/commonroad-map-tool/crmapconverter/sumo_map/templates/DEU.typ.xml"/>
    </input>

    <output>
        <output-file value="./converted_scenarios/scenario-factory/DEU_Guetersloh-19_1_I-1-1/DEU_Guetersloh-19_1_I-1-1.net.xml"/>
    </output>

    <processing>
        <geometry.remove.keep-edges.explicit value="true"/>
        <geometry.avoid-overlap value="true"/>
        <offset.disable-normalization value="true"/>
    </processing>

    <junctions>
        <no-turnarounds value="true"/>
        <junctions.internal-link-detail value="20"/>
    </junctions>

    <report>
        <aggregate-warnings value="5"/>
    </report>

    <random_number>
        <seed value="1234"/>
    </random_number>

</configuration>
--><net xmlns:xsi="http://www.w3.org/2001/XMLSchema-instance" version="1.6" junctionCornerDetail="5" junctionLinkDetail="20" limitTurnSpeed="5.50" xsi:noNamespaceSchemaLocation="http://sumo.dlr.de/xsd/net_file.xsd">

    <location netOffset="0.00,0.00" convBoundary="222.45,184.93,436.91,382.40" origBoundary="222.45,184.93,436.91,382.40" projParameter="!"/>

    <type id="highway.bridleway" priority="1" speed="2.78" allow="pedestrian" oneway="1" width="2.00"/>
    <type id="highway.bus_guideway" priority="1" speed="27.78" allow="bus" oneway="1"/>
    <type id="highway.cycleway" priority="1" speed="8.33" allow="bicycle" oneway="0" width="1.00"/>
    <type id="highway.footway" priority="1" speed="2.78" allow="pedestrian" oneway="1" width="2.00"/>
    <type id="highway.ford" priority="1" speed="2.78" allow="army" oneway="0"/>
    <type id="highway.living_street" priority="2" speed="2.78" disallow="tram rail_urban rail rail_electric rail_fast ship" oneway="0"/>
    <type id="highway.motorway" priority="14" speed="39.44" allow="private emergency authority army vip passenger hov taxi bus coach delivery truck trailer motorcycle evehicle custom1 custom2" oneway="1"/>
    <type id="highway.motorway_link" priority="9" speed="22.22" allow="private emergency authority army vip passenger hov taxi bus coach delivery truck trailer motorcycle evehicle custom1 custom2" oneway="1"/>
    <type id="highway.path" priority="1" speed="2.78" allow="pedestrian bicycle" oneway="0" width="2.00"/>
    <type id="highway.pedestrian" priority="1" speed="2.78" allow="pedestrian" oneway="1" width="2.00"/>
    <type id="highway.primary" priority="12" speed="27.78" disallow="pedestrian tram rail_urban rail rail_electric rail_fast ship" oneway="0"/>
    <type id="highway.primary_link" priority="7" speed="22.22" disallow="pedestrian tram rail_urban rail rail_electric rail_fast ship" oneway="0"/>
    <type id="highway.raceway" priority="15" speed="83.33" allow="vip" oneway="0"/>
    <type id="highway.residential" priority="3" speed="13.89" disallow="pedestrian tram rail_urban rail rail_electric rail_fast ship" oneway="0"/>
    <type id="highway.secondary" priority="11" speed="27.78" disallow="pedestrian tram rail_urban rail rail_electric rail_fast ship" oneway="0"/>
    <type id="highway.secondary_link" priority="6" speed="22.22" disallow="pedestrian tram rail_urban rail rail_electric rail_fast ship" oneway="0"/>
    <type id="highway.service" priority="1" speed="5.56" allow="pedestrian delivery bicycle" oneway="0"/>
    <type id="highway.stairs" priority="1" speed="1.39" allow="pedestrian" oneway="1" width="2.00"/>
    <type id="highway.step" priority="1" speed="1.39" allow="pedestrian" oneway="1" width="2.00"/>
    <type id="highway.steps" priority="1" speed="1.39" allow="pedestrian" oneway="1" width="2.00"/>
    <type id="highway.tertiary" priority="10" speed="22.22" disallow="pedestrian tram rail_urban rail rail_electric rail_fast ship" oneway="0"/>
    <type id="highway.tertiary_link" priority="5" speed="22.22" disallow="pedestrian tram rail_urban rail rail_electric rail_fast ship" oneway="0"/>
    <type id="highway.track" priority="1" speed="5.56" allow="pedestrian motorcycle moped bicycle" oneway="0"/>
    <type id="highway.trunk" priority="13" speed="27.78" disallow="pedestrian bicycle tram rail_urban rail rail_electric rail_fast ship" oneway="0"/>
    <type id="highway.trunk_link" priority="8" speed="22.22" disallow="pedestrian bicycle tram rail_urban rail rail_electric rail_fast ship" oneway="0"/>
    <type id="highway.unclassified" priority="4" speed="13.89" disallow="pedestrian tram rail_urban rail rail_electric rail_fast ship" oneway="0"/>
    <type id="highway.unsurfaced" priority="1" speed="8.33" disallow="tram rail_urban rail rail_electric rail_fast ship" oneway="0"/>
    <type id="railway.highspeed" priority="21" speed="69.44" allow="rail_fast" oneway="1"/>
    <type id="railway.light_rail" priority="19" speed="27.78" allow="rail_urban" oneway="1"/>
    <type id="railway.preserved" priority="16" speed="27.78" allow="rail" oneway="1"/>
    <type id="railway.rail" priority="20" speed="44.44" allow="rail" oneway="1"/>
    <type id="railway.subway" priority="18" speed="27.78" allow="rail_urban" oneway="1"/>
    <type id="railway.tram" priority="17" speed="13.89" allow="tram" oneway="1"/>

    <edge id=":20_0" function="internal">
        <lane id=":20_0_0" index="0" disallow="pedestrian tram rail_urban rail rail_electric rail_fast ship" speed="36.11" length="0.10" width="3.50" shape="413.85,304.64 413.85,304.64"/>
    </edge>
    <edge id=":27_0" function="internal">
        <lane id=":27_0_0" index="0" disallow="pedestrian tram rail_urban rail rail_electric rail_fast ship" speed="36.11" length="3.51" width="3.50" shape="432.45,290.32 432.58,286.81"/>
    </edge>
    <edge id=":29_0" function="internal">
        <lane id=":29_0_0" index="0" disallow="pedestrian tram rail_urban rail rail_electric rail_fast ship" speed="36.11" length="3.19" width="3.50" shape="415.15,308.20 411.97,307.97"/>
    </edge>
    <edge id=":35_0" function="internal">
        <lane id=":35_0_0" index="0" disallow="pedestrian tram rail_urban rail rail_electric rail_fast ship" speed="36.11" length="3.49" width="3.50" shape="436.08,286.93 435.94,290.42"/>
    </edge>
    <edge id=":37_0" function="internal">
        <lane id=":37_0_0" index="0" disallow="pedestrian tram rail_urban rail rail_electric rail_fast ship" speed="12.09" length="27.59" width="3.50" shape="388.39,305.37 385.02,305.05 381.75,305.07 379.63,305.28 377.55,305.70 375.56,306.33 373.68,307.20 371.95,308.30 370.38,309.64 369.01,311.18 367.82,312.90 366.82,314.76 366.00,316.74"/>
    </edge>
    <edge id=":37_1" function="internal">
        <lane id=":37_1_0" index="0" disallow="pedestrian tram rail_urban rail rail_electric rail_fast ship" speed="36.11" length="36.67" width="3.50" shape="388.39,305.38 385.14,304.71 381.04,303.40 376.05,301.40 369.22,298.23 360.63,293.77 354.98,290.64"/>
    </edge>
    <edge id=":37_2" function="internal">
        <lane id=":37_2_0" index="0" disallow="pedestrian tram rail_urban rail rail_electric rail_fast ship" speed="36.11" length="35.35" width="3.50" shape="356.64,287.56 362.21,290.64 370.59,295.00 377.21,298.10 382.01,300.04 385.88,301.29 388.80,301.90"/>
    </edge>
    <edge id=":37_3" function="internal">
        <lane id=":37_3_0" index="0" disallow="pedestrian tram rail_urban rail rail_electric rail_fast ship" speed="12.82" length="33.93" width="3.50" shape="356.64,287.56 357.77,288.23 359.81,289.61 361.74,291.20 363.51,293.01 365.06,295.04 366.32,297.27 367.27,299.66 367.87,302.15 368.14,304.67 368.13,307.18 367.87,309.67 367.11,313.26 366.00,316.74"/>
    </edge>
    <edge id=":37_4" function="internal">
        <lane id=":37_4_0" index="0" disallow="pedestrian tram rail_urban rail rail_electric rail_fast ship" speed="11.87" length="28.88" width="3.50" shape="362.72,315.53 363.69,312.48 364.36,309.34 364.59,307.21 364.62,305.07 364.40,302.94 363.91,300.86 363.14,298.86 362.10,296.99 360.81,295.28 359.32,293.75 357.67,292.39 355.90,291.19 354.98,290.64"/>
    </edge>
    <edge id=":37_5" function="internal">
        <lane id=":37_5_0" index="0" disallow="pedestrian tram rail_urban rail rail_electric rail_fast ship" speed="13.05" length="32.29" width="3.50" shape="362.72,315.53 363.67,313.24 364.84,311.05 366.23,309.00 367.88,307.14 369.75,305.52 371.83,304.17 374.08,303.11 376.44,302.34 378.87,301.84 381.33,301.57 385.06,301.55 388.80,301.90"/>
    </edge>
    <edge id=":38_0" function="internal">
        <lane id=":38_0_0" index="0" disallow="pedestrian tram rail_urban rail rail_electric rail_fast ship" speed="16.09" length="49.13" width="3.50" shape="347.37,287.34 344.38,286.63 341.23,286.20 338.06,286.10 334.92,286.35 331.82,286.96 328.81,287.93 325.92,289.23 323.15,290.82 320.53,292.66 318.05,294.72 315.71,296.96 312.79,300.19 310.10,303.61 306.99,308.15"/>
    </edge>
    <edge id=":38_1" function="internal">
        <lane id=":38_1_0" index="0" disallow="pedestrian tram rail_urban rail rail_electric rail_fast ship" speed="36.11" length="55.03" width="3.50" shape="347.36,287.34 345.67,286.98 340.68,286.38 331.50,285.76 316.10,285.21 292.44,284.81"/>
    </edge>
    <edge id=":38_2" function="internal">
        <lane id=":38_2_0" index="0" disallow="pedestrian tram rail_urban rail rail_electric rail_fast ship" speed="11.52" length="38.09" width="3.50" shape="347.37,287.33 343.29,286.01 340.57,284.91 337.94,283.60 335.46,282.01 334.31,281.10 333.24,280.09 332.28,278.98 331.45,277.77 330.79,276.46 330.32,275.07 330.05,273.62 329.98,272.15 330.09,270.69 330.37,269.25 330.78,267.84 331.92,265.13 333.36,262.57 335.03,260.14"/>
    </edge>
    <edge id=":38_3" function="internal">
        <lane id=":38_3_0" index="0" disallow="pedestrian tram rail_urban rail rail_electric rail_fast ship" speed="10.47" length="31.20" width="3.50" shape="337.84,262.21 336.42,264.29 335.21,266.45 334.28,268.71 333.97,269.81 333.77,270.93 333.70,272.05 333.77,273.14 333.99,274.19 334.36,275.21 334.88,276.18 335.53,277.09 336.30,277.94 337.16,278.73 338.08,279.45 340.18,280.77 342.43,281.88 344.77,282.82 348.48,284.01"/>
    </edge>
    <edge id=":38_4" function="internal">
        <lane id=":38_4_0" index="0" disallow="pedestrian tram rail_urban rail rail_electric rail_fast ship" speed="36.11" length="55.34" width="3.50" shape="337.84,262.21 330.72,272.21 320.97,286.64 306.99,308.15"/>
    </edge>
    <edge id=":38_5" function="internal">
        <lane id=":38_5_0" index="0" disallow="pedestrian tram rail_urban rail rail_electric rail_fast ship" speed="21.00" length="52.82" width="3.50" shape="337.84,262.21 335.12,265.66 332.17,268.91 328.98,271.93 325.54,274.70 321.88,277.16 318.02,279.30 313.98,281.09 309.81,282.52 305.53,283.59 301.19,284.32 296.82,284.71 292.44,284.81"/>
    </edge>
    <edge id=":38_6" function="internal">
        <lane id=":38_6_0" index="0" disallow="pedestrian tram rail_urban rail rail_electric rail_fast ship" speed="20.34" length="49.52" width="3.50" shape="292.47,281.31 296.60,281.22 300.71,280.85 304.78,280.17 308.78,279.17 312.68,277.83 316.46,276.16 320.06,274.16 323.48,271.86 326.70,269.27 329.69,266.43 332.47,263.38 335.03,260.14"/>
    </edge>
    <edge id=":38_7" function="internal">
        <lane id=":38_7_0" index="0" disallow="pedestrian tram rail_urban rail rail_electric rail_fast ship" speed="36.11" length="56.13" width="3.50" shape="292.47,281.31 316.37,281.72 331.94,282.29 341.26,282.93 346.42,283.57 348.48,284.01"/>
    </edge>
    <edge id=":38_8" function="internal">
        <lane id=":38_8_0" index="0" disallow="pedestrian tram rail_urban rail rail_electric rail_fast ship" speed="11.45" length="42.91" width="3.50" shape="292.47,281.31 297.42,281.55 300.69,281.97 303.91,282.70 305.48,283.21 307.00,283.86 308.44,284.65 309.77,285.63 310.93,286.81 311.85,288.17 312.49,289.69 312.84,291.30 312.93,292.95 312.81,294.59 312.52,296.21 312.09,297.81 310.94,300.90 309.50,303.87 306.99,308.15"/>
    </edge>
    <edge id=":38_9" function="internal">
        <lane id=":38_9_0" index="0" disallow="pedestrian tram rail_urban rail rail_electric rail_fast ship" speed="10.37" length="34.89" width="3.50" shape="304.04,306.27 306.24,302.53 307.46,299.99 308.44,297.37 308.79,296.09 309.02,294.79 309.12,293.51 309.05,292.28 308.80,291.12 308.36,290.06 307.71,289.11 306.88,288.27 305.88,287.54 304.76,286.92 303.54,286.41 302.28,286.00 299.55,285.38 296.75,285.02 292.44,284.81"/>
    </edge>
    <edge id=":38_10" function="internal">
        <lane id=":38_10_0" index="0" disallow="pedestrian tram rail_urban rail rail_electric rail_fast ship" speed="36.11" length="55.58" width="3.50" shape="304.04,306.27 318.07,284.69 327.86,270.20 335.03,260.14"/>
    </edge>
    <edge id=":38_11" function="internal">
        <lane id=":38_11_0" index="0" disallow="pedestrian tram rail_urban rail rail_electric rail_fast ship" speed="16.83" length="53.79" width="3.50" shape="304.04,306.27 307.36,301.43 310.25,297.76 313.40,294.31 315.94,291.89 318.64,289.67 321.52,287.67 324.57,285.95 327.78,284.54 331.13,283.50 334.57,282.84 338.06,282.58 341.57,282.71 345.04,283.19 348.48,284.01"/>
    </edge>
    <edge id=":39_0" function="internal">
        <lane id=":39_0_0" index="0" disallow="pedestrian tram rail_urban rail rail_electric rail_fast ship" speed="36.11" length="39.09" width="3.50" shape="372.96,220.10 358.77,236.39 347.51,249.77"/>
    </edge>
    <edge id=":39_1" function="internal">
        <lane id=":39_1_0" index="0" disallow="pedestrian tram rail_urban rail rail_electric rail_fast ship" speed="13.95" length="33.51" width="3.50" shape="372.96,220.10 372.14,220.99 370.37,222.62 368.39,224.06 366.24,225.24 363.95,226.15 361.57,226.75 359.16,227.06 356.75,227.10 354.36,226.91 352.01,226.53 348.61,225.66 345.32,224.50 342.14,223.13"/>
    </edge>
    <edge id=":39_2" function="internal">
        <lane id=":39_2_0" index="0" disallow="pedestrian tram rail_urban rail rail_electric rail_fast ship" speed="13.02" length="29.10" width="3.50" shape="343.55,219.93 346.48,221.19 349.41,222.23 352.41,223.03 354.45,223.38 356.52,223.57 358.59,223.56 360.65,223.33 362.66,222.85 364.60,222.12 366.43,221.14 368.11,219.93 369.64,218.54 370.36,217.77"/>
    </edge>
    <edge id=":39_3" function="internal">
        <lane id=":39_3_0" index="0" disallow="pedestrian tram rail_urban rail rail_electric rail_fast ship" speed="11.57" length="36.94" width="3.50" shape="343.55,219.92 346.14,221.26 348.53,222.79 350.72,224.59 351.70,225.61 352.59,226.71 353.36,227.90 353.99,229.17 354.47,230.50 354.78,231.89 354.92,233.30 354.89,234.71 354.73,236.12 354.43,237.51 353.54,240.19 352.32,242.75 350.88,245.19 348.41,248.65 347.51,249.77"/>
    </edge>
    <edge id=":39_4" function="internal">
        <lane id=":39_4_0" index="0" disallow="pedestrian tram rail_urban rail rail_electric rail_fast ship" speed="10.52" length="30.31" width="3.50" shape="344.79,247.57 345.58,246.59 347.76,243.55 349.00,241.47 350.04,239.31 350.81,237.06 351.05,235.98 351.20,234.87 351.24,233.77 351.15,232.69 350.94,231.64 350.60,230.62 350.13,229.65 349.55,228.72 348.86,227.85 348.11,227.04 346.30,225.53 344.29,224.24 342.14,223.13"/>
    </edge>
    <edge id=":39_5" function="internal">
        <lane id=":39_5_0" index="0" disallow="pedestrian tram rail_urban rail rail_electric rail_fast ship" speed="36.11" length="39.27" width="3.50" shape="344.79,247.57 356.11,234.12 370.36,217.77"/>
    </edge>

    <edge id="70120" from="38" to="12" priority="3" type="highway.residential" spreadType="center" length="70.00" shape="322.16,285.08 276.44,370.88">
        <lane id="70120_0" index="0" disallow="pedestrian tram rail_urban rail rail_electric rail_fast ship" speed="36.11" length="70.00" width="3.50" customShape="1" shape="306.99,308.15 306.18,309.41 299.00,320.98 293.98,329.72 289.77,337.77 285.92,345.99 282.22,354.82 278.51,364.74 276.44,370.88"/>
    </edge>
    <edge id="70121" from="32" to="38" priority="3" type="highway.residential" spreadType="center" length="70.01" shape="273.40,368.96 319.08,283.43">
        <lane id="70121_0" index="0" disallow="pedestrian tram rail_urban rail rail_electric rail_fast ship" speed="36.11" length="70.01" width="3.50" customShape="1" shape="273.40,368.96 275.39,363.08 279.13,353.13 282.86,344.25 286.75,335.98 290.99,327.89 296.04,319.11 303.23,307.53 304.04,306.26"/>
    </edge>
    <edge id="70123" from="39" to="38" priority="3" type="highway.residential" spreadType="center" length="15.82" shape="355.09,230.58 322.10,285.19">
        <lane id="70123_0" index="0" disallow="pedestrian tram rail_urban rail rail_electric rail_fast ship" speed="36.11" length="15.82" width="3.50" customShape="1" shape="347.51,249.77 344.32,253.72 337.81,262.26"/>
    </edge>
    <edge id="70124" from="38" to="39" priority="3" type="highway.residential" spreadType="center" length="15.94" shape="319.11,283.38 352.10,228.77">
        <lane id="70124_0" index="0" disallow="pedestrian tram rail_urban rail rail_electric rail_fast ship" speed="36.11" length="15.94" width="3.50" customShape="1" shape="335.03,260.14 341.57,251.55 344.81,247.55"/>
    </edge>
    <edge id="70126" from="31" to="39" priority="3" type="highway.residential" spreadType="center" length="51.37" shape="412.59,187.76 354.58,231.14">
        <lane id="70126_0" index="0" disallow="pedestrian tram rail_urban rail rail_electric rail_fast ship" speed="36.11" length="51.37" width="3.50" customShape="1" shape="412.59,187.76 412.18,188.04 407.01,191.15 398.60,197.54 389.12,205.00 382.61,210.54 377.09,215.68 372.91,220.16"/>
    </edge>
    <edge id="70127" from="39" to="26" priority="3" type="highway.residential" spreadType="center" length="52.03" shape="352.49,228.34 410.53,184.93">
        <lane id="70127_0" index="0" disallow="pedestrian tram rail_urban rail rail_electric rail_fast ship" speed="36.11" length="52.03" width="3.50" customShape="1" shape="370.36,217.77 374.57,213.26 380.20,208.00 386.81,202.36 396.41,194.81 404.97,188.31 410.20,185.16 410.53,184.93"/>
    </edge>
    <edge id="70251" from="28" to="37" priority="3" type="highway.residential" spreadType="center" length="70.01" shape="338.46,381.20 367.96,302.32">
        <lane id="70251_0" index="0" disallow="pedestrian tram rail_urban rail rail_electric rail_fast ship" speed="36.11" length="70.01" width="3.50" customShape="1" shape="338.46,381.20 362.72,315.53"/>
    </edge>
    <edge id="70252" from="37" to="19" priority="3" type="highway.residential" spreadType="center" length="69.99" shape="371.24,303.54 341.75,382.40">
        <lane id="70252_0" index="0" disallow="pedestrian tram rail_urban rail rail_electric rail_fast ship" speed="36.11" length="69.99" width="3.50" customShape="1" shape="366.00,316.74 341.75,382.40"/>
    </edge>
    <edge id="70313" from="30" to="39" priority="3" type="highway.residential" spreadType="center" length="69.99" shape="277.63,196.95 354.26,228.11">
        <lane id="70313_0" index="0" disallow="pedestrian tram rail_urban rail rail_electric rail_fast ship" speed="36.11" length="69.99" width="3.50" customShape="1" shape="277.63,196.95 287.15,199.45 300.25,203.26 311.31,206.85 321.29,210.48 331.13,214.47 343.62,219.96"/>
    </edge>
    <edge id="70314" from="39" to="22" priority="3" type="highway.residential" spreadType="center" length="70.00" shape="352.94,231.35 276.13,200.18">
        <lane id="70314_0" index="0" disallow="pedestrian tram rail_urban rail rail_electric rail_fast ship" speed="36.11" length="70.00" width="3.50" customShape="1" shape="342.14,223.13 329.74,217.68 319.99,213.73 310.10,210.14 299.13,206.58 286.12,202.79 276.13,200.18"/>
    </edge>
    <edge id="70318" from="36" to="35" priority="3" type="highway.residential" spreadType="center" length="40.06">
        <lane id="70318_0" index="0" disallow="pedestrian tram rail_urban rail rail_electric rail_fast ship" speed="36.11" length="40.06" width="3.50" customShape="1" shape="436.91,246.88 436.48,267.76 436.08,286.93"/>
    </edge>
    <edge id="70319" from="27" to="34" priority="3" type="highway.residential" spreadType="center" length="40.02">
        <lane id="70319_0" index="0" disallow="pedestrian tram rail_urban rail rail_electric rail_fast ship" speed="36.11" length="40.02" width="3.50" customShape="1" shape="432.58,286.81 432.98,267.69 433.42,246.80"/>
    </edge>
    <edge id="70389" from="38" to="13" priority="3" type="highway.residential" spreadType="center" length="70.00" shape="320.60,286.04 222.45,283.88">
        <lane id="70389_0" index="0" disallow="pedestrian tram rail_urban rail rail_electric rail_fast ship" speed="36.11" length="70.00" width="3.50" customShape="1" shape="292.44,284.81 250.14,284.44 235.54,284.22 222.45,283.88"/>
    </edge>
    <edge id="70390" from="33" to="38" priority="3" type="highway.residential" spreadType="center" length="70.00" shape="222.49,280.38 320.67,282.54">
        <lane id="70390_0" index="0" disallow="pedestrian tram rail_urban rail rail_electric rail_fast ship" speed="36.11" length="70.00" width="3.50" customShape="1" shape="222.49,280.38 235.64,280.73 250.21,280.94 292.48,281.31"/>
    </edge>
    <edge id="70392" from="37" to="38" priority="3" type="highway.residential" spreadType="center" length="8.32" shape="368.96,304.60 319.93,285.90">
        <lane id="70392_0" index="0" disallow="pedestrian tram rail_urban rail rail_electric rail_fast ship" speed="36.11" length="8.32" width="3.50" customShape="1" shape="354.98,290.64 353.17,289.67 349.92,288.18 347.37,287.33"/>
    </edge>
    <edge id="70393" from="38" to="37" priority="3" type="highway.residential" spreadType="center" length="8.98" shape="321.17,282.63 370.21,301.33">
        <lane id="70393_0" index="0" disallow="pedestrian tram rail_urban rail rail_electric rail_fast ship" speed="36.11" length="8.98" width="3.50" customShape="1" shape="348.48,284.01 351.16,284.91 354.72,286.53 356.69,287.59"/>
    </edge>
    <edge id="70395" from="29" to="37" priority="3" type="highway.residential" spreadType="center" length="23.78" shape="413.56,308.13 369.38,304.70">
        <lane id="70395_0" index="0" disallow="pedestrian tram rail_urban rail rail_electric rail_fast ship" speed="36.11" length="23.78" width="3.50" customShape="1" shape="411.97,307.97 401.90,306.98 388.33,305.36"/>
    </edge>
    <edge id="70396" from="37" to="20" priority="3" type="highway.residential" spreadType="center" length="25.20" shape="369.65,301.21 413.85,304.64">
        <lane id="70396_0" index="0" disallow="pedestrian tram rail_urban rail rail_electric rail_fast ship" speed="36.11" length="25.20" width="3.50" customShape="1" shape="388.80,301.90 402.29,303.50 413.85,304.64"/>
    </edge>
    <edge id="71071" from="20" to="27" priority="3" type="highway.residential" spreadType="center" length="27.03">
        <lane id="71071_0" index="0" disallow="pedestrian tram rail_urban rail rail_electric rail_fast ship" speed="36.11" length="27.03" width="3.50" customShape="1" shape="413.85,304.64 417.16,304.79 419.37,304.68 421.56,304.35 423.70,303.76 424.73,303.35 425.72,302.85 426.66,302.27 427.54,301.60 428.36,300.85 429.10,300.03 429.76,299.14 430.34,298.19 430.84,297.20 431.61,295.13 432.12,292.97 432.42,290.78 432.45,290.32"/>
    </edge>
    <edge id="71494" from="35" to="29" priority="3" type="highway.residential" spreadType="center" length="31.24">
        <lane id="71494_0" index="0" disallow="pedestrian tram rail_urban rail rail_electric rail_fast ship" speed="36.11" length="31.24" width="3.50" customShape="1" shape="435.94,290.42 435.90,291.21 435.55,293.79 434.94,296.36 434.02,298.84 433.40,300.08 432.68,301.25 431.86,302.37 430.94,303.40 429.92,304.34 428.81,305.19 427.64,305.91 426.41,306.53 425.12,307.05 422.57,307.77 419.96,308.17 417.35,308.30 415.15,308.20"/>
    </edge>

    <junction id="12" type="dead_end" x="276.44" y="370.88" incLanes="70120_0" intLanes="" shape="278.10,371.44 274.79,370.33" rightOfWay="edgePriority"/>
    <junction id="13" type="dead_end" x="222.45" y="283.88" incLanes="70389_0" intLanes="" shape="222.40,285.63 222.49,282.13" rightOfWay="edgePriority"/>
    <junction id="19" type="dead_end" x="341.75" y="382.40" incLanes="70252_0" intLanes="" shape="343.39,383.01 340.11,381.80" rightOfWay="edgePriority"/>
    <junction id="20" type="priority" x="413.85" y="304.64" incLanes="70396_0" intLanes=":20_0_0" shape="413.82,306.39 413.97,302.90 413.63,306.38" rightOfWay="edgePriority">
        <request index="0" response="0" foes="0" cont="0"/>
    </junction>
    <junction id="22" type="dead_end" x="276.13" y="200.18" incLanes="70314_0" intLanes="" shape="275.69,201.87 276.57,198.49" rightOfWay="edgePriority"/>
    <junction id="26" type="dead_end" x="410.53" y="184.93" incLanes="70127_0" intLanes="" shape="409.51,183.50 411.54,186.35" rightOfWay="edgePriority"/>
    <junction id="27" type="priority" x="432.54" y="288.57" incLanes="71071_0" intLanes=":27_0_0" shape="434.33,286.85 430.83,286.78 430.70,290.23 434.19,290.42" rightOfWay="edgePriority">
        <request index="0" response="0" foes="0" cont="0"/>
    </junction>
    <junction id="28" type="dead_end" x="338.46" y="381.20" incLanes="" intLanes="" shape="340.10,381.80 336.81,380.59" rightOfWay="edgePriority"/>
    <junction id="29" type="priority" x="413.56" y="308.13" incLanes="71494_0" intLanes=":29_0_0" shape="415.08,309.95 415.23,306.45 412.14,306.23 411.80,309.71" rightOfWay="edgePriority">
        <request index="0" response="0" foes="0" cont="0"/>
    </junction>
    <junction id="30" type="dead_end" x="277.63" y="196.95" incLanes="" intLanes="" shape="277.18,198.64 278.07,195.26" rightOfWay="edgePriority"/>
    <junction id="31" type="dead_end" x="412.59" y="187.76" incLanes="" intLanes="" shape="411.58,186.33 413.60,189.18" rightOfWay="edgePriority"/>
    <junction id="32" type="dead_end" x="273.40" y="368.96" incLanes="" intLanes="" shape="275.06,369.52 271.74,368.40" rightOfWay="edgePriority"/>
    <junction id="33" type="dead_end" x="222.49" y="280.38" incLanes="" intLanes="" shape="222.44,282.13 222.53,278.63" rightOfWay="edgePriority"/>
    <junction id="34" type="dead_end" x="433.42" y="246.80" incLanes="70319_0" intLanes="" shape="431.67,246.77 435.16,246.84" rightOfWay="edgePriority"/>
    <junction id="35" type="priority" x="436.04" y="288.67" incLanes="70318_0" intLanes=":35_0_0" shape="437.83,286.96 434.33,286.89 434.20,290.32 437.69,290.52" rightOfWay="edgePriority">
        <request index="0" response="0" foes="0" cont="0"/>
    </junction>
    <junction id="36" type="dead_end" x="436.91" y="246.88" incLanes="" intLanes="" shape="435.16,246.84 438.66,246.91" rightOfWay="edgePriority"/>
    <junction id="37" type="priority" x="369.59" y="302.96" incLanes="70395_0 70393_0 70251_0" intLanes=":37_0_0 :37_1_0 :37_2_0 :37_3_0 :37_4_0 :37_5_0" shape="388.18,307.11 389.01,300.16 381.77,298.97 376.59,297.41 372.51,295.40 368.60,292.88 363.90,289.77 357.47,286.02 354.15,292.18 357.89,294.73 360.60,297.78 362.27,301.32 362.91,305.36 362.51,309.89 361.08,314.92 367.64,317.35 369.46,313.69 371.92,310.81 375.02,308.71 378.77,307.40 383.15,306.86">
        <request index="0" response="000000" foes="001000" cont="0"/>
        <request index="1" response="000000" foes="111000" cont="0"/>
        <request index="2" response="000000" foes="100000" cont="0"/>
        <request index="3" response="000011" foes="100011" cont="0"/>
        <request index="4" response="000010" foes="000010" cont="0"/>
        <request index="5" response="001110" foes="001110" cont="0"/>
    </junction>
    <junction id="38" type="priority" x="320.60" y="284.29" incLanes="70392_0 70123_0 70390_0 70121_0" intLanes=":38_0_0 :38_1_0 :38_2_0 :38_3_0 :38_4_0 :38_5_0 :38_6_0 :38_7_0 :38_8_0 :38_9_0 :38_10_0 :38_11_0" shape="346.82,288.99 349.03,282.35 343.88,280.29 339.86,277.84 337.18,274.97 336.03,271.62 336.64,267.75 339.20,263.32 333.64,259.07 328.10,265.40 322.04,270.56 315.45,274.55 308.32,277.39 300.67,279.06 292.48,279.56 292.42,286.56 297.73,287.30 301.74,289.26 304.33,292.24 305.40,296.05 304.85,300.48 302.56,305.32 308.46,309.09 314.34,300.99 320.43,294.79 326.72,290.49 333.22,288.09 339.92,287.59">
        <request index="0" response="000000010000" foes="000100010000" cont="0"/>
        <request index="1" response="111000110000" foes="111100110000" cont="0"/>
        <request index="2" response="110011110000" foes="110011110000" cont="0"/>
        <request index="3" response="000000000000" foes="100010000000" cont="0"/>
        <request index="4" response="000000000000" foes="100110000111" cont="0"/>
        <request index="5" response="011000000000" foes="011110000110" cont="0"/>
        <request index="6" response="010000000000" foes="010000000100" cont="0"/>
        <request index="7" response="110000111000" foes="110000111100" cont="0"/>
        <request index="8" response="110000110011" foes="110000110011" cont="0"/>
        <request index="9" response="000000000000" foes="000000100010" cont="0"/>
        <request index="10" response="000000000000" foes="000111100110" cont="0"/>
        <request index="11" response="000000011000" foes="000110011110" cont="0"/>
    </junction>