<!-- generated on Tue Feb  9 22:12:53 2021 by Eclipse SUMO netconvert Version 1.8.0
<configuration xmlns:xsi="http://www.w3.org/2001/XMLSchema-instance" xsi:noNamespaceSchemaLocation="http://sumo.dlr.de/xsd/netconvertConfiguration.xsd">

    <input>
        <node-files value="./converted_scenarios/scenario-factory/DEU_Guetersloh-29_2_I-1-1/DEU_Guetersloh-29_2_I-1-1.nod.xml"/>
        <edge-files value="./converted_scenarios/scenario-factory/DEU_Guetersloh-29_2_I-1-1/DEU_Guetersloh-29_2_I-1-1.edg.xml"/>
        <connection-files value="./converted_scenarios/scenario-factory/DEU_Guetersloh-29_2_I-1-1/DEU_Guetersloh-29_2_I-1-1.con.xml"/>
        <tllogic-files value="./converted_scenarios/scenario-factory/DEU_Guetersloh-29_2_I-1-1/DEU_Guetersloh-29_2_I-1-1.tll.xml"/>
        <type-files value="/home/zen/commonroad-interactive-benchmarks/install/commonroad-map-tool/crmapconverter/sumo_map/templates/DEU.typ.xml"/>
    </input>

    <output>
        <output-file value="./converted_scenarios/scenario-factory/DEU_Guetersloh-29_2_I-1-1/DEU_Guetersloh-29_2_I-1-1.net.xml"/>
    </output>

    <processing>
        <geometry.remove.keep-edges.explicit value="true"/>
        <geometry.avoid-overlap value="true"/>
        <offset.disable-normalization value="true"/>
    </processing>

    <junctions>
        <no-turnarounds value="true"/>
        <junctions.internal-link-detail value="20"/>
    </junctions>

    <report>
        <aggregate-warnings value="5"/>
    </report>

    <random_number>
        <seed value="1234"/>
    </random_number>

</configuration>
--><net xmlns:xsi="http://www.w3.org/2001/XMLSchema-instance" version="1.6" junctionCornerDetail="5" junctionLinkDetail="20" limitTurnSpeed="5.50" xsi:noNamespaceSchemaLocation="http://sumo.dlr.de/xsd/net_file.xsd">

    <location netOffset="0.00,0.00" convBoundary="301.98,154.01,434.53,314.10" origBoundary="301.98,152.92,434.53,315.19" projParameter="!"/>

    <type id="highway.bridleway" priority="1" speed="2.78" allow="pedestrian" oneway="1" width="2.00"/>
    <type id="highway.bus_guideway" priority="1" speed="27.78" allow="bus" oneway="1"/>
    <type id="highway.cycleway" priority="1" speed="8.33" allow="bicycle" oneway="0" width="1.00"/>
    <type id="highway.footway" priority="1" speed="2.78" allow="pedestrian" oneway="1" width="2.00"/>
    <type id="highway.ford" priority="1" speed="2.78" allow="army" oneway="0"/>
    <type id="highway.living_street" priority="2" speed="2.78" disallow="tram rail_urban rail rail_electric rail_fast ship" oneway="0"/>
    <type id="highway.motorway" priority="14" speed="39.44" allow="private emergency authority army vip passenger hov taxi bus coach delivery truck trailer motorcycle evehicle custom1 custom2" oneway="1"/>
    <type id="highway.motorway_link" priority="9" speed="22.22" allow="private emergency authority army vip passenger hov taxi bus coach delivery truck trailer motorcycle evehicle custom1 custom2" oneway="1"/>
    <type id="highway.path" priority="1" speed="2.78" allow="pedestrian bicycle" oneway="0" width="2.00"/>
    <type id="highway.pedestrian" priority="1" speed="2.78" allow="pedestrian" oneway="1" width="2.00"/>
    <type id="highway.primary" priority="12" speed="27.78" disallow="pedestrian tram rail_urban rail rail_electric rail_fast ship" oneway="0"/>
    <type id="highway.primary_link" priority="7" speed="22.22" disallow="pedestrian tram rail_urban rail rail_electric rail_fast ship" oneway="0"/>
    <type id="highway.raceway" priority="15" speed="83.33" allow="vip" oneway="0"/>
    <type id="highway.residential" priority="3" speed="13.89" disallow="pedestrian tram rail_urban rail rail_electric rail_fast ship" oneway="0"/>
    <type id="highway.secondary" priority="11" speed="27.78" disallow="pedestrian tram rail_urban rail rail_electric rail_fast ship" oneway="0"/>
    <type id="highway.secondary_link" priority="6" speed="22.22" disallow="pedestrian tram rail_urban rail rail_electric rail_fast ship" oneway="0"/>
    <type id="highway.service" priority="1" speed="5.56" allow="pedestrian delivery bicycle" oneway="0"/>
    <type id="highway.stairs" priority="1" speed="1.39" allow="pedestrian" oneway="1" width="2.00"/>
    <type id="highway.step" priority="1" speed="1.39" allow="pedestrian" oneway="1" width="2.00"/>
    <type id="highway.steps" priority="1" speed="1.39" allow="pedestrian" oneway="1" width="2.00"/>
    <type id="highway.tertiary" priority="10" speed="22.22" disallow="pedestrian tram rail_urban rail rail_electric rail_fast ship" oneway="0"/>
    <type id="highway.tertiary_link" priority="5" speed="22.22" disallow="pedestrian tram rail_urban rail rail_electric rail_fast ship" oneway="0"/>
    <type id="highway.track" priority="1" speed="5.56" allow="pedestrian motorcycle moped bicycle" oneway="0"/>
    <type id="highway.trunk" priority="13" speed="27.78" disallow="pedestrian bicycle tram rail_urban rail rail_electric rail_fast ship" oneway="0"/>
    <type id="highway.trunk_link" priority="8" speed="22.22" disallow="pedestrian bicycle tram rail_urban rail rail_electric rail_fast ship" oneway="0"/>
    <type id="highway.unclassified" priority="4" speed="13.89" disallow="pedestrian tram rail_urban rail rail_electric rail_fast ship" oneway="0"/>
    <type id="highway.unsurfaced" priority="1" speed="8.33" disallow="tram rail_urban rail rail_electric rail_fast ship" oneway="0"/>
    <type id="railway.highspeed" priority="21" speed="69.44" allow="rail_fast" oneway="1"/>
    <type id="railway.light_rail" priority="19" speed="27.78" allow="rail_urban" oneway="1"/>
    <type id="railway.preserved" priority="16" speed="27.78" allow="rail" oneway="1"/>
    <type id="railway.rail" priority="20" speed="44.44" allow="rail" oneway="1"/>
    <type id="railway.subway" priority="18" speed="27.78" allow="rail_urban" oneway="1"/>
    <type id="railway.tram" priority="17" speed="13.89" allow="tram" oneway="1"/>

    <edge id=":10_0" function="internal">
        <lane id=":10_0_0" index="0" disallow="pedestrian tram rail_urban rail rail_electric rail_fast ship" speed="36.11" length="2.94" width="3.50" shape="341.85,263.60 340.05,265.93"/>
    </edge>
    <edge id=":11_0" function="internal">
        <lane id=":11_0_0" index="0" disallow="pedestrian tram rail_urban rail rail_electric rail_fast ship" speed="36.11" length="3.00" width="3.50" shape="390.95,256.72 392.83,259.06"/>
    </edge>
    <edge id=":19_0" function="internal">
        <lane id=":19_0_0" index="0" disallow="pedestrian tram rail_urban rail rail_electric rail_fast ship" speed="36.11" length="3.01" width="3.50" shape="387.38,263.45 385.49,261.11"/>
        <lane id=":19_0_1" index="1" disallow="pedestrian tram rail_urban rail rail_electric rail_fast ship" speed="36.11" length="3.00" width="3.50" shape="390.10,261.26 388.22,258.92"/>
    </edge>
    <edge id=":21_0" function="internal">
        <lane id=":21_0_0" index="0" disallow="pedestrian tram rail_urban rail rail_electric rail_fast ship" speed="36.11" length="3.00" width="3.49" shape="345.02,247.69 346.81,245.28"/>
        <lane id=":21_0_1" index="1" disallow="pedestrian tram rail_urban rail rail_electric rail_fast ship" speed="36.11" length="3.02" width="3.50" shape="347.83,249.79 349.63,247.36"/>
    </edge>
    <edge id=":24_0" function="internal">
        <lane id=":24_0_0" index="0" disallow="pedestrian tram rail_urban rail rail_electric rail_fast ship" speed="7.37" length="14.17" width="3.35" shape="369.45,241.10 366.26,237.33 364.70,235.78 363.82,235.12 363.31,234.92 359.99,239.16"/>
    </edge>
    <edge id=":24_1" function="internal">
        <lane id=":24_1_0" index="0" disallow="pedestrian tram rail_urban rail rail_electric rail_fast ship" speed="36.11" length="38.82" width="3.50" shape="369.45,241.10 357.31,225.97 345.15,210.83"/>
    </edge>
    <edge id=":24_2" function="internal">
        <lane id=":24_2_0" index="0" disallow="pedestrian tram rail_urban rail rail_electric rail_fast ship" speed="14.20" length="35.59" width="3.50" shape="372.18,238.91 370.79,236.94 369.64,234.77 368.77,232.47 368.22,230.08 367.97,227.65 368.00,225.23 368.28,222.84 369.07,219.39 370.22,216.07 371.63,212.90 373.25,209.84 375.63,205.95"/>
    </edge>
    <edge id=":24_3" function="internal">
        <lane id=":24_3_0" index="0" disallow="pedestrian tram rail_urban rail rail_electric rail_fast ship" speed="13.29" length="31.20" width="3.50" shape="378.55,207.88 376.38,211.42 374.90,214.17 373.61,217.02 372.56,219.96 371.82,222.99 371.54,225.05 371.47,227.13 371.64,229.20 372.07,231.24 372.78,233.20 373.74,235.04 374.93,236.74"/>
    </edge>
    <edge id=":24_4" function="internal">
        <lane id=":24_4_0" index="0" disallow="pedestrian tram rail_urban rail rail_electric rail_fast ship" speed="36.11" length="36.40" width="3.35" shape="378.55,207.88 375.11,213.49 366.57,229.04 363.38,234.23 359.99,239.16"/>
    </edge>
    <edge id=":24_5" function="internal">
        <lane id=":24_5_0" index="0" disallow="pedestrian tram rail_urban rail rail_electric rail_fast ship" speed="12.19" length="42.10" width="3.50" shape="378.55,207.88 375.96,211.51 373.47,214.41 371.17,216.62 369.14,218.17 366.94,219.45 365.17,220.18 363.32,220.67 361.41,220.87 359.50,220.77 357.63,220.39 355.82,219.76 353.55,218.59 351.45,217.15 349.03,215.08 346.39,212.30 345.15,210.83"/>
    </edge>
    <edge id=":24_6" function="internal">
        <lane id=":24_6_0" index="0" disallow="pedestrian tram rail_urban rail rail_electric rail_fast ship" speed="10.59" length="31.43" width="3.50" shape="350.60,206.44 353.16,209.33 355.53,211.48 357.63,212.96 359.34,213.84 361.16,214.46 363.07,214.74 364.99,214.62 366.84,214.12 368.57,213.28 370.16,212.20 372.07,210.48 374.15,208.04 375.63,205.95"/>
    </edge>
    <edge id=":24_7" function="internal">
        <lane id=":24_7_0" index="0" disallow="pedestrian tram rail_urban rail rail_electric rail_fast ship" speed="36.11" length="38.86" width="3.50" shape="350.60,206.44 362.77,221.59 374.93,236.74"/>
    </edge>
    <edge id=":24_8" function="internal">
        <lane id=":24_8_0" index="0" disallow="pedestrian tram rail_urban rail rail_electric rail_fast ship" speed="13.93" length="36.10" width="3.35" shape="347.88,208.64 353.93,216.43 357.83,221.94 360.56,226.35 362.19,229.60 362.90,231.55 363.20,233.07 363.18,234.11 363.05,234.61 359.99,239.16"/>
    </edge>
    <edge id=":24_9" function="internal">
        <lane id=":24_9_0" index="0" disallow="pedestrian tram rail_urban rail rail_electric rail_fast ship" speed="12.64" length="29.58" width="3.50" shape="353.86,235.69 357.22,230.69 357.24,229.65 356.84,228.13 355.75,225.75 353.60,222.16 349.98,217.03 345.15,210.83"/>
    </edge>
    <edge id=":24_10" function="internal">
        <lane id=":24_10_0" index="0" disallow="pedestrian tram rail_urban rail rail_electric rail_fast ship" speed="36.11" length="36.86" width="3.50" shape="353.86,235.69 361.42,224.99 371.88,211.34 375.63,205.95"/>
    </edge>
    <edge id=":24_11" function="internal">
        <lane id=":24_11_0" index="0" disallow="pedestrian tram rail_urban rail rail_electric rail_fast ship" speed="9.43" length="24.10" width="3.50" shape="356.92,237.42 361.09,231.64 362.03,230.81 363.12,230.17 364.32,229.80 365.57,229.76 366.81,230.00 368.54,230.75 370.11,231.80 372.00,233.46 374.13,235.77 374.93,236.74"/>
    </edge>
    <edge id=":25_0" function="internal">
        <lane id=":25_0_0" index="0" disallow="pedestrian tram rail_urban rail rail_electric rail_fast ship" speed="36.11" length="3.14" width="3.50" shape="334.43,261.89 336.29,259.36"/>
    </edge>
    <edge id=":25_1" function="internal">
        <lane id=":25_1_0" index="0" disallow="pedestrian tram rail_urban rail rail_electric rail_fast ship" speed="36.11" length="3.25" width="3.50" shape="337.09,264.02 339.09,261.46"/>
    </edge>
    <edge id=":9_0" function="internal">
        <lane id=":9_0_0" index="0" disallow="pedestrian tram rail_urban rail rail_electric rail_fast ship" speed="36.11" length="2.99" width="3.50" shape="352.42,249.47 350.64,251.87"/>
    </edge>

    <edge id="82902" from="9" to="10" priority="3" type="highway.residential" spreadType="center" length="14.66">
        <lane id="82902_0" index="0" disallow="pedestrian tram rail_urban rail rail_electric rail_fast ship" speed="36.11" length="14.66" width="3.50" customShape="1" shape="350.64,251.87 346.26,257.72 341.85,263.60"/>
    </edge>
    <edge id="82904" from="25" to="21" priority="3" type="highway.residential" spreadType="center" length="14.57">
        <lane id="82904_0" index="0" disallow="pedestrian tram rail_urban rail rail_electric rail_fast ship" speed="36.11" length="14.57" width="3.50" customShape="1" shape="336.29,259.36 340.66,253.52 345.02,247.69"/>
        <lane id="82904_1" index="1" disallow="pedestrian tram rail_urban rail rail_electric rail_fast ship" speed="36.11" length="14.58" width="3.50" customShape="1" shape="339.09,261.46 343.46,255.62 347.83,249.79"/>
    </edge>
    <edge id="82908" from="21" to="24" priority="3" type="highway.residential" spreadType="center" length="11.90" shape="347.33,247.54 361.70,219.69">
        <lane id="82908_0" index="0" disallow="pedestrian tram rail_urban rail rail_electric rail_fast ship" speed="36.11" length="11.90" width="3.49" customShape="1" shape="346.81,245.28 353.86,235.69"/>
        <lane id="82908_1" index="1" disallow="pedestrian tram rail_urban rail rail_electric rail_fast ship" speed="36.11" length="12.33" width="3.50" customShape="1" shape="349.63,247.36 356.92,237.42"/>
    </edge>
    <edge id="82962" from="24" to="3" priority="3" type="highway.residential" spreadType="center" length="68.78" shape="363.35,222.85 301.98,157.29">
        <lane id="82962_0" index="0" disallow="pedestrian tram rail_urban rail rail_electric rail_fast ship" speed="36.11" length="68.78" width="3.50" customShape="1" shape="345.15,210.83 323.58,184.07 301.98,157.29"/>
    </edge>
    <edge id="82964" from="14" to="24" priority="3" type="highway.residential" spreadType="center" length="68.75" shape="306.08,154.01 367.25,219.34">
        <lane id="82964_0" index="0" disallow="pedestrian tram rail_urban rail rail_electric rail_fast ship" speed="36.11" length="68.75" width="3.50" customShape="1" shape="307.44,152.92 329.03,179.68 350.60,206.44"/>
        <lane id="82964_1" index="1" disallow="pedestrian tram rail_urban rail rail_electric rail_fast ship" speed="36.11" length="68.78" width="3.50" customShape="1" shape="304.72,155.11 326.30,181.88 347.89,208.65"/>
    </edge>
    <edge id="83009" from="24" to="6" priority="3" type="highway.residential" spreadType="center" length="32.97" shape="363.18,220.61 394.85,179.17">
        <lane id="83009_0" index="0" disallow="pedestrian tram rail_urban rail rail_electric rail_fast ship" speed="36.11" length="32.97" width="3.50" customShape="1" shape="375.63,205.95 380.15,199.20 386.88,189.67 394.85,179.17"/>
    </edge>
    <edge id="83010" from="13" to="24" priority="3" type="highway.residential" spreadType="center" length="32.75" shape="397.63,181.30 365.96,222.74">
        <lane id="83010_0" index="0" disallow="pedestrian tram rail_urban rail rail_electric rail_fast ship" speed="36.11" length="32.75" width="3.50" customShape="1" shape="397.63,181.30 389.71,191.74 383.04,201.19 378.54,207.90"/>
    </edge>
    <edge id="83134" from="11" to="12" priority="3" type="highway.residential" spreadType="center" length="66.47">
        <lane id="83134_0" index="0" disallow="pedestrian tram rail_urban rail rail_electric rail_fast ship" speed="36.11" length="66.47" width="3.50" customShape="1" shape="392.83,259.06 413.20,284.35 434.53,310.82"/>
    </edge>
    <edge id="83136" from="20" to="19" priority="3" type="highway.residential" spreadType="center" length="66.44">
        <lane id="83136_0" index="0" disallow="pedestrian tram rail_urban rail rail_electric rail_fast ship" speed="36.11" length="66.44" width="3.50" customShape="1" shape="429.06,315.19 407.75,288.74 387.38,263.45"/>
        <lane id="83136_1" index="1" disallow="pedestrian tram rail_urban rail rail_electric rail_fast ship" speed="36.11" length="66.45" width="3.50" customShape="1" shape="431.79,313.00 410.47,286.54 390.10,261.26"/>
    </edge>
    <edge id="83140" from="19" to="24" priority="3" type="highway.residential" spreadType="center" length="25.66" shape="387.80,261.19 361.59,223.40">
        <lane id="83140_0" index="0" disallow="pedestrian tram rail_urban rail rail_electric rail_fast ship" speed="36.11" length="25.66" width="3.50" customShape="1" shape="385.49,261.11 378.03,251.80 369.62,241.31 369.54,241.21 369.44,241.09"/>
        <lane id="83140_1" index="1" disallow="pedestrian tram rail_urban rail rail_electric rail_fast ship" speed="36.11" length="25.66" width="3.50" customShape="1" shape="388.22,258.92 380.76,249.61 372.35,239.13 372.27,239.03 372.17,238.90"/>
    </edge>
    <edge id="84462" from="24" to="11" priority="3" type="highway.residential" spreadType="center" length="25.61" shape="366.00,220.58 391.89,257.89">
        <lane id="84462_0" index="0" disallow="pedestrian tram rail_urban rail rail_electric rail_fast ship" speed="36.11" length="25.61" width="3.50" customShape="1" shape="374.93,236.74 375.01,236.84 375.09,236.94 383.49,247.42 390.95,256.72"/>
    </edge>
    <edge id="84486" from="26" to="25" priority="3" type="highway.residential" spreadType="center" length="27.39">
        <lane id="84486_0" index="0" disallow="pedestrian tram rail_urban rail rail_electric rail_fast ship" speed="36.11" length="27.39" width="3.50" customShape="1" shape="319.29,284.83 323.22,279.97 334.28,267.53 337.09,264.02"/>
    </edge>
    <edge id="84487" from="26" to="25" priority="3" type="highway.residential" spreadType="center" length="27.49">
        <lane id="84487_0" index="0" disallow="pedestrian tram rail_urban rail rail_electric rail_fast ship" speed="36.11" length="27.49" width="3.50" customShape="1" shape="319.29,284.83 322.84,279.82 328.57,270.75 333.00,263.88 334.43,261.89"/>
    </edge>
    <edge id="84948" from="10" to="15" priority="3" type="highway.residential" spreadType="center" length="27.67">
        <lane id="84948_0" index="0" disallow="pedestrian tram rail_urban rail rail_electric rail_fast ship" speed="36.11" length="27.67" width="3.50" customShape="1" shape="340.05,265.93 337.02,269.71 325.95,282.16 322.07,286.95"/>
    </edge>
    <edge id="85013" from="24" to="9" priority="3" type="highway.residential" spreadType="center" length="12.79" shape="366.13,222.32 351.54,250.67">
        <lane id="85013_0" index="0" disallow="pedestrian tram rail_urban rail rail_electric rail_fast ship" speed="36.11" length="12.79" width="3.35" customShape="1" shape="359.99,239.16 352.42,249.47"/>
    </edge>

    <junction id="10" type="priority" x="340.97" y="264.78" incLanes="82902_0" intLanes=":10_0_0" shape="343.25,264.65 340.45,262.55 338.68,264.84 341.41,267.03" rightOfWay="edgePriority">
        <request index="0" response="0" foes="0" cont="0"/>
    </junction>
    <junction id="11" type="priority" x="391.89" y="257.89" incLanes="84462_0" intLanes=":11_0_0" shape="391.47,260.16 394.19,257.96 392.31,255.63 389.59,257.82" rightOfWay="edgePriority">
        <request index="0" response="0" foes="0" cont="0"/>
    </junction>
    <junction id="12" type="dead_end" x="434.53" y="310.82" incLanes="83134_0" intLanes="" shape="435.89,309.72 433.16,311.92" rightOfWay="edgePriority"/>
    <junction id="13" type="dead_end" x="397.63" y="181.30" incLanes="" intLanes="" shape="396.24,180.25 399.02,182.36" rightOfWay="edgePriority"/>
    <junction id="14" type="dead_end" x="306.08" y="154.01" incLanes="" intLanes="" shape="303.36,156.21 308.81,151.82" rightOfWay="edgePriority"/>
    <junction id="15" type="dead_end" x="322.07" y="286.95" incLanes="84948_0" intLanes="" shape="323.43,288.05 320.71,285.85" rightOfWay="edgePriority"/>
    <junction id="19" type="priority" x="387.80" y="261.19" incLanes="83136_0 83136_1" intLanes=":19_0_0 :19_0_1" shape="386.01,264.55 391.46,260.16 389.59,257.82 384.13,262.20" rightOfWay="edgePriority">
        <request index="0" response="00" foes="00" cont="0"/>
        <request index="1" response="00" foes="00" cont="0"/>
    </junction>
    <junction id="20" type="dead_end" x="430.42" y="314.10" incLanes="" intLanes="" shape="433.15,311.90 427.70,316.29" rightOfWay="edgePriority"/>
    <junction id="21" type="priority" x="347.33" y="247.54" incLanes="82904_0 82904_1" intLanes=":21_0_0 :21_0_1" shape="351.03,248.40 345.41,244.24 343.62,246.65 349.23,250.84" rightOfWay="edgePriority">
        <request index="0" response="00" foes="00" cont="0"/>
        <request index="1" response="00" foes="00" cont="0"/>
    </junction>
    <junction id="24" type="priority" x="364.60" y="221.63" incLanes="83140_0 83140_1 83010_0 82964_0 82964_1 82908_0 82908_1" intLanes=":24_0_0 :24_1_0 :24_2_0 :24_3_0 :24_4_0 :24_5_0 :24_6_0 :24_7_0 :24_8_0 :24_9_0 :24_10_0 :24_11_0" shape="368.07,242.17 376.30,235.65 374.26,232.20 373.28,228.35 373.36,224.09 374.51,219.43 376.72,214.35 380.00,208.87 374.18,204.98 370.73,209.23 367.17,211.80 363.52,212.70 359.77,211.92 355.92,209.47 351.97,205.34 343.79,211.93 347.71,217.14 350.64,221.79 352.56,225.88 353.48,229.42 353.40,232.40 352.33,234.82 361.45,239.99 363.20,238.77 364.25,238.89 365.41,239.50 366.68,240.59">
        <request index="0" response="000000000000" foes="000100010000" cont="0"/>
        <request index="1" response="000000000000" foes="111100110000" cont="0"/>
        <request index="2" response="000011000000" foes="110011110000" cont="0"/>
        <request index="3" response="000010000000" foes="100010000000" cont="0"/>
        <request index="4" response="000110000111" foes="100110000111" cont="0"/>
        <request index="5" response="011110000110" foes="011110000110" cont="0"/>
        <request index="6" response="000000000000" foes="010000000100" cont="0"/>
        <request index="7" response="000000000000" foes="110000111100" cont="0"/>
        <request index="8" response="000000000011" foes="110000110011" cont="0"/>
        <request index="9" response="000000000010" foes="000000100010" cont="0"/>
        <request index="10" response="000111000110" foes="000111100110" cont="0"/>
        <request index="11" response="000110011110" foes="000110011110" cont="0"/>
    </junction>
    <junction id="25" type="priority" x="335.39" y="260.56" incLanes="84487_0 84486_0" intLanes=":25_0_0 :25_1_0" shape="340.49,262.51 334.89,258.31 333.06,260.79 338.46,265.11">
        <request index="0" response="00" foes="00" cont="0"/>
        <request index="1" response="00" foes="00" cont="0"/>
    </junction>
    <junction id="26" type="dead_end" x="319.29" y="284.83" incLanes="" intLanes="" shape="320.71,285.84 317.86,283.81 320.65,285.93 317.93,283.73"/>
    <junction id="3" type="dead_end" x="301.98" y="157.29" incLanes="82962_0" intLanes="" shape="300.62,158.38 303.34,156.19" rightOfWay="edgePriority"/>
    <junction id="6" type="dead_end" x="394.85" y="179.17" incLanes="83009_0" intLanes="" shape="393.46,178.11 396.25,180.23" rightOfWay="edgePriority"/>
    <junction id="9" type="priority" x="351.54" y="250.67" incLanes="85013_0" intLanes=":9_0_0" shape="353.77,250.46 351.07,248.48 349.24,250.82 352.04,252.92" rightOfWay="edgePriority">
        <request index="0" response="0" foes="0" cont="0"/>
    </junction>

    <connection from="82902" to="84948" fromLane="0" toLane="0" contPos="-4.00" via=":10_0_0" dir="s" state="M"/>
    <connection from="82904" to="82908" fromLane="0" toLane="0" contPos="-4.00" via=":21_0_0" dir="s" state="M"/>
    <connection from="82904" to="82908" fromLane="1" toLane="1" contPos="-4.00" via=":21_0_1" dir="s" state="M"/>
    <connection from="82908" to="82962" fromLane="0" toLane="0" contPos="-4.00" shape="357.01,231.17 357.22,230.69 357.24,229.65 356.84,228.13 355.75,225.75 353.60,222.16 349.98,217.03 345.15,210.83" via=":24_9_0" dir="r" state="m"/>
    <connection from="82908" to="83009" fromLane="0" toLane="0" contPos="-4.00" shape="357.01,231.17 361.42,224.99 371.88,211.34 375.63,205.95" via=":24_10_0" dir="s" state="m"/>
    <connection from="82908" to="84462" fromLane="1" toLane="0" contPos="-4.00" shape="360.00,233.05 361.09,231.64 362.03,230.81 363.12,230.17 364.32,229.80 365.57,229.76 366.81,230.00 368.54,230.75 370.11,231.80 372.00,233.46 374.13,235.77 374.93,236.74" via=":24_11_0" dir="l" state="m"/>
    <connection from="82964" to="83009" fromLane="0" toLane="0" contPos="-4.00" shape="350.60,206.44 353.16,209.33 355.53,211.48 357.63,212.96 359.34,213.84 361.16,214.46 363.07,214.74 364.99,214.62 366.84,214.12 368.57,213.28 370.16,212.20 372.07,210.48 374.15,208.04 375.63,205.95" via=":24_6_0" dir="r" state="M"/>
    <connection from="82964" to="84462" fromLane="0" toLane="0" contPos="-4.00" shape="350.60,206.44 362.77,221.59 374.93,236.74" via=":24_7_0" dir="s" state="M"/>
    <connection from="82964" to="85013" fromLane="1" toLane="0" contPos="-4.00" shape="347.89,208.65 353.93,216.43 357.83,221.94 360.56,226.35 362.19,229.60 362.90,231.55 363.20,233.07 363.18,234.11 363.05,234.61 362.78,235.10" via=":24_8_0" dir="l" state="m"/>
    <connection from="83010" to="84462" fromLane="0" toLane="0" contPos="-4.00" shape="378.55,207.88 376.38,211.42 374.90,214.17 373.61,217.02 372.56,219.96 371.82,222.99 371.54,225.05 371.47,227.13 371.64,229.20 372.07,231.24 372.78,233.20 373.74,235.04 374.93,236.74" via=":24_3_0" dir="r" state="m"/>
    <connection from="83010" to="85013" fromLane="0" toLane="0" contPos="-4.00" shape="378.55,207.88 375.11,213.49 366.57,229.04 363.38,234.23 362.78,235.10" via=":24_4_0" dir="s" state="m"/>
    <connection from="83010" to="82962" fromLane="0" toLane="0" contPos="-4.00" shape="378.55,207.88 375.96,211.51 373.47,214.41 371.17,216.62 369.14,218.17 366.94,219.45 365.17,220.18 363.32,220.67 361.41,220.87 359.50,220.77 357.63,220.39 355.82,219.76 353.55,218.59 351.45,217.15 349.03,215.08 346.39,212.30 345.15,210.83" via=":24_5_0" dir="l" state="m"/>
    <connection from="83136" to="83140" fromLane="0" toLane="0" contPos="-4.00" via=":19_0_0" dir="s" state="M"/>
    <connection from="83136" to="83140" fromLane="1" toLane="1" contPos="-4.00" via=":19_0_1" dir="s" state="M"/>
    <connection from="83140" to="85013" fromLane="0" toLane="0" contPos="-4.00" shape="369.45,241.10 366.26,237.33 364.70,235.78 363.82,235.12 363.31,234.92 362.78,235.10" via=":24_0_0" dir="r" state="M"/>
    <connection from="83140" to="82962" fromLane="0" toLane="0" contPos="-4.00" shape="369.45,241.10 357.31,225.97 345.15,210.83" via=":24_1_0" dir="s" state="M"/>
    <connection from="83140" to="83009" fromLane="1" toLane="0" contPos="-4.00" shape="372.17,238.90 370.79,236.94 369.64,234.77 368.77,232.47 368.22,230.08 367.97,227.65 368.00,225.23 368.28,222.84 369.07,219.39 370.22,216.07 371.63,212.90 373.25,209.84 375.63,205.95" via=":24_2_0" dir="l" state="m"/>
    <connection from="84462" to="83134" fromLane="0" toLane="0" contPos="-4.00" via=":11_0_0" dir="s" state="M"/>
    <connection from="84486" to="82904" fromLane="0" toLane="1" contPos="-4.00" via=":25_1_0" dir="s" state="M"/>
    <connection from="84487" to="82904" fromLane="0" toLane="0" contPos="-4.00" via=":25_0_0" dir="s" state="M"/>
    <connection from="85013" to="82902" fromLane="0" toLane="0" contPos="-4.00" via=":9_0_0" dir="s" state="M"/>

    <connection from=":10_0" to="84948" fromLane="0" toLane="0" dir="s" state="M"/>
    <connection from=":11_0" to="83134" fromLane="0" toLane="0" dir="s" state="M"/>
    <connection from=":19_0" to="83140" fromLane="0" toLane="0" dir="s" state="M"/>
    <connection from=":19_0" to="83140" fromLane="1" toLane="1" dir="s" state="M"/>
    <connection from=":21_0" to="82908" fromLane="0" toLane="0" dir="s" state="M"/>
    <connection from=":21_0" to="82908" fromLane="1" toLane="1" dir="s" state="M"/>
    <connection from=":24_0" to="85013" fromLane="0" toLane="0" dir="r" state="M"/>
    <connection from=":24_1" to="82962" fromLane="0" toLane="0" dir="s" state="M"/>
    <connection from=":24_2" to="83009" fromLane="0" toLane="0" dir="l" state="M"/>
    <connection from=":24_3" to="84462" fromLane="0" toLane="0" dir="r" state="M"/>
    <connection from=":24_4" to="85013" fromLane="0" toLane="0" dir="s" state="M"/>
    <connection from=":24_5" to="82962" fromLane="0" toLane="0" dir="l" state="M"/>
    <connection from=":24_6" to="83009" fromLane="0" toLane="0" dir="r" state="M"/>
    <connection from=":24_7" to="84462" fromLane="0" toLane="0" dir="s" state="M"/>
    <connection from=":24_8" to="85013" fromLane="0" toLane="0" dir="l" state="M"/>
    <connection from=":24_9" to="82962" fromLane="0" toLane="0" dir="r" state="M"/>
    <connection from=":24_10" to="83009" fromLane="0" toLane="0" dir="s" state="M"/>
    <connection from=":24_11" to="84462" fromLane="0" toLane="0" dir="l" state="M"/>
    <connection from=":25_0" to="82904" fromLane="0" toLane="0" dir="s" state="M"/>
    <connection from=":25_1" to="82904" fromLane="0" toLane="1" dir="s" state="M"/>
    <connection from=":9_0" to="82902" fromLane="0" toLane="0" dir="s" state="M"/>

</net>