<!-- generated on Tue Feb  9 22:04:52 2021 by Eclipse SUMO netconvert Version 1.8.0
<configuration xmlns:xsi="http://www.w3.org/2001/XMLSchema-instance" xsi:noNamespaceSchemaLocation="http://sumo.dlr.de/xsd/netconvertConfiguration.xsd">

    <input>
        <node-files value="./converted_scenarios/scenario-factory/DEU_Guetersloh-54_1_I-1-1/DEU_Guetersloh-54_1_I-1-1.nod.xml"/>
        <edge-files value="./converted_scenarios/scenario-factory/DEU_Guetersloh-54_1_I-1-1/DEU_Guetersloh-54_1_I-1-1.edg.xml"/>
        <connection-files value="./converted_scenarios/scenario-factory/DEU_Guetersloh-54_1_I-1-1/DEU_Guetersloh-54_1_I-1-1.con.xml"/>
        <tllogic-files value="./converted_scenarios/scenario-factory/DEU_Guetersloh-54_1_I-1-1/DEU_Guetersloh-54_1_I-1-1.tll.xml"/>
        <type-files value="/home/zen/commonroad-interactive-benchmarks/install/commonroad-map-tool/crmapconverter/sumo_map/templates/DEU.typ.xml"/>
    </input>

    <output>
        <output-file value="./converted_scenarios/scenario-factory/DEU_Guetersloh-54_1_I-1-1/DEU_Guetersloh-54_1_I-1-1.net.xml"/>
    </output>

    <processing>
        <geometry.remove.keep-edges.explicit value="true"/>
        <geometry.avoid-overlap value="true"/>
        <offset.disable-normalization value="true"/>
    </processing>

    <junctions>
        <no-turnarounds value="true"/>
        <junctions.internal-link-detail value="20"/>
    </junctions>

    <report>
        <aggregate-warnings value="5"/>
    </report>

    <random_number>
        <seed value="1234"/>
    </random_number>

</configuration>
--><net xmlns:xsi="http://www.w3.org/2001/XMLSchema-instance" version="1.6" junctionCornerDetail="5" junctionLinkDetail="20" limitTurnSpeed="5.50" xsi:noNamespaceSchemaLocation="http://sumo.dlr.de/xsd/net_file.xsd">

    <location netOffset="0.00,0.00" convBoundary="-730.22,-89.49,-461.97,123.54" origBoundary="-730.22,-89.49,-461.97,123.54" projParameter="!"/>

    <type id="highway.bridleway" priority="1" speed="2.78" allow="pedestrian" oneway="1" width="2.00"/>
    <type id="highway.bus_guideway" priority="1" speed="27.78" allow="bus" oneway="1"/>
    <type id="highway.cycleway" priority="1" speed="8.33" allow="bicycle" oneway="0" width="1.00"/>
    <type id="highway.footway" priority="1" speed="2.78" allow="pedestrian" oneway="1" width="2.00"/>
    <type id="highway.ford" priority="1" speed="2.78" allow="army" oneway="0"/>
    <type id="highway.living_street" priority="2" speed="2.78" disallow="tram rail_urban rail rail_electric rail_fast ship" oneway="0"/>
    <type id="highway.motorway" priority="14" speed="39.44" allow="private emergency authority army vip passenger hov taxi bus coach delivery truck trailer motorcycle evehicle custom1 custom2" oneway="1"/>
    <type id="highway.motorway_link" priority="9" speed="22.22" allow="private emergency authority army vip passenger hov taxi bus coach delivery truck trailer motorcycle evehicle custom1 custom2" oneway="1"/>
    <type id="highway.path" priority="1" speed="2.78" allow="pedestrian bicycle" oneway="0" width="2.00"/>
    <type id="highway.pedestrian" priority="1" speed="2.78" allow="pedestrian" oneway="1" width="2.00"/>
    <type id="highway.primary" priority="12" speed="27.78" disallow="pedestrian tram rail_urban rail rail_electric rail_fast ship" oneway="0"/>
    <type id="highway.primary_link" priority="7" speed="22.22" disallow="pedestrian tram rail_urban rail rail_electric rail_fast ship" oneway="0"/>
    <type id="highway.raceway" priority="15" speed="83.33" allow="vip" oneway="0"/>
    <type id="highway.residential" priority="3" speed="13.89" disallow="pedestrian tram rail_urban rail rail_electric rail_fast ship" oneway="0"/>
    <type id="highway.secondary" priority="11" speed="27.78" disallow="pedestrian tram rail_urban rail rail_electric rail_fast ship" oneway="0"/>
    <type id="highway.secondary_link" priority="6" speed="22.22" disallow="pedestrian tram rail_urban rail rail_electric rail_fast ship" oneway="0"/>
    <type id="highway.service" priority="1" speed="5.56" allow="pedestrian delivery bicycle" oneway="0"/>
    <type id="highway.stairs" priority="1" speed="1.39" allow="pedestrian" oneway="1" width="2.00"/>
    <type id="highway.step" priority="1" speed="1.39" allow="pedestrian" oneway="1" width="2.00"/>
    <type id="highway.steps" priority="1" speed="1.39" allow="pedestrian" oneway="1" width="2.00"/>
    <type id="highway.tertiary" priority="10" speed="22.22" disallow="pedestrian tram rail_urban rail rail_electric rail_fast ship" oneway="0"/>
    <type id="highway.tertiary_link" priority="5" speed="22.22" disallow="pedestrian tram rail_urban rail rail_electric rail_fast ship" oneway="0"/>
    <type id="highway.track" priority="1" speed="5.56" allow="pedestrian motorcycle moped bicycle" oneway="0"/>
    <type id="highway.trunk" priority="13" speed="27.78" disallow="pedestrian bicycle tram rail_urban rail rail_electric rail_fast ship" oneway="0"/>
    <type id="highway.trunk_link" priority="8" speed="22.22" disallow="pedestrian bicycle tram rail_urban rail rail_electric rail_fast ship" oneway="0"/>
    <type id="highway.unclassified" priority="4" speed="13.89" disallow="pedestrian tram rail_urban rail rail_electric rail_fast ship" oneway="0"/>
    <type id="highway.unsurfaced" priority="1" speed="8.33" disallow="tram rail_urban rail rail_electric rail_fast ship" oneway="0"/>
    <type id="railway.highspeed" priority="21" speed="69.44" allow="rail_fast" oneway="1"/>
    <type id="railway.light_rail" priority="19" speed="27.78" allow="rail_urban" oneway="1"/>
    <type id="railway.preserved" priority="16" speed="27.78" allow="rail" oneway="1"/>
    <type id="railway.rail" priority="20" speed="44.44" allow="rail" oneway="1"/>
    <type id="railway.subway" priority="18" speed="27.78" allow="rail_urban" oneway="1"/>
    <type id="railway.tram" priority="17" speed="13.89" allow="tram" oneway="1"/>

    <edge id=":28_0" function="internal">
        <lane id=":28_0_0" index="0" disallow="pedestrian tram rail_urban rail rail_electric rail_fast ship" speed="36.11" length="2.99" width="3.50" shape="-672.57,83.95 -670.16,82.18"/>
    </edge>
    <edge id=":30_0" function="internal">
        <lane id=":30_0_0" index="0" disallow="pedestrian tram rail_urban rail rail_electric rail_fast ship" speed="36.11" length="3.00" width="3.50" shape="-621.05,50.11 -623.49,51.85"/>
    </edge>
    <edge id=":31_0" function="internal">
        <lane id=":31_0_0" index="0" disallow="pedestrian tram rail_urban rail rail_electric rail_fast ship" speed="11.06" length="26.80" width="3.50" shape="-521.13,3.72 -525.63,4.44 -529.50,5.42 -532.18,6.40 -534.72,7.69 -536.58,9.01 -537.81,10.20 -538.85,11.55 -539.65,13.06 -540.18,14.69 -540.43,16.38 -540.45,18.10"/>
    </edge>
    <edge id=":31_1" function="internal">
        <lane id=":31_1_0" index="0" disallow="pedestrian tram rail_urban rail rail_electric rail_fast ship" speed="36.11" length="38.83" width="3.50" shape="-521.13,3.72 -535.13,5.59 -545.09,7.23 -552.01,8.68 -556.39,9.87 -559.21,10.90"/>
    </edge>
    <edge id=":31_2" function="internal">
        <lane id=":31_2_0" index="0" disallow="pedestrian tram rail_urban rail rail_electric rail_fast ship" speed="12.53" length="40.06" width="3.50" shape="-521.56,0.25 -526.32,0.64 -530.50,0.61 -533.48,0.31 -536.41,-0.30 -538.68,-1.04 -540.84,-2.07 -542.83,-3.40 -544.17,-4.60 -545.34,-5.96 -546.62,-7.98 -547.59,-10.16 -548.26,-12.46 -548.74,-15.41 -548.91,-18.40 -548.90,-19.59"/>
    </edge>
    <edge id=":31_3" function="internal">
        <lane id=":31_3_0" index="0" disallow="pedestrian tram rail_urban rail rail_electric rail_fast ship" speed="36.11" length="37.57" width="3.50" shape="-541.90,-19.44 -541.82,-11.31 -541.08,6.44 -540.45,18.10"/>
    </edge>
    <edge id=":31_4" function="internal">
        <lane id=":31_4_0" index="0" disallow="pedestrian tram rail_urban rail rail_electric rail_fast ship" speed="15.19" length="35.25" width="3.50" shape="-545.40,-19.50 -545.43,-18.36 -545.73,-13.84 -546.32,-9.32 -547.01,-5.92 -547.98,-2.58 -549.29,0.68 -550.40,2.80 -551.71,4.80 -553.26,6.67 -555.05,8.34 -557.05,9.76 -559.21,10.90"/>
    </edge>
    <edge id=":31_5" function="internal">
        <lane id=":31_5_0" index="0" disallow="pedestrian tram rail_urban rail rail_electric rail_fast ship" speed="14.23" length="31.33" width="3.50" shape="-560.65,7.72 -558.79,6.73 -557.10,5.50 -555.60,4.05 -554.30,2.42 -553.19,0.65 -552.26,-1.22 -551.14,-4.14 -550.31,-7.16 -549.71,-10.24 -549.19,-14.38 -548.93,-18.55 -548.90,-19.59"/>
    </edge>
    <edge id=":31_6" function="internal">
        <lane id=":31_6_0" index="0" disallow="pedestrian tram rail_urban rail rail_electric rail_fast ship" speed="36.11" length="40.35" width="3.50" shape="-560.65,7.71 -553.55,4.80 -546.33,2.24 -539.48,0.20 -532.54,-1.47 -526.01,-2.67 -521.96,-3.23"/>
    </edge>
    <edge id=":31_7" function="internal">
        <lane id=":31_7_0" index="0" disallow="pedestrian tram rail_urban rail rail_electric rail_fast ship" speed="10.04" length="28.99" width="3.50" shape="-560.65,7.71 -556.95,6.29 -553.76,5.45 -551.15,5.13 -549.18,5.20 -547.25,5.61 -546.03,6.11 -544.91,6.81 -543.93,7.68 -542.73,9.25 -541.84,11.01 -541.22,12.89 -540.70,15.47 -540.45,18.10"/>
    </edge>
    <edge id=":31_8" function="internal">
        <lane id=":31_8_0" index="0" disallow="pedestrian tram rail_urban rail rail_electric rail_fast ship" speed="36.11" length="38.14" width="3.50" shape="-547.43,18.52 -548.60,-4.86 -548.92,-16.55 -548.90,-19.59"/>
    </edge>
    <edge id=":31_9" function="internal">
        <lane id=":31_9_0" index="0" disallow="pedestrian tram rail_urban rail rail_electric rail_fast ship" speed="12.56" length="34.71" width="3.50" shape="-543.94,18.31 -543.96,15.45 -543.65,12.62 -543.12,10.41 -542.32,8.28 -541.22,6.29 -539.85,4.47 -538.24,2.87 -536.44,1.48 -533.98,0.06 -531.37,-1.07 -528.12,-2.09 -524.22,-2.91 -521.96,-3.23"/>
    </edge>
    <edge id=":32_0" function="internal">
        <lane id=":32_0_0" index="0" disallow="pedestrian tram rail_urban rail rail_electric rail_fast ship" speed="15.81" length="42.03" width="3.50" shape="-568.78,21.98 -569.49,22.01 -572.63,22.45 -576.24,23.33 -580.25,24.68 -585.13,26.75 -590.33,29.39 -596.28,32.86 -602.94,37.20 -606.41,39.63"/>
    </edge>
    <edge id=":32_1" function="internal">
        <lane id=":32_1_0" index="0" disallow="pedestrian tram rail_urban rail rail_electric rail_fast ship" speed="36.11" length="55.07" width="3.50" shape="-559.46,11.01 -565.00,13.61 -572.20,17.44 -580.12,22.07 -589.60,28.08 -600.58,35.51 -606.41,39.63"/>
    </edge>
    <edge id=":32_2" function="internal">
        <lane id=":32_2_0" index="0" disallow="pedestrian tram rail_urban rail rail_electric rail_fast ship" speed="36.11" length="55.76" width="3.50" shape="-608.44,36.78 -602.55,32.62 -591.46,25.12 -581.88,19.04 -573.84,14.34 -566.52,10.46 -560.89,7.82"/>
    </edge>
    <edge id=":33_0" function="internal">
        <lane id=":33_0_0" index="0" disallow="pedestrian tram rail_urban rail rail_electric rail_fast ship" speed="15.38" length="27.45" width="3.50" shape="-544.91,55.80 -545.50,50.04 -546.37,44.85 -547.51,40.25 -548.68,36.76 -550.18,33.40 -551.76,30.66 -552.44,29.75"/>
    </edge>
    <edge id=":33_1" function="internal">
        <lane id=":33_1_0" index="0" disallow="pedestrian tram rail_urban rail rail_electric rail_fast ship" speed="36.11" length="37.14" width="3.50" shape="-544.91,55.80 -545.54,47.07 -547.42,18.75"/>
        <lane id=":33_1_1" index="1" disallow="pedestrian tram rail_urban rail rail_electric rail_fast ship" speed="36.11" length="37.08" width="3.50" shape="-541.42,55.54 -542.05,46.84 -543.93,18.55"/>
    </edge>
    <edge id=":33_3" function="internal">
        <lane id=":33_3_0" index="0" disallow="pedestrian tram rail_urban rail rail_electric rail_fast ship" speed="36.11" length="37.02" width="3.50" shape="-540.43,18.34 -538.56,46.59 -537.93,55.28"/>
    </edge>
    <edge id=":7_0" function="internal">
        <lane id=":7_0_0" index="0" disallow="pedestrian tram rail_urban rail rail_electric rail_fast ship" speed="36.11" length="3.00" width="3.50" shape="-625.53,49.01 -623.09,47.26"/>
    </edge>
    <edge id=":8_0" function="internal">
        <lane id=":8_0_0" index="0" disallow="pedestrian tram rail_urban rail rail_electric rail_fast ship" speed="36.11" length="2.98" width="3.50" shape="-668.09,85.00 -670.49,86.77"/>
    </edge>

    <edge id="76904" from="31" to="33" priority="3" type="highway.residential" spreadType="center" length="0.25" shape="-541.17,2.19 -543.57,34.77">
        <lane id="76904_0" index="0" disallow="pedestrian tram rail_urban rail rail_electric rail_fast ship" speed="36.11" length="0.25" width="3.50" customShape="1" shape="-540.45,18.10 -540.44,18.22 -540.43,18.35"/>
    </edge>
    <edge id="76906" from="33" to="31" priority="3" type="highway.residential" spreadType="center" length="0.27" shape="-548.81,34.67 -546.41,1.80">
        <lane id="76906_0" index="0" disallow="pedestrian tram rail_urban rail rail_electric rail_fast ship" speed="36.11" length="0.27" width="3.50" customShape="1" shape="-547.42,18.75 -547.43,18.61 -547.44,18.48"/>
        <lane id="76906_1" index="1" disallow="pedestrian tram rail_urban rail rail_electric rail_fast ship" speed="36.11" length="0.27" width="3.50" customShape="1" shape="-543.93,18.55 -543.93,18.41 -543.94,18.28"/>
    </edge>
    <edge id="77044" from="33" to="25" priority="3" type="highway.residential" spreadType="center" length="48.60" shape="-543.58,34.26 -533.73,103.69">
        <lane id="77044_0" index="0" disallow="pedestrian tram rail_urban rail rail_electric rail_fast ship" speed="36.11" length="48.60" width="3.50" customShape="1" shape="-537.93,55.28 -536.84,70.27 -535.27,89.24 -533.73,103.69"/>
    </edge>
    <edge id="77046" from="23" to="33" priority="3" type="highway.residential" spreadType="center" length="48.77" shape="-538.94,104.29 -548.79,34.87">
        <lane id="77046_0" index="0" disallow="pedestrian tram rail_urban rail rail_electric rail_fast ship" speed="36.11" length="48.91" width="3.50" customShape="1" shape="-540.68,104.51 -542.24,89.94 -543.82,70.86 -544.91,55.79"/>
        <lane id="77046_1" index="1" disallow="pedestrian tram rail_urban rail rail_electric rail_fast ship" speed="36.11" length="48.77" width="3.50" customShape="1" shape="-537.20,104.11 -538.75,89.59 -540.33,70.56 -541.42,55.53"/>
    </edge>
    <edge id="77100" from="31" to="19" priority="3" type="highway.residential" spreadType="center" length="70.00" shape="-544.67,2.10 -545.22,-89.49">
        <lane id="77100_0" index="0" disallow="pedestrian tram rail_urban rail rail_electric rail_fast ship" speed="36.11" length="70.00" width="3.50" customShape="1" shape="-548.90,-19.59 -548.87,-20.60 -548.33,-33.64 -546.64,-59.20 -545.64,-76.24 -545.22,-89.49"/>
    </edge>
    <edge id="77102" from="26" to="31" priority="3" type="highway.residential" spreadType="center" length="70.01" shape="-539.97,-89.36 -539.42,2.17">
        <lane id="77102_0" index="0" disallow="pedestrian tram rail_urban rail rail_electric rail_fast ship" speed="36.11" length="70.01" width="3.50" customShape="1" shape="-538.22,-89.33 -538.64,-76.05 -539.64,-58.98 -541.33,-33.45 -541.87,-20.43 -541.90,-19.42"/>
        <lane id="77102_1" index="1" disallow="pedestrian tram rail_urban rail rail_electric rail_fast ship" speed="36.11" length="70.02" width="3.50" customShape="1" shape="-541.72,-89.42 -542.14,-76.13 -543.14,-59.05 -544.84,-33.51 -545.37,-20.50 -545.40,-19.50"/>
    </edge>
    <edge id="77209" from="31" to="20" priority="3" type="highway.residential" spreadType="center" length="60.08" shape="-543.04,0.31 -461.97,-3.69">
        <lane id="77209_0" index="0" disallow="pedestrian tram rail_urban rail rail_electric rail_fast ship" speed="36.11" length="60.08" width="3.50" customShape="1" shape="-521.96,-3.23 -517.92,-3.69 -508.79,-4.49 -500.14,-4.87 -491.48,-4.85 -461.97,-3.69"/>
    </edge>
    <edge id="77211" from="27" to="31" priority="3" type="highway.residential" spreadType="center" length="58.96" shape="-462.23,1.56 -542.90,5.56">
        <lane id="77211_0" index="0" disallow="pedestrian tram rail_urban rail rail_electric rail_fast ship" speed="36.11" length="58.96" width="3.50" customShape="1" shape="-462.29,3.30 -491.31,2.16 -499.75,2.12 -508.20,2.48 -517.15,3.26 -521.16,3.72"/>
        <lane id="77211_1" index="1" disallow="pedestrian tram rail_urban rail rail_electric rail_fast ship" speed="36.11" length="59.49" width="3.50" customShape="1" shape="-462.16,-0.19 -491.46,-1.35 -500.00,-1.37 -508.53,-1.00 -517.55,-0.21 -521.56,0.25"/>
    </edge>
    <edge id="77374" from="32" to="30" priority="3" type="highway.residential" spreadType="center" length="18.00" shape="-577.68,25.44 -622.27,50.98">
        <lane id="77374_0" index="0" disallow="pedestrian tram rail_urban rail rail_electric rail_fast ship" speed="36.11" length="18.00" width="3.50" customShape="1" shape="-606.41,39.63 -614.34,45.31 -621.05,50.11"/>
    </edge>
    <edge id="77375" from="7" to="32" priority="3" type="highway.residential" spreadType="center" length="18.01" shape="-624.31,48.13 -579.42,22.41">
        <lane id="77375_0" index="0" disallow="pedestrian tram rail_urban rail rail_electric rail_fast ship" speed="36.11" length="18.01" width="3.50" customShape="1" shape="-623.09,47.26 -616.38,42.46 -608.44,36.78"/>
    </edge>
    <edge id="77444" from="31" to="32" priority="3" type="highway.residential" spreadType="center" length="0.30" shape="-542.00,3.55 -577.75,25.48">
        <lane id="77444_0" index="0" disallow="pedestrian tram rail_urban rail rail_electric rail_fast ship" speed="36.11" length="0.30" width="3.50" customShape="1" shape="-559.21,10.90 -559.34,10.96 -559.48,11.02"/>
    </edge>
    <edge id="77445" from="32" to="31" priority="3" type="highway.residential" spreadType="center" length="0.31" shape="-579.58,22.50 -543.83,0.57">
        <lane id="77445_0" index="0" disallow="pedestrian tram rail_urban rail rail_electric rail_fast ship" speed="36.11" length="0.31" width="3.50" customShape="1" shape="-560.89,7.82 -560.75,7.75 -560.61,7.70"/>
    </edge>
    <edge id="77473" from="8" to="9" priority="3" type="highway.residential" spreadType="center" length="68.51">
        <lane id="77473_0" index="0" disallow="pedestrian tram rail_urban rail rail_electric rail_fast ship" speed="36.11" length="68.51" width="3.50" customShape="1" shape="-670.49,86.77 -684.48,96.91 -695.61,104.89 -704.45,110.83 -712.22,115.62 -715.38,117.23 -724.89,122.03 -728.11,123.54"/>
    </edge>
    <edge id="77474" from="29" to="28" priority="3" type="highway.residential" spreadType="center" length="68.51">
        <lane id="77474_0" index="0" disallow="pedestrian tram rail_urban rail rail_electric rail_fast ship" speed="36.11" length="68.51" width="3.50" customShape="1" shape="-730.22,120.66 -726.31,118.83 -716.89,114.08 -713.82,112.50 -706.19,107.79 -697.46,101.92 -686.43,94.00 -672.57,83.95"/>
    </edge>
    <edge id="77667" from="33" to="32" priority="3" type="highway.residential" spreadType="center" length="17.91">
        <lane id="77667_0" index="0" disallow="pedestrian tram rail_urban rail rail_electric rail_fast ship" speed="36.11" length="17.91" width="3.50" customShape="1" shape="-551.67,28.59 -557.70,24.60 -566.61,18.71"/>
    </edge>
    <edge id="80990" from="30" to="8" priority="3" type="highway.residential" spreadType="center" length="55.57">
        <lane id="80990_0" index="0" disallow="pedestrian tram rail_urban rail rail_electric rail_fast ship" speed="36.11" length="55.57" width="3.50" customShape="1" shape="-623.49,51.85 -628.23,55.27 -644.27,67.14 -645.66,68.19 -647.07,69.25 -658.18,77.57 -668.09,85.00"/>
    </edge>
    <edge id="80993" from="28" to="7" priority="3" type="highway.residential" spreadType="center" length="55.61">
        <lane id="80993_0" index="0" disallow="pedestrian tram rail_urban rail rail_electric rail_fast ship" speed="36.11" length="55.61" width="3.50" customShape="1" shape="-670.16,82.18 -660.27,74.77 -649.17,66.46 -647.77,65.40 -646.37,64.34 -630.29,52.44 -625.53,49.01"/>
    </edge>

    <junction id="19" type="dead_end" x="-545.22" y="-89.49" incLanes="77100_0" intLanes="" shape="-546.97,-89.54 -543.47,-89.43" rightOfWay="edgePriority"/>
    <junction id="20" type="dead_end" x="-461.97" y="-3.69" incLanes="77209_0" intLanes="" shape="-461.90,-5.44 -462.04,-1.94" rightOfWay="edgePriority"/>
    <junction id="23" type="dead_end" x="-538.94" y="104.29" incLanes="" intLanes="" shape="-535.46,103.92 -542.42,104.66" rightOfWay="edgePriority"/>
    <junction id="25" type="dead_end" x="-533.73" y="103.69" incLanes="77044_0" intLanes="" shape="-531.99,103.50 -535.47,103.87" rightOfWay="edgePriority"/>
    <junction id="26" type="dead_end" x="-539.97" y="-89.36" incLanes="" intLanes="" shape="-543.47,-89.47 -536.47,-89.25" rightOfWay="edgePriority"/>
    <junction id="27" type="dead_end" x="-462.23" y="1.56" incLanes="" intLanes="" shape="-462.09,-1.94 -462.37,5.05" rightOfWay="edgePriority"/>
    <junction id="28" type="priority" x="-671.36" y="83.07" incLanes="77474_0" intLanes=":28_0_0" shape="-669.11,83.58 -671.21,80.78 -673.59,82.53 -671.54,85.37" rightOfWay="edgePriority">
        <request index="0" response="0" foes="0" cont="0"/>
    </junction>
    <junction id="29" type="dead_end" x="-730.22" y="120.66" incLanes="" intLanes="" shape="-729.48,122.24 -730.96,119.07" rightOfWay="edgePriority"/>
    <junction id="30" type="priority" x="-622.27" y="50.98" incLanes="77374_0" intLanes=":30_0_0" shape="-620.04,51.53 -622.07,48.68 -624.51,50.44 -622.47,53.27" rightOfWay="edgePriority">
        <request index="0" response="0" foes="0" cont="0"/>
    </junction>
    <junction id="31" type="priority" x="-542.92" y="2.06" incLanes="77211_0 77211_1 77102_0 77102_1 77445_0 76906_0 76906_1" intLanes=":31_0_0 :31_1_0 :31_2_0 :31_3_0 :31_4_0 :31_5_0 :31_6_0 :31_7_0 :31_8_0 :31_9_0" shape="-520.96,5.46 -522.16,-4.97 -527.77,-4.78 -532.34,-5.63 -535.86,-7.52 -538.34,-10.43 -539.77,-14.39 -540.15,-19.37 -550.65,-19.64 -551.09,-13.01 -552.07,-7.32 -553.59,-2.57 -555.65,1.26 -558.24,4.16 -561.37,6.12 -558.49,12.49 -555.80,11.56 -553.57,11.41 -551.79,12.05 -550.47,13.46 -549.60,15.65 -549.18,18.63 -538.70,18.00 -538.38,14.75 -537.01,11.97 -534.58,9.65 -531.10,7.79 -526.56,6.39">
        <request index="0" response="0000001000" foes="0010001000" cont="0"/>
        <request index="1" response="1100011000" foes="1110011000" cont="0"/>
        <request index="2" response="1101111000" foes="1101111000" cont="0"/>
        <request index="3" response="0000000000" foes="1011000111" cont="0"/>
        <request index="4" response="0100000000" foes="0111000110" cont="0"/>
        <request index="5" response="0100000000" foes="0100000100" cont="0"/>
        <request index="6" response="1100011000" foes="1100011100" cont="0"/>
        <request index="7" response="1100011011" foes="1100011011" cont="0"/>
        <request index="8" response="0000000000" foes="0011110110" cont="0"/>
        <request index="9" response="0000001000" foes="0011001110" cont="0"/>
    </junction>
    <junction id="32" type="priority" x="-578.60" y="23.95" incLanes="77667_0 77444_0 77375_0" intLanes=":32_0_0 :32_1_0 :32_2_0" shape="-567.58,20.16 -565.65,17.25 -565.53,16.30 -564.66,15.61 -563.24,14.76 -561.28,13.76 -558.77,12.62 -561.59,6.22 -571.67,10.86 -579.65,15.02 -586.48,19.11 -593.10,23.58 -600.44,28.85 -609.46,35.36 -605.39,41.05 -595.08,33.85 -586.37,28.13 -579.26,23.91 -573.76,21.17 -569.87,19.92">
        <request index="0" response="010" foes="010" cont="0"/>
        <request index="1" response="000" foes="001" cont="0"/>
        <request index="2" response="000" foes="000" cont="0"/>
    </junction>
    <junction id="33" type="priority" x="-545.31" y="34.55" incLanes="77046_0 77046_1 76904_0" intLanes=":33_0_0 :33_1_0 :33_1_1 :33_3_0" shape="-546.66,55.92 -536.18,55.16 -538.68,18.25 -549.17,18.85 -549.06,21.76 -549.09,24.07 -549.28,25.75 -549.61,26.83 -550.08,27.29 -550.71,27.13 -552.64,30.05 -551.28,31.56 -550.06,34.19 -548.99,37.94 -548.06,42.81 -547.29,48.81">
        <request index="0" response="0000" foes="0000" cont="0"/>
        <request index="1" response="0000" foes="0000" cont="0"/>
        <request index="2" response="0000" foes="0000" cont="0"/>
        <request index="3" response="0000" foes="0000" cont="0"/>
    </junction>
    <junction id="7" type="priority" x="-624.31" y="48.13" incLanes="80993_0" intLanes=":7_0_0" shape="-622.08,48.68 -624.11,45.84 -626.55,47.59 -624.51,50.43" rightOfWay="edgePriority">
        <request index="0" response="0" foes="0" cont="0"/>
    </junction>
    <junction id="8" type="priority" x="-669.28" y="85.89" incLanes="80990_0" intLanes=":8_0_0" shape="-667.04,86.40 -669.14,83.60 -671.52,85.35 -669.47,88.19" rightOfWay="edgePriority">
        <request index="0" response="0" foes="0" cont="0"/>
    </junction>
    <junction id="9" type="dead_end" x="-728.11" y="123.54" incLanes="77473_0" intLanes="" shape="-727.37,125.12 -728.85,121.95" rightOfWay="edgePriority"/>

    <connection from="76904" to="77044" fromLane="0" toLane="0" contPos="-4.00" shape="-540.43,18.34 -538.56,46.59 -537.93,55.28" via=":33_3_0" dir="s" state="M"/>
    <connection from="76906" to="77100" fromLane="0" toLane="0" contPos="-4.00" shape="-547.44,18.48 -548.60,-4.86 -548.92,-16.55 -548.90,-19.59" via=":31_8_0" dir="s" state="M"/>
    <connection from="76906" to="77209" fromLane="1" toLane="0" contPos="-4.00" shape="-543.94,18.28 -543.96,15.45 -543.65,12.62 -543.12,10.41 -542.32,8.28 -541.22,6.29 -539.85,4.47 -538.24,2.87 -536.44,1.48 -533.98,0.06 -531.37,-1.07 -528.12,-2.09 -524.22,-2.91 -521.96,-3.23" via=":31_9_0" dir="l" state="m"/>
    <connection from="77046" to="77667" fromLane="0" toLane="0" contPos="-4.00" shape="-544.91,55.80 -545.50,50.04 -546.37,44.85 -547.51,40.25 -548.68,36.76 -550.18,33.40 -551.76,30.66 -553.32,28.55 -555.12,26.63 -557.16,24.97 -557.59,24.67" via=":33_0_0" dir="r" state="M"/>
    <connection from="77046" to="76906" fromLane="0" toLane="0" contPos="-4.00" shape="-544.91,55.80 -545.54,47.07 -547.42,18.75" via=":33_1_0" dir="s" state="M"/>
    <connection from="77046" to="76906" fromLane="1" toLane="1" contPos="-4.00" shape="-541.42,55.53 -542.05,46.84 -543.93,18.55" via=":33_1_1" dir="s" state="M"/>
    <connection from="77102" to="76904" fromLane="0" toLane="0" contPos="-4.00" shape="-541.90,-19.44 -541.82,-11.31 -541.08,6.44 -540.45,18.10" via=":31_3_0" dir="s" state="M"/>
    <connection from="77102" to="77444" fromLane="1" toLane="0" contPos="-4.00" shape="-545.40,-19.50 -545.43,-18.36 -545.73,-13.84 -546.32,-9.32 -547.01,-5.92 -547.98,-2.58 -549.29,0.68 -550.40,2.80 -551.71,4.80 -553.26,6.67 -555.05,8.34 -557.05,9.76 -559.21,10.90" via=":31_4_0" dir="l" state="m"/>
    <connection from="77211" to="76904" fromLane="0" toLane="0" contPos="-4.00" shape="-521.13,3.72 -525.63,4.44 -529.50,5.42 -532.18,6.40 -534.72,7.69 -536.58,9.01 -537.81,10.20 -538.85,11.55 -539.65,13.06 -540.18,14.69 -540.43,16.38 -540.45,18.10" via=":31_0_0" dir="r" state="m"/>
    <connection from="77211" to="77444" fromLane="0" toLane="0" contPos="-4.00" shape="-521.13,3.72 -535.13,5.59 -545.09,7.23 -552.01,8.68 -556.39,9.87 -559.21,10.90" via=":31_1_0" dir="s" state="m"/>
    <connection from="77211" to="77100" fromLane="1" toLane="0" contPos="-4.00" shape="-521.56,0.25 -526.32,0.64 -530.50,0.61 -533.48,0.31 -536.41,-0.30 -538.68,-1.04 -540.84,-2.07 -542.83,-3.40 -544.17,-4.60 -545.34,-5.96 -546.62,-7.98 -547.59,-10.16 -548.26,-12.46 -548.74,-15.41 -548.91,-18.40 -548.90,-19.59" via=":31_2_0" dir="l" state="m"/>
    <connection from="77374" to="80990" fromLane="0" toLane="0" contPos="-4.00" via=":30_0_0" dir="s" state="M"/>
    <connection from="77375" to="77445" fromLane="0" toLane="0" contPos="-4.00" shape="-608.44,36.78 -602.55,32.62 -591.46,25.12 -581.88,19.04 -573.84,14.34 -566.52,10.46 -560.89,7.82" via=":32_2_0" dir="s" state="M"/>
    <connection from="77444" to="77374" fromLane="0" toLane="0" contPos="-4.00" shape="-559.46,11.01 -565.00,13.61 -572.20,17.44 -580.12,22.07 -589.60,28.08 -600.58,35.51 -606.41,39.63" via=":32_1_0" dir="s" state="M"/>
    <connection from="77445" to="77100" fromLane="0" toLane="0" contPos="-4.00" shape="-560.61,7.70 -558.79,6.73 -557.10,5.50 -555.60,4.05 -554.30,2.42 -553.19,0.65 -552.26,-1.22 -551.14,-4.14 -550.31,-7.16 -549.71,-10.24 -549.19,-14.38 -548.93,-18.55 -548.90,-19.59" via=":31_5_0" dir="r" state="m"/>
    <connection from="77445" to="77209" fromLane="0" toLane="0" contPos="-4.00" shape="-560.61,7.70 -553.55,4.80 -546.33,2.24 -539.48,0.20 -532.54,-1.47 -526.01,-2.67 -521.96,-3.23" via=":31_6_0" dir="s" state="m"/>
    <connection from="77445" to="76904" fromLane="0" toLane="0" contPos="-4.00" shape="-560.61,7.70 -556.95,6.29 -553.76,5.45 -551.15,5.13 -549.18,5.20 -547.25,5.61 -546.03,6.11 -544.91,6.81 -543.93,7.68 -542.73,9.25 -541.84,11.01 -541.22,12.89 -540.70,15.47 -540.45,18.10" via=":31_7_0" dir="l" state="m"/>
    <connection from="77474" to="80993" fromLane="0" toLane="0" contPos="-4.00" via=":28_0_0" dir="s" state="M"/>
    <connection from="77667" to="77374" fromLane="0" toLane="0" contPos="-4.00" shape="-557.80,24.53 -559.65,23.49 -561.62,22.72 -564.20,22.13 -566.84,21.91 -569.49,22.01 -572.63,22.45 -576.24,23.33 -580.25,24.68 -585.13,26.75 -590.33,29.39 -596.28,32.86 -602.94,37.20 -606.41,39.63" via=":32_0_0" dir="r" state="m"/>
    <connection from="80990" to="77473" fromLane="0" toLane="0" contPos="-4.00" via=":8_0_0" dir="s" state="M"/>
    <connection from="80993" to="77375" fromLane="0" toLane="0" contPos="-4.00" via=":7_0_0" dir="s" state="M"/>

    <connection from=":28_0" to="80993" fromLane="0" toLane="0" dir="s" state="M"/>
    <connection from=":30_0" to="80990" fromLane="0" toLane="0" dir="s" state="M"/>