<routes>
	<vehicle depart="0.1" departLane="0" departPos="6.430107328810486" departSpeed="4.2754477" id="38" type="passenger">
		<route edges=":13_3 115"/>
	</vehicle>
	<vehicle depart="0.1" departLane="0" departPos="54.072609779253" departSpeed="27.983731" id="311" type="passenger">
		<route edges="451"/>
	</vehicle>
	<vehicle depart="0.1" departLane="0" departPos="50.77711188560704" departSpeed="14.750841" id="312" type="passenger">
		<route edges="450 115"/>
	</vehicle>
	<vehicle depart="0.1" departLane="0" departPos="23.808476143102805" departSpeed="16.545007" id="313" type="passenger">
		<route edges="450 115"/>
	</vehicle>
</routes>
