<!-- generated on Wed Feb 10 12:25:06 2021 by Eclipse SUMO netconvert Version 1.8.0
<configuration xmlns:xsi="http://www.w3.org/2001/XMLSchema-instance" xsi:noNamespaceSchemaLocation="http://sumo.dlr.de/xsd/netconvertConfiguration.xsd">

    <input>
        <node-files value="./converted_scenarios/SUMO/DEU_Lohmar-40_1_I-1-1/DEU_Lohmar-40_1_I-1-1.nod.xml"/>
        <edge-files value="./converted_scenarios/SUMO/DEU_Lohmar-40_1_I-1-1/DEU_Lohmar-40_1_I-1-1.edg.xml"/>
        <connection-files value="./converted_scenarios/SUMO/DEU_Lohmar-40_1_I-1-1/DEU_Lohmar-40_1_I-1-1.con.xml"/>
        <tllogic-files value="./converted_scenarios/SUMO/DEU_Lohmar-40_1_I-1-1/DEU_Lohmar-40_1_I-1-1.tll.xml"/>
        <type-files value="/home/zen/commonroad-interactive-benchmarks/install/commonroad-map-tool/crmapconverter/sumo_map/templates/DEU.typ.xml"/>
    </input>

    <output>
        <output-file value="./converted_scenarios/SUMO/DEU_Lohmar-40_1_I-1-1/DEU_Lohmar-40_1_I-1-1.net.xml"/>
    </output>

    <processing>
        <geometry.remove.keep-edges.explicit value="true"/>
        <geometry.avoid-overlap value="true"/>
        <offset.disable-normalization value="true"/>
    </processing>

    <junctions>
        <no-turnarounds value="true"/>
        <junctions.internal-link-detail value="20"/>
    </junctions>

    <report>
        <aggregate-warnings value="5"/>
    </report>

    <random_number>
        <seed value="1234"/>
    </random_number>

</configuration>
--><net xmlns:xsi="http://www.w3.org/2001/XMLSchema-instance" version="1.6" junctionCornerDetail="5" junctionLinkDetail="20" limitTurnSpeed="5.50" xsi:noNamespaceSchemaLocation="http://sumo.dlr.de/xsd/net_file.xsd">

    <location netOffset="0.00,0.00" convBoundary="-725.93,-805.61,-707.78,-650.60" origBoundary="-730.23,-805.61,-707.78,-650.60" projParameter="!"/>

    <type id="highway.bridleway" priority="1" speed="2.78" allow="pedestrian" oneway="1" width="2.00"/>
    <type id="highway.bus_guideway" priority="1" speed="27.78" allow="bus" oneway="1"/>
    <type id="highway.cycleway" priority="1" speed="8.33" allow="bicycle" oneway="0" width="1.00"/>
    <type id="highway.footway" priority="1" speed="2.78" allow="pedestrian" oneway="1" width="2.00"/>
    <type id="highway.ford" priority="1" speed="2.78" allow="army" oneway="0"/>
    <type id="highway.living_street" priority="2" speed="2.78" disallow="tram rail_urban rail rail_electric rail_fast ship" oneway="0"/>
    <type id="highway.motorway" priority="14" speed="39.44" allow="private emergency authority army vip passenger hov taxi bus coach delivery truck trailer motorcycle evehicle custom1 custom2" oneway="1"/>
    <type id="highway.motorway_link" priority="9" speed="22.22" allow="private emergency authority army vip passenger hov taxi bus coach delivery truck trailer motorcycle evehicle custom1 custom2" oneway="1"/>
    <type id="highway.path" priority="1" speed="2.78" allow="pedestrian bicycle" oneway="0" width="2.00"/>
    <type id="highway.pedestrian" priority="1" speed="2.78" allow="pedestrian" oneway="1" width="2.00"/>
    <type id="highway.primary" priority="12" speed="27.78" disallow="pedestrian tram rail_urban rail rail_electric rail_fast ship" oneway="0"/>
    <type id="highway.primary_link" priority="7" speed="22.22" disallow="pedestrian tram rail_urban rail rail_electric rail_fast ship" oneway="0"/>
    <type id="highway.raceway" priority="15" speed="83.33" allow="vip" oneway="0"/>
    <type id="highway.residential" priority="3" speed="13.89" disallow="pedestrian tram rail_urban rail rail_electric rail_fast ship" oneway="0"/>
    <type id="highway.secondary" priority="11" speed="27.78" disallow="pedestrian tram rail_urban rail rail_electric rail_fast ship" oneway="0"/>
    <type id="highway.secondary_link" priority="6" speed="22.22" disallow="pedestrian tram rail_urban rail rail_electric rail_fast ship" oneway="0"/>
    <type id="highway.service" priority="1" speed="5.56" allow="pedestrian delivery bicycle" oneway="0"/>
    <type id="highway.stairs" priority="1" speed="1.39" allow="pedestrian" oneway="1" width="2.00"/>
    <type id="highway.step" priority="1" speed="1.39" allow="pedestrian" oneway="1" width="2.00"/>
    <type id="highway.steps" priority="1" speed="1.39" allow="pedestrian" oneway="1" width="2.00"/>
    <type id="highway.tertiary" priority="10" speed="22.22" disallow="pedestrian tram rail_urban rail rail_electric rail_fast ship" oneway="0"/>
    <type id="highway.tertiary_link" priority="5" speed="22.22" disallow="pedestrian tram rail_urban rail rail_electric rail_fast ship" oneway="0"/>
    <type id="highway.track" priority="1" speed="5.56" allow="pedestrian motorcycle moped bicycle" oneway="0"/>
    <type id="highway.trunk" priority="13" speed="27.78" disallow="pedestrian bicycle tram rail_urban rail rail_electric rail_fast ship" oneway="0"/>
    <type id="highway.trunk_link" priority="8" speed="22.22" disallow="pedestrian bicycle tram rail_urban rail rail_electric rail_fast ship" oneway="0"/>
    <type id="highway.unclassified" priority="4" speed="13.89" disallow="pedestrian tram rail_urban rail rail_electric rail_fast ship" oneway="0"/>
    <type id="highway.unsurfaced" priority="1" speed="8.33" disallow="tram rail_urban rail rail_electric rail_fast ship" oneway="0"/>
    <type id="railway.highspeed" priority="21" speed="69.44" allow="rail_fast" oneway="1"/>
    <type id="railway.light_rail" priority="19" speed="27.78" allow="rail_urban" oneway="1"/>
    <type id="railway.preserved" priority="16" speed="27.78" allow="rail" oneway="1"/>
    <type id="railway.rail" priority="20" speed="44.44" allow="rail" oneway="1"/>
    <type id="railway.subway" priority="18" speed="27.78" allow="rail_urban" oneway="1"/>
    <type id="railway.tram" priority="17" speed="13.89" allow="tram" oneway="1"/>

    <edge id=":13_0" function="internal">
        <lane id=":13_0_0" index="0" disallow="pedestrian tram rail_urban rail rail_electric rail_fast ship" speed="36.11" length="15.06" width="3.50" shape="-723.05,-720.54 -723.22,-723.56 -723.74,-728.07 -724.54,-731.98 -725.54,-735.34"/>
    </edge>
    <edge id=":13_1" function="internal">
        <lane id=":13_1_0" index="0" disallow="pedestrian tram rail_urban rail rail_electric rail_fast ship" speed="10.98" length="13.96" width="3.50" shape="-723.05,-720.55 -722.98,-720.76 -722.76,-721.07 -722.41,-721.46 -721.95,-721.93 -721.40,-722.46 -720.76,-723.04 -720.06,-723.66 -719.32,-724.30 -718.54,-724.96 -717.75,-725.62 -716.96,-726.28 -716.18,-726.91 -715.44,-727.51 -714.75,-728.06 -714.13,-728.56 -713.59,-728.99 -713.15,-729.34 -712.82,-729.60 -712.63,-729.76"/>
    </edge>
    <edge id=":13_2" function="internal">
        <lane id=":13_2_0" index="0" disallow="pedestrian tram rail_urban rail rail_electric rail_fast ship" speed="7.87" length="14.15" width="3.50" shape="-709.23,-726.68 -714.67,-726.67 -716.02,-726.40 -716.88,-726.08 -717.66,-725.61 -718.33,-724.98 -718.86,-724.23 -719.21,-723.39 -719.44,-722.50 -719.55,-721.12 -719.55,-720.67"/>
    </edge>
    <edge id=":13_3" function="internal">
        <lane id=":13_3_0" index="0" disallow="pedestrian tram rail_urban rail rail_electric rail_fast ship" speed="10.97" length="20.15" width="3.50" shape="-709.23,-726.68 -715.85,-726.95 -717.73,-727.38 -719.53,-728.09 -721.18,-729.08 -722.62,-730.35 -723.83,-731.86 -724.79,-733.53 -725.54,-735.34"/>
    </edge>
    <edge id=":13_4" function="internal">
        <lane id=":13_4_0" index="0" disallow="pedestrian tram rail_urban rail rail_electric rail_fast ship" speed="16.85" length="4.04" width="3.50" shape="-722.24,-736.49 -722.14,-736.21 -722.05,-735.95 -721.97,-735.72 -721.89,-735.51 -721.81,-735.32 -721.74,-735.15 -721.66,-734.99 -721.59,-734.84 -721.51,-734.70 -721.43,-734.56 -721.35,-734.42 -721.25,-734.28 -721.15,-734.14 -721.04,-733.99 -720.91,-733.83 -720.77,-733.65 -720.62,-733.46 -720.45,-733.25 -720.26,-733.01"/>
    </edge>
    <edge id=":13_5" function="internal">
        <lane id=":13_5_0" index="0" disallow="pedestrian tram rail_urban rail rail_electric rail_fast ship" speed="36.11" length="16.11" width="3.50" shape="-722.24,-736.50 -721.16,-732.87 -720.30,-728.67 -719.73,-723.88 -719.55,-720.67"/>
    </edge>

    <edge id="112" from="8" to="13" priority="3" type="highway.residential" spreadType="center" length="1.45">
        <lane id="112_0" index="0" disallow="pedestrian tram rail_urban rail rail_electric rail_fast ship" speed="36.11" length="1.45" width="3.49" customShape="1" shape="-707.78,-726.66 -709.23,-726.68"/>
    </edge>
    <edge id="115" from="13" to="7" priority="3" type="highway.residential" spreadType="center" length="70.00" shape="-722.48,-727.84 -725.93,-804.45">
        <lane id="115_0" index="0" disallow="pedestrian tram rail_urban rail rail_electric rail_fast ship" speed="36.11" length="70.00" width="3.50" customShape="1" shape="-725.54,-735.34 -726.37,-737.71 -728.26,-743.61 -729.24,-747.71 -729.78,-751.38 -730.18,-758.58 -730.23,-766.23 -729.89,-774.36 -729.15,-782.97 -727.92,-792.54 -726.01,-804.03 -725.93,-804.45"/>
    </edge>
    <edge id="116" from="1" to="13" priority="3" type="highway.residential" spreadType="center" length="70.01" shape="-722.14,-805.61 -718.99,-727.99">
        <lane id="116_0" index="0" disallow="pedestrian tram rail_urban rail rail_electric rail_fast ship" speed="36.11" length="70.01" width="3.50" customShape="1" shape="-722.14,-805.61 -722.57,-803.41 -724.46,-792.03 -725.67,-782.60 -726.40,-774.14 -726.73,-766.17 -726.68,-758.69 -726.30,-751.74 -725.81,-748.38 -724.90,-744.56 -723.06,-738.84 -722.24,-736.49"/>
    </edge>
    <edge id="1305" from="13" to="14" priority="3" type="highway.residential" spreadType="center" length="0.19">
        <lane id="1305_0" index="0" disallow="pedestrian tram rail_urban rail rail_electric rail_fast ship" speed="36.11" length="0.19" width="3.50" customShape="1" shape="-712.63,-729.76 -712.48,-729.88"/>
    </edge>
    <edge id="450" from="10" to="13" priority="3" type="highway.residential" spreadType="center" length="70.00" shape="-720.57,-650.60 -722.49,-727.95">
        <lane id="450_0" index="0" disallow="pedestrian tram rail_urban rail rail_electric rail_fast ship" speed="36.11" length="70.00" width="3.50" customShape="1" shape="-720.57,-650.60 -720.77,-660.09 -723.05,-720.55"/>
    </edge>
    <edge id="451" from="13" to="4" priority="3" type="highway.residential" spreadType="center" length="70.01" shape="-718.99,-728.04 -717.07,-650.71">
        <lane id="451_0" index="0" disallow="pedestrian tram rail_urban rail rail_electric rail_fast ship" speed="36.11" length="70.01" width="3.50" customShape="1" shape="-719.55,-720.67 -717.27,-660.19 -717.07,-650.71"/>
    </edge>
    <edge id="937" from="13" to="14" priority="3" type="highway.residential" spreadType="center" length="7.67">
        <lane id="937_0" index="0" disallow="pedestrian tram rail_urban rail rail_electric rail_fast ship" speed="36.11" length="7.67" width="3.50" customShape="1" shape="-720.26,-733.01 -720.10,-732.81 -719.08,-731.91 -717.90,-731.21 -716.60,-730.71 -715.22,-730.40 -713.35,-730.24"/>
    </edge>

    <junction id="1" type="dead_end" x="-722.14" y="-805.61" incLanes="" intLanes="" shape="-723.86,-805.94 -720.42,-805.27" rightOfWay="edgePriority"/>
    <junction id="10" type="dead_end" x="-720.57" y="-650.60" incLanes="" intLanes="" shape="-718.82,-650.64 -722.32,-650.56" rightOfWay="edgePriority"/>
    <junction id="13" type="priority" x="-720.74" y="-727.96" incLanes="450_0 112_0 116_0" intLanes=":13_0_0 :13_1_0 :13_2_0 :13_3_0 :13_4_0 :13_5_0" shape="-724.80,-720.47 -717.80,-720.73 -716.93,-723.12 -715.75,-723.94 -714.08,-724.52 -711.91,-724.85 -709.26,-724.93 -709.21,-728.43 -709.21,-728.68 -714.73,-731.91 -721.93,-732.29 -718.53,-733.76 -719.57,-734.78 -719.87,-735.21 -720.09,-735.68 -720.32,-736.27 -720.59,-737.07 -727.19,-734.76 -726.20,-731.83 -725.57,-729.62 -725.20,-727.77 -725.01,-725.87 -724.90,-723.57">
        <request index="0" response="000000" foes="001000" cont="0"/>
        <request index="1" response="100000" foes="101000" cont="0"/>
        <request index="2" response="100000" foes="100000" cont="0"/>
        <request index="3" response="100011" foes="100011" cont="0"/>
        <request index="4" response="000000" foes="000000" cont="0"/>
        <request index="5" response="000000" foes="001110" cont="0"/>
    </junction>
    <junction id="14" type="dead_end" x="-713.24" y="-730.23" incLanes="937_0 1305_0" intLanes="" shape="-713.09,-731.98 -713.38,-728.49 -713.33,-731.98 -713.15,-728.49"/>
    <junction id="4" type="dead_end" x="-717.07" y="-650.71" incLanes="451_0" intLanes="" shape="-715.32,-650.75 -718.82,-650.67" rightOfWay="edgePriority"/>
    <junction id="7" type="dead_end" x="-725.93" y="-804.45" incLanes="115_0" intLanes="" shape="-727.65,-804.79 -724.21,-804.12" rightOfWay="edgePriority"/>
    <junction id="8" type="dead_end" x="-707.78" y="-726.66" incLanes="" intLanes="" shape="-707.75,-728.41 -707.80,-724.91" rightOfWay="edgePriority"/>

    <connection from="112" to="451" fromLane="0" toLane="0" contPos="-4.00" shape="-713.29,-726.74 -714.67,-726.67 -716.02,-726.40 -716.88,-726.08 -717.66,-725.61 -718.33,-724.98 -718.86,-724.23 -719.21,-723.39 -719.44,-722.50 -719.55,-721.12 -719.55,-720.67" via=":13_2_0" dir="r" state="m"/>
    <connection from="112" to="115" fromLane="0" toLane="0" contPos="-4.00" shape="-713.29,-726.74 -715.85,-726.95 -717.73,-727.38 -719.53,-728.09 -721.18,-729.08 -722.62,-730.35 -723.83,-731.86 -724.79,-733.53 -725.54,-735.34" via=":13_3_0" dir="L" state="m"/>
    <connection from="116" to="937" fromLane="0" toLane="0" contPos="-4.00" via=":13_4_0" dir="r" state="M"/>
    <connection from="116" to="451" fromLane="0" toLane="0" contPos="-4.00" shape="-722.24,-736.50 -721.16,-732.87 -720.30,-728.67 -719.73,-723.88 -719.55,-720.67" via=":13_5_0" dir="s" state="M"/>
    <connection from="450" to="115" fromLane="0" toLane="0" contPos="-4.00" shape="-723.05,-720.55 -723.22,-723.56 -723.74,-728.07 -724.54,-731.98 -725.54,-735.34" via=":13_0_0" dir="s" state="M"/>
    <connection from="450" to="1305" fromLane="0" toLane="0" contPos="-4.00" via=":13_1_0" dir="l" state="m"/>

    <connection from=":13_0" to="115" fromLane="0" toLane="0" dir="s" state="M"/>
    <connection from=":13_1" to="1305" fromLane="0" toLane="0" dir="l" state="M"/>
    <connection from=":13_2" to="451" fromLane="0" toLane="0" dir="r" state="M"/>
    <connection from=":13_3" to="115" fromLane="0" toLane="0" dir="L" state="M"/>
    <connection from=":13_4" to="937" fromLane="0" toLane="0" dir="r" state="M"/>
    <connection from=":13_5" to="451" fromLane="0" toLane="0" dir="s" state="M"/>

</net>