<?xml version="1.0" encoding="UTF-8"?>

<!-- generated on 2021-07-13 13:15:31 by Eclipse SUMO netedit Version 1.9.2
<configuration xmlns:xsi="http://www.w3.org/2001/XMLSchema-instance" xsi:noNamespaceSchemaLocation="http://sumo.dlr.de/xsd/netconvertConfiguration.xsd">

    <input>
        <sumo-net-file value="/home/seungju/study/CommonRoad/scenarios/interactive/Seungju/StraightLine_01/StraightLine_01.net.xml"/>
    </input>

    <output>
        <output-file value="/home/seungju/study/CommonRoad/scenarios/interactive/Seungju/StraightLine_01/StraightLine_01.net.xml"/>
    </output>

    <processing>
        <geometry.min-radius.fix.railways value="false"/>
        <geometry.max-grade.fix value="false"/>
        <offset.disable-normalization value="true"/>
        <lefthand value="false"/>
    </processing>

    <junctions>
        <no-turnarounds value="true"/>
        <junctions.corner-detail value="5"/>
        <junctions.limit-turn-speed value="5.5"/>
        <rectangular-lane-cut value="false"/>
    </junctions>

    <pedestrian>
        <walkingareas value="false"/>
    </pedestrian>

    <report>
        <aggregate-warnings value="5"/>
    </report>

</configuration>
-->

<net version="1.9" junctionCornerDetail="5" limitTurnSpeed="5.50" xmlns:xsi="http://www.w3.org/2001/XMLSchema-instance" xsi:noNamespaceSchemaLocation="http://sumo.dlr.de/xsd/net_file.xsd">

    <location netOffset="0.00,0.00" convBoundary="0.00,0.00,1000.00,0.00" origBoundary="-10000000000.00,-10000000000.00,10000000000.00,10000000000.00" projParameter="!"/>

    <edge id=":gneJ1_0" function="internal">
        <lane id=":gneJ1_0_0" index="0" speed="13.89" length="0.10" shape="50.00,-4.80 50.00,-4.80"/>
        <lane id=":gneJ1_0_1" index="1" speed="13.89" length="0.10" shape="50.00,-1.60 50.00,-1.60"/>
    </edge>
    <edge id=":gneJ2_0" function="internal">
        <lane id=":gneJ2_0_0" index="0" speed="13.89" length="0.10" shape="200.00,-4.80 200.00,-4.80"/>
        <lane id=":gneJ2_0_1" index="1" speed="13.89" length="0.10" shape="200.00,-1.60 200.00,-1.60"/>
    </edge>
    <edge id=":gneJ3_0" function="internal">
        <lane id=":gneJ3_0_0" index="0" speed="13.89" length="0.10" shape="300.00,-4.80 300.00,-4.80"/>
        <lane id=":gneJ3_0_1" index="1" speed="13.89" length="0.10" shape="300.00,-1.60 300.00,-1.60"/>
    </edge>
    <edge id=":gneJ4_0" function="internal">
        <lane id=":gneJ4_0_0" index="0" speed="13.89" length="0.10" shape="400.00,-4.80 400.00,-4.80"/>
        <lane id=":gneJ4_0_1" index="1" speed="13.89" length="0.10" shape="400.00,-1.60 400.00,-1.60"/>
    </edge>
    <edge id=":gneJ5_0" function="internal">
        <lane id=":gneJ5_0_0" index="0" speed="13.89" length="0.10" shape="600.00,-4.80 600.00,-4.80"/>
        <lane id=":gneJ5_0_1" index="1" speed="13.89" length="0.10" shape="600.00,-1.60 600.00,-1.60"/>
    </edge>

    <edge id="gneE0" from="gneJ0" to="gneJ1" priority="-1">
        <lane id="gneE0_0" index="0" speed="13.89" length="50.00" shape="0.00,-4.80 50.00,-4.80"/>
        <lane id="gneE0_1" index="1" speed="13.89" length="50.00" shape="0.00,-1.60 50.00,-1.60"/>
    </edge>
    <edge id="gneE1" from="gneJ1" to="gneJ2" priority="-1">
        <lane id="gneE1_0" index="0" speed="13.89" length="150.00" shape="50.00,-4.80 200.00,-4.80"/>
        <lane id="gneE1_1" index="1" speed="13.89" length="150.00" shape="50.00,-1.60 200.00,-1.60"/>
    </edge>
    <edge id="gneE2" from="gneJ2" to="gneJ3" priority="-1">
        <lane id="gneE2_0" index="0" speed="13.89" length="100.00" shape="200.00,-4.80 300.00,-4.80"/>
        <lane id="gneE2_1" index="1" speed="13.89" length="100.00" shape="200.00,-1.60 300.00,-1.60"/>
    </edge>
    <edge id="gneE3" from="gneJ3" to="gneJ4" priority="-1">
        <lane id="gneE3_0" index="0" speed="13.89" length="100.00" shape="300.00,-4.80 400.00,-4.80"/>
        <lane id="gneE3_1" index="1" speed="13.89" length="100.00" shape="300.00,-1.60 400.00,-1.60"/>
    </edge>
    <edge id="gneE4" from="gneJ4" to="gneJ5" priority="-1">
        <lane id="gneE4_0" index="0" speed="13.89" length="200.00" shape="400.00,-4.80 600.00,-4.80"/>
        <lane id="gneE4_1" index="1" speed="13.89" length="200.00" shape="400.00,-1.60 600.00,-1.60"/>
    </edge>
    <edge id="gneE5" from="gneJ5" to="gneJ6" priority="-1">
        <lane id="gneE5_0" index="0" speed="13.89" length="400.00" shape="600.00,-4.80 1000.00,-4.80"/>
        <lane id="gneE5_1" index="1" speed="13.89" length="400.00" shape="600.00,-1.60 1000.00,-1.60"/>
    </edge>

    <junction id="gneJ0" type="dead_end" x="0.00" y="0.00" incLanes="" intLanes="" shape="0.00,0.00 0.00,-6.40"/>
    <junction id="gneJ1" type="priority" x="50.00" y="0.00" incLanes="gneE0_0 gneE0_1" intLanes=":gneJ1_0_0 :gneJ1_0_1" shape="50.00,0.00 50.00,-6.40 50.00,0.00">
        <request index="0" response="00" foes="00" cont="0"/>
        <request index="1" response="00" foes="00" cont="0"/>
    </junction>
    <junction id="gneJ2" type="priority" x="200.00" y="0.00" incLanes="gneE1_0 gneE1_1" intLanes=":gneJ2_0_0 :gneJ2_0_1" shape="200.00,0.00 200.00,-6.40 200.00,0.00">
        <request index="0" response="00" foes="00" cont="0"/>
        <request index="1" response="00" foes="00" cont="0"/>
    </junction>
    <junction id="gneJ3" type="priority" x="300.00" y="0.00" incLanes="gneE2_0 gneE2_1" intLanes=":gneJ3_0_0 :gneJ3_0_1" shape="300.00,0.00 300.00,-6.40 300.00,0.00">
        <request index="0" response="00" foes="00" cont="0"/>
        <request index="1" response="00" foes="00" cont="0"/>
    </junction>
    <junction id="gneJ4" type="priority" x="400.00" y="0.00" incLanes="gneE3_0 gneE3_1" intLanes=":gneJ4_0_0 :gneJ4_0_1" shape="400.00,0.00 400.00,-6.40 400.00,0.00">
        <request index="0" response="00" foes="00" cont="0"/>
        <request index="1" response="00" foes="00" cont="0"/>
    </junction>
    <junction id="gneJ5" type="priority" x="600.00" y="0.00" incLanes="gneE4_0 gneE4_1" intLanes=":gneJ5_0_0 :gneJ5_0_1" shape="600.00,0.00 600.00,-6.40 600.00,0.00">
        <request index="0" response="00" foes="00" cont="0"/>
        <request index="1" response="00" foes="00" cont="0"/>
    </junction>
    <junction id="gneJ6" type="dead_end" x="1000.00" y="0.00" incLanes="gneE5_0 gneE5_1" intLanes="" shape="1000.00,-6.40 1000.00,0.00"/>

    <connection from="gneE0" to="gneE1" fromLane="0" toLane="0" via=":gneJ1_0_0" dir="s" state="M"/>
    <connection from="gneE0" to="gneE1" fromLane="1" toLane="1" via=":gneJ1_0_1" dir="s" state="M"/>
    <connection from="gneE1" to="gneE2" fromLane="0" toLane="0" via=":gneJ2_0_0" dir="s" state="M"/>
    <connection from="gneE1" to="gneE2" fromLane="1" toLane="1" via=":gneJ2_0_1" dir="s" state="M"/>
    <connection from="gneE2" to="gneE3" fromLane="0" toLane="0" via=":gneJ3_0_0" dir="s" state="M"/>
    <connection from="gneE2" to="gneE3" fromLane="1" toLane="1" via=":gneJ3_0_1" dir="s" state="M"/>
    <connection from="gneE3" to="gneE4" fromLane="0" toLane="0" via=":gneJ4_0_0" dir="s" state="M"/>
    <connection from="gneE3" to="gneE4" fromLane="1" toLane="1" via=":gneJ4_0_1" dir="s" state="M"/>
    <connection from="gneE4" to="gneE5" fromLane="0" toLane="0" via=":gneJ5_0_0" dir="s" state="M"/>
    <connection from="gneE4" to="gneE5" fromLane="1" toLane="1" via=":gneJ5_0_1" dir="s" state="M"/>

    <connection from=":gneJ1_0" to="gneE1" fromLane="0" toLane="0" dir="s" state="M"/>
    <connection from=":gneJ1_0" to="gneE1" fromLane="1" toLane="1" dir="s" state="M"/>
    <connection from=":gneJ2_0" to="gneE2" fromLane="0" toLane="0" dir="s" state="M"/>
    <connection from=":gneJ2_0" to="gneE2" fromLane="1" toLane="1" dir="s" state="M"/>
    <connection from=":gneJ3_0" to="gneE3" fromLane="0" toLane="0" dir="s" state="M"/>
    <connection from=":gneJ3_0" to="gneE3" fromLane="1" toLane="1" dir="s" state="M"/>
    <connection from=":gneJ4_0" to="gneE4" fromLane="0" toLane="0" dir="s" state="M"/>
    <connection from=":gneJ4_0" to="gneE4" fromLane="1" toLane="1" dir="s" state="M"/>
    <connection from=":gneJ5_0" to="gneE5" fromLane="0" toLane="0" dir="s" state="M"/>
    <connection from=":gneJ5_0" to="gneE5" fromLane="1" toLane="1" dir="s" state="M"/>

</net>
