<?xml version="1.0" encoding="UTF-8"?>
<!-- generated on 2021-07-13 13:23:40.965667 by $Id$ v1_9_2+0074-09b41fdc2d
  options: -n /home/seungju/study/CommonRoad/./scenarios/interactive/Seungju/StraightLine_01/StraightLine_01.net.xml -o /home/seungju/study/CommonRoad/./scenarios/interactive/Seungju/StraightLine_01/StraightLine_01.trips.xml -r /home/seungju/study/CommonRoad/./scenarios/interactive/Seungju/StraightLine_01/StraightLine_01.rou.xml -b 0 -e 30 -p 2.498750624687656 <doubleminus>allow-fringe <doubleminus>fringe-factor 1000000000 <doubleminus>trip-attributes=departLane="best" departSpeed="max" departPos="base" 
-->
<routes xmlns:xsi="http://www.w3.org/2001/XMLSchema-instance" xsi:noNamespaceSchemaLocation="http://sumo.dlr.de/xsd/routes_file.xsd">
    <trip id="0" depart="0.00" from="gneE0" to="gneE5" departLane="best" departSpeed="max" departPos="base"/>
    <trip id="1" depart="2.50" from="gneE0" to="gneE5" departLane="best" departSpeed="max" departPos="base"/>
    <trip id="2" depart="5.00" from="gneE0" to="gneE5" departLane="best" departSpeed="max" departPos="base"/>
    <trip id="3" depart="7.50" from="gneE0" to="gneE5" departLane="best" departSpeed="max" departPos="base"/>
    <trip id="4" depart="10.00" from="gneE0" to="gneE5" departLane="best" departSpeed="max" departPos="base"/>
    <trip id="5" depart="12.49" from="gneE0" to="gneE5" departLane="best" departSpeed="max" departPos="base"/>
    <trip id="6" depart="14.99" from="gneE0" to="gneE5" departLane="best" departSpeed="max" departPos="base"/>
    <trip id="7" depart="17.49" from="gneE0" to="gneE5" departLane="best" departSpeed="max" departPos="base"/>
    <trip id="8" depart="19.99" from="gneE0" to="gneE5" departLane="best" departSpeed="max" departPos="base"/>
    <trip id="9" depart="22.49" from="gneE0" to="gneE5" departLane="best" departSpeed="max" departPos="base"/>
    <trip id="10" depart="24.99" from="gneE0" to="gneE5" departLane="best" departSpeed="max" departPos="base"/>
    <trip id="11" depart="27.49" from="gneE0" to="gneE5" departLane="best" departSpeed="max" departPos="base"/>
    <trip id="12" depart="29.99" from="gneE0" to="gneE5" departLane="best" departSpeed="max" departPos="base"/>
</routes>
