<?xml version="1.0" encoding="UTF-8"?>

<!-- generated on 2021-07-12 15:53:33 by Eclipse SUMO duarouter Version v1_9_2+0074-09b41fdc2d
<configuration xmlns:xsi="http://www.w3.org/2001/XMLSchema-instance" xsi:noNamespaceSchemaLocation="http://sumo.dlr.de/xsd/duarouterConfiguration.xsd">

    <input>
        <net-file value="/home/seungju/study/CommonRoad/./scenarios/interactive/Seungju/StraightLine_01/StraightLine_01.net.xml"/>
        <route-files value="/home/seungju/study/CommonRoad/./scenarios/interactive/Seungju/StraightLine_01/StraightLine_01.trips.xml"/>
    </input>

    <output>
        <output-file value="/home/seungju/study/CommonRoad/./scenarios/interactive/Seungju/StraightLine_01/StraightLine_01.rou.xml"/>
        <alternatives-output value="/home/seungju/study/CommonRoad/./scenarios/interactive/Seungju/StraightLine_01/StraightLine_01.rou.alt.xml"/>
    </output>

    <time>
        <begin value="0"/>
        <end value="30"/>
    </time>

    <report>
        <no-warnings value="true"/>
        <ignore-errors value="true"/>
        <no-step-log value="true"/>
    </report>

</configuration>
-->

<routes xmlns:xsi="http://www.w3.org/2001/XMLSchema-instance" xsi:noNamespaceSchemaLocation="http://sumo.dlr.de/xsd/routes_file.xsd">
    <vehicle id="0" depart="0.00" departLane="best" departPos="base" departSpeed="max">
        <route edges="gneE0 gneE1 gneE2 gneE3 gneE4 gneE5"/>
    </vehicle>
    <vehicle id="1" depart="3.33" departLane="best" departPos="base" departSpeed="max">
        <route edges="gneE0 gneE1 gneE2 gneE3 gneE4 gneE5"/>
    </vehicle>
    <vehicle id="2" depart="6.66" departLane="best" departPos="base" departSpeed="max">
        <route edges="gneE0 gneE1 gneE2 gneE3 gneE4 gneE5"/>
    </vehicle>
    <vehicle id="3" depart="9.98" departLane="best" departPos="base" departSpeed="max">
        <route edges="gneE0 gneE1 gneE2 gneE3 gneE4 gneE5"/>
    </vehicle>
    <vehicle id="4" depart="13.31" departLane="best" departPos="base" departSpeed="max">
        <route edges="gneE0 gneE1 gneE2 gneE3 gneE4 gneE5"/>
    </vehicle>
    <vehicle id="5" depart="16.64" departLane="best" departPos="base" departSpeed="max">
        <route edges="gneE0 gneE1 gneE2 gneE3 gneE4 gneE5"/>
    </vehicle>
    <vehicle id="6" depart="19.97" departLane="best" departPos="base" departSpeed="max">
        <route edges="gneE0 gneE1 gneE2 gneE3 gneE4 gneE5"/>
    </vehicle>
    <vehicle id="7" depart="23.29" departLane="best" departPos="base" departSpeed="max">
        <route edges="gneE0 gneE1 gneE2 gneE3 gneE4 gneE5"/>
    </vehicle>
    <vehicle id="8" depart="26.62" departLane="best" departPos="base" departSpeed="max">
        <route edges="gneE0 gneE1 gneE2 gneE3 gneE4 gneE5"/>
    </vehicle>
    <vehicle id="9" depart="29.95" departLane="best" departPos="base" departSpeed="max">
        <route edges="gneE0 gneE1 gneE2 gneE3 gneE4 gneE5"/>
    </vehicle>
</routes>
