<?xml version="1.0" encoding="UTF-8"?>
<!-- generated on 2021-07-12 15:53:33.056511 by $Id$ v1_9_2+0074-09b41fdc2d
  options: -n /home/seungju/study/CommonRoad/./scenarios/interactive/Seungju/StraightLine_01/StraightLine_01.net.xml -o /home/seungju/study/CommonRoad/./scenarios/interactive/Seungju/StraightLine_01/StraightLine_01.trips.xml -r /home/seungju/study/CommonRoad/./scenarios/interactive/Seungju/StraightLine_01/StraightLine_01.rou.xml -b 0 -e 30 -p 3.327787021630616 <doubleminus>allow-fringe <doubleminus>fringe-factor 1000000000 <doubleminus>trip-attributes=departLane="best" departSpeed="max" departPos="base" 
-->
<routes xmlns:xsi="http://www.w3.org/2001/XMLSchema-instance" xsi:noNamespaceSchemaLocation="http://sumo.dlr.de/xsd/routes_file.xsd">
    <trip id="0" depart="0.00" from="gneE0" to="gneE5" departLane="best" departSpeed="max" departPos="base"/>
    <trip id="1" depart="3.33" from="gneE0" to="gneE5" departLane="best" departSpeed="max" departPos="base"/>
    <trip id="2" depart="6.66" from="gneE0" to="gneE5" departLane="best" departSpeed="max" departPos="base"/>
    <trip id="3" depart="9.98" from="gneE0" to="gneE5" departLane="best" departSpeed="max" departPos="base"/>
    <trip id="4" depart="13.31" from="gneE0" to="gneE5" departLane="best" departSpeed="max" departPos="base"/>
    <trip id="5" depart="16.64" from="gneE0" to="gneE5" departLane="best" departSpeed="max" departPos="base"/>
    <trip id="6" depart="19.97" from="gneE0" to="gneE5" departLane="best" departSpeed="max" departPos="base"/>
    <trip id="7" depart="23.29" from="gneE0" to="gneE5" departLane="best" departSpeed="max" departPos="base"/>
    <trip id="8" depart="26.62" from="gneE0" to="gneE5" departLane="best" departSpeed="max" departPos="base"/>
    <trip id="9" depart="29.95" from="gneE0" to="gneE5" departLane="best" departSpeed="max" departPos="base"/>
</routes>
