<routes>
	<vehicle depart="0.1" departLane="0" departPos="6.948497672956809" departSpeed="6.8795395" id="38" type="bicycle">
		<route edges=":36_2 47728"/>
	</vehicle>
	<vehicle depart="0.1" departLane="0" departPos="13.230332024042841" departSpeed="5.2242635" id="310" type="bicycle">
		<route edges=":35_3 47673"/>
	</vehicle>
	<vehicle depart="0.1" departLane="0" departPos="5.19079821930628" departSpeed="0.17623165" id="31" type="passenger">
		<route edges=":36_4 47732"/>
	</vehicle>
	<vehicle depart="0.1" departLane="0" departPos="27.48367324615116" departSpeed="11.09159" id="319" type="passenger">
		<route edges=":35_2 47731 47728"/>
	</vehicle>
	<vehicle depart="0.1" departLane="0" departPos="11.773238801510004" departSpeed="0.088505138" id="321" type="passenger">
		<route edges=":35_1 47677 47804"/>
	</vehicle>
	<vehicle depart="0.1" departLane="0" departPos="11.148948063998857" departSpeed="9.9260147" id="329" type="passenger">
		<route edges=":35_2 47731 47728"/>
	</vehicle>
	<vehicle depart="0.1" departLane="0" departPos="28.413626717058495" departSpeed="9.2949917" id="334" type="passenger">
		<route edges="47676 47731 47728"/>
	</vehicle>
	<vehicle depart="0.1" departLane="0" departPos="11.807863471007364" departSpeed="9.0351939" id="342" type="passenger">
		<route edges="47676 47731"/>
	</vehicle>
	<vehicle depart="0.1" departLane="0" departPos="33.52230541123522" departSpeed="8.7868643" id="345" type="passenger">
		<route edges=":37_3 47676 47673"/>
	</vehicle>
	<vehicle depart="0.1" departLane="0" departPos="61.594015884475" departSpeed="3.0422608" id="30" type="truck">
		<route edges="47674 47731"/>
	</vehicle>
</routes>
