<routes>
	<vehicle depart="0.1" departLane="0" departPos="19.859287742904705" departSpeed="1.7634979" id="31" type="passenger">
		<route edges=":87_5 20210"/>
	</vehicle>
	<vehicle depart="0.1" departLane="0" departPos="15.129077861226362" departSpeed="12.372405" id="343" type="passenger">
		<route edges=":81_0 20209 20610"/>
	</vehicle>
	<vehicle depart="0.1" departLane="0" departPos="31.14697567957578" departSpeed="16.123505" id="346" type="passenger">
		<route edges=":86_1 20212 20209 20610"/>
	</vehicle>
	<vehicle depart="0.1" departLane="0" departPos="38.02023722117362" departSpeed="9.2643944" id="351" type="passenger">
		<route edges="20215 20042"/>
	</vehicle>
	<vehicle depart="0.1" departLane="0" departPos="23.329695687948078" departSpeed="2.8436096" id="30" type="truck">
		<route edges=":86_5 20216"/>
	</vehicle>
</routes>
