<routes>
	<vehicle depart="0.1" departLane="0" departPos="62.70977627511612" departSpeed="0.68673322" id="312" type="bicycle">
		<route edges="8198 8269"/>
	</vehicle>
	<vehicle depart="0.1" departLane="0" departPos="72.49561795941544" departSpeed="2.717435" id="30" type="passenger">
		<route edges="8198 8269"/>
	</vehicle>
	<vehicle depart="0.1" departLane="0" departPos="53.97572076107622" departSpeed="0.70488765" id="318" type="passenger">
		<route edges="8198 8269"/>
	</vehicle>
	<vehicle depart="0.1" departLane="0" departPos="37.21956567083527" departSpeed="1.9942678" id="321" type="passenger">
		<route edges="8198 8269"/>
	</vehicle>
	<vehicle depart="0.1" departLane="0" departPos="12.139476648602763" departSpeed="6.9950883" id="341" type="passenger">
		<route edges="8269 8091"/>
	</vehicle>
	<vehicle depart="0.1" departLane="0" departPos="36.1168898429305" departSpeed="7.5668558" id="342" type="passenger">
		<route edges=":30_2 8269 8105"/>
	</vehicle>
	<vehicle depart="0.1" departLane="0" departPos="23.60725554385796" departSpeed="12.919567" id="348" type="passenger">
		<route edges=":30_1 8199"/>
	</vehicle>
	<vehicle depart="0.1" departLane="0" departPos="13.247011975495006" departSpeed="10.652297" id="349" type="passenger">
		<route edges=":30_0 8269 8105"/>
	</vehicle>
	<vehicle depart="0.1" departLane="0" departPos="3.344918995667964" departSpeed="9.118805" id="334" type="motorcycle">
		<route edges=":29_1 8142"/>
	</vehicle>
	<vehicle depart="0.1" departLane="0" departPos="19.651836423981546" departSpeed="6.9153104" id="336" type="motorcycle">
		<route edges="8269 8142"/>
	</vehicle>
</routes>
