<routes>
	<vehicle depart="0.1" departLane="0" departPos="10.64068473180115" departSpeed="9.4620259" id="37" type="passenger">
		<route edges=":31_5 31162"/>
	</vehicle>
	<vehicle depart="0.1" departLane="0" departPos="60.22393124210344" departSpeed="0.0" id="39" type="passenger">
		<route edges="31201 31162"/>
	</vehicle>
	<vehicle depart="0.1" departLane="0" departPos="66.12053106460277" departSpeed="5.0331557" id="316" type="passenger">
		<route edges="31163 31204"/>
	</vehicle>
	<vehicle depart="0.1" departLane="0" departPos="52.94722046113019" departSpeed="1.6594523e-05" id="317" type="passenger">
		<route edges="31201 31162"/>
	</vehicle>
	<vehicle depart="0.1" departLane="0" departPos="34.26863472459087" departSpeed="3.1785296" id="324" type="passenger">
		<route edges="31163 31204"/>
	</vehicle>
	<vehicle depart="0.1" departLane="0" departPos="47.756837119615426" departSpeed="4.7452838" id="329" type="passenger">
		<route edges="31163 31204"/>
	</vehicle>
	<vehicle depart="0.1" departLane="0" departPos="14.686869620226522" departSpeed="5.5337839" id="337" type="passenger">
		<route edges="31163 31204"/>
	</vehicle>
	<vehicle depart="0.1" departLane="0" departPos="30.448091116596984" departSpeed="7.5773122" id="36" type="motorcycle">
		<route edges=":31_0 31204 31147"/>
	</vehicle>
	<vehicle depart="0.1" departLane="0" departPos="70.00072351670171" departSpeed="0.0" id="32" type="truck">
		<route edges="31201 31162"/>
	</vehicle>
</routes>
