<routes>
	<vehicle depart="0.1" departLane="0" departPos="8.94073394269676" departSpeed="0.29425686" id="33" type="passenger">
		<route edges="12233 12535"/>
	</vehicle>
	<vehicle depart="0.1" departLane="0" departPos="16.84650527437736" departSpeed="0.0" id="36" type="passenger">
		<route edges="12419 12233"/>
	</vehicle>
	<vehicle depart="0.1" departLane="0" departPos="8.288137206228555" departSpeed="1.2873994" id="317" type="passenger">
		<route edges=":57_2 12237"/>
	</vehicle>
	<vehicle depart="0.1" departLane="0" departPos="56.89453610965078" departSpeed="0.25144115" id="336" type="passenger">
		<route edges="12234 12420"/>
	</vehicle>
	<vehicle depart="0.1" departLane="0" departPos="24.25523733962886" departSpeed="0.0078532276" id="357" type="passenger">
		<route edges="12233 12535"/>
	</vehicle>
	<vehicle depart="0.1" departLane="0" departPos="16.716680846367865" departSpeed="0.040235145" id="366" type="passenger">
		<route edges="12233 12535"/>
	</vehicle>
	<vehicle depart="0.1" departLane="0" departPos="37.03265945626394" departSpeed="2.9619186" id="378" type="passenger">
		<route edges=":57_1 12233"/>
	</vehicle>
	<vehicle depart="0.1" departLane="0" departPos="7.148337030897274" departSpeed="0.89852925" id="380" type="passenger">
		<route edges=":57_1 12233"/>
	</vehicle>
	<vehicle depart="0.1" departLane="0" departPos="29.587253734650883" departSpeed="3.6904633" id="382" type="passenger">
		<route edges="12236 12233"/>
	</vehicle>
	<vehicle depart="0.1" departLane="0" departPos="42.38264108861966" departSpeed="1.6614028" id="330" type="motorcycle">
		<route edges="12234 12420"/>
	</vehicle>
</routes>
