<!-- generated on Tue Feb  9 22:08:21 2021 by Eclipse SUMO netconvert Version 1.8.0
<configuration xmlns:xsi="http://www.w3.org/2001/XMLSchema-instance" xsi:noNamespaceSchemaLocation="http://sumo.dlr.de/xsd/netconvertConfiguration.xsd">

    <input>
        <node-files value="./converted_scenarios/scenario-factory/HRV_Pula-6_3_I-1-1/HRV_Pula-6_3_I-1-1.nod.xml"/>
        <edge-files value="./converted_scenarios/scenario-factory/HRV_Pula-6_3_I-1-1/HRV_Pula-6_3_I-1-1.edg.xml"/>
        <connection-files value="./converted_scenarios/scenario-factory/HRV_Pula-6_3_I-1-1/HRV_Pula-6_3_I-1-1.con.xml"/>
        <tllogic-files value="./converted_scenarios/scenario-factory/HRV_Pula-6_3_I-1-1/HRV_Pula-6_3_I-1-1.tll.xml"/>
        <type-files value="/home/zen/commonroad-interactive-benchmarks/install/commonroad-map-tool/crmapconverter/sumo_map/templates/DEU.typ.xml"/>
    </input>

    <output>
        <output-file value="./converted_scenarios/scenario-factory/HRV_Pula-6_3_I-1-1/HRV_Pula-6_3_I-1-1.net.xml"/>
    </output>

    <processing>
        <geometry.remove.keep-edges.explicit value="true"/>
        <geometry.avoid-overlap value="true"/>
        <offset.disable-normalization value="true"/>
    </processing>

    <junctions>
        <no-turnarounds value="true"/>
        <junctions.internal-link-detail value="20"/>
    </junctions>

    <report>
        <aggregate-warnings value="5"/>
    </report>

    <random_number>
        <seed value="1234"/>
    </random_number>

</configuration>
--><net xmlns:xsi="http://www.w3.org/2001/XMLSchema-instance" version="1.6" junctionCornerDetail="5" junctionLinkDetail="20" limitTurnSpeed="5.50" xsi:noNamespaceSchemaLocation="http://sumo.dlr.de/xsd/net_file.xsd">

    <location netOffset="0.00,0.00" convBoundary="284.25,-887.03,577.04,-667.15" origBoundary="284.25,-887.03,577.04,-667.15" projParameter="!"/>

    <type id="highway.bridleway" priority="1" speed="2.78" allow="pedestrian" oneway="1" width="2.00"/>
    <type id="highway.bus_guideway" priority="1" speed="27.78" allow="bus" oneway="1"/>
    <type id="highway.cycleway" priority="1" speed="8.33" allow="bicycle" oneway="0" width="1.00"/>
    <type id="highway.footway" priority="1" speed="2.78" allow="pedestrian" oneway="1" width="2.00"/>
    <type id="highway.ford" priority="1" speed="2.78" allow="army" oneway="0"/>
    <type id="highway.living_street" priority="2" speed="2.78" disallow="tram rail_urban rail rail_electric rail_fast ship" oneway="0"/>
    <type id="highway.motorway" priority="14" speed="39.44" allow="private emergency authority army vip passenger hov taxi bus coach delivery truck trailer motorcycle evehicle custom1 custom2" oneway="1"/>
    <type id="highway.motorway_link" priority="9" speed="22.22" allow="private emergency authority army vip passenger hov taxi bus coach delivery truck trailer motorcycle evehicle custom1 custom2" oneway="1"/>
    <type id="highway.path" priority="1" speed="2.78" allow="pedestrian bicycle" oneway="0" width="2.00"/>
    <type id="highway.pedestrian" priority="1" speed="2.78" allow="pedestrian" oneway="1" width="2.00"/>
    <type id="highway.primary" priority="12" speed="27.78" disallow="pedestrian tram rail_urban rail rail_electric rail_fast ship" oneway="0"/>
    <type id="highway.primary_link" priority="7" speed="22.22" disallow="pedestrian tram rail_urban rail rail_electric rail_fast ship" oneway="0"/>
    <type id="highway.raceway" priority="15" speed="83.33" allow="vip" oneway="0"/>
    <type id="highway.residential" priority="3" speed="13.89" disallow="pedestrian tram rail_urban rail rail_electric rail_fast ship" oneway="0"/>
    <type id="highway.secondary" priority="11" speed="27.78" disallow="pedestrian tram rail_urban rail rail_electric rail_fast ship" oneway="0"/>
    <type id="highway.secondary_link" priority="6" speed="22.22" disallow="pedestrian tram rail_urban rail rail_electric rail_fast ship" oneway="0"/>
    <type id="highway.service" priority="1" speed="5.56" allow="pedestrian delivery bicycle" oneway="0"/>
    <type id="highway.stairs" priority="1" speed="1.39" allow="pedestrian" oneway="1" width="2.00"/>
    <type id="highway.step" priority="1" speed="1.39" allow="pedestrian" oneway="1" width="2.00"/>
    <type id="highway.steps" priority="1" speed="1.39" allow="pedestrian" oneway="1" width="2.00"/>
    <type id="highway.tertiary" priority="10" speed="22.22" disallow="pedestrian tram rail_urban rail rail_electric rail_fast ship" oneway="0"/>
    <type id="highway.tertiary_link" priority="5" speed="22.22" disallow="pedestrian tram rail_urban rail rail_electric rail_fast ship" oneway="0"/>
    <type id="highway.track" priority="1" speed="5.56" allow="pedestrian motorcycle moped bicycle" oneway="0"/>
    <type id="highway.trunk" priority="13" speed="27.78" disallow="pedestrian bicycle tram rail_urban rail rail_electric rail_fast ship" oneway="0"/>
    <type id="highway.trunk_link" priority="8" speed="22.22" disallow="pedestrian bicycle tram rail_urban rail rail_electric rail_fast ship" oneway="0"/>
    <type id="highway.unclassified" priority="4" speed="13.89" disallow="pedestrian tram rail_urban rail rail_electric rail_fast ship" oneway="0"/>
    <type id="highway.unsurfaced" priority="1" speed="8.33" disallow="tram rail_urban rail rail_electric rail_fast ship" oneway="0"/>
    <type id="railway.highspeed" priority="21" speed="69.44" allow="rail_fast" oneway="1"/>
    <type id="railway.light_rail" priority="19" speed="27.78" allow="rail_urban" oneway="1"/>
    <type id="railway.preserved" priority="16" speed="27.78" allow="rail" oneway="1"/>
    <type id="railway.rail" priority="20" speed="44.44" allow="rail" oneway="1"/>
    <type id="railway.subway" priority="18" speed="27.78" allow="rail_urban" oneway="1"/>
    <type id="railway.tram" priority="17" speed="13.89" allow="tram" oneway="1"/>

    <edge id=":53_0" function="internal">
        <lane id=":53_0_0" index="0" disallow="pedestrian tram rail_urban rail rail_electric rail_fast ship" speed="11.26" length="29.12" width="3.50" shape="472.39,-688.46 471.01,-691.79 469.37,-694.89 468.11,-696.78 466.68,-698.52 465.05,-700.05 464.20,-700.68 463.29,-701.24 462.34,-701.72 461.36,-702.11 460.34,-702.40 459.29,-702.60 458.23,-702.70 457.18,-702.71 454.96,-702.48 452.78,-701.95 450.63,-701.18"/>
    </edge>
    <edge id=":53_1" function="internal">
        <lane id=":53_1_0" index="0" disallow="pedestrian tram rail_urban rail rail_electric rail_fast ship" speed="36.11" length="40.70" width="3.50" shape="472.39,-688.46 471.99,-689.55 470.37,-694.58 468.80,-700.72 465.66,-716.01 463.99,-723.01 462.52,-727.91"/>
    </edge>
    <edge id=":53_2" function="internal">
        <lane id=":53_2_0" index="0" disallow="pedestrian tram rail_urban rail rail_electric rail_fast ship" speed="36.11" length="40.50" width="3.50" shape="465.84,-729.01 467.34,-724.03 469.02,-716.96 472.15,-701.70 473.70,-695.67 475.29,-690.73 475.64,-689.75"/>
    </edge>
    <edge id=":53_3" function="internal">
        <lane id=":53_3_0" index="0" disallow="pedestrian tram rail_urban rail rail_electric rail_fast ship" speed="12.76" length="35.72" width="3.50" shape="465.84,-729.01 466.54,-726.58 467.02,-724.09 467.23,-721.54 467.11,-718.94 466.63,-716.37 465.76,-713.89 464.53,-711.58 463.00,-709.48 461.23,-707.62 459.29,-705.98 457.22,-704.54 453.99,-702.71 450.63,-701.18"/>
    </edge>
    <edge id=":53_4" function="internal">
        <lane id=":53_4_0" index="0" disallow="pedestrian tram rail_urban rail rail_electric rail_fast ship" speed="11.80" length="30.39" width="3.50" shape="449.31,-704.43 452.28,-705.77 455.11,-707.36 456.90,-708.60 458.57,-709.99 460.08,-711.54 461.38,-713.28 462.42,-715.18 463.16,-717.22 463.58,-719.35 463.69,-721.51 463.53,-723.68 463.12,-725.81 462.52,-727.91"/>
    </edge>
    <edge id=":53_5" function="internal">
        <lane id=":53_5_0" index="0" disallow="pedestrian tram rail_urban rail rail_electric rail_fast ship" speed="12.25" length="34.74" width="3.50" shape="449.31,-704.43 451.83,-705.32 454.42,-705.96 457.08,-706.26 458.41,-706.27 459.74,-706.16 461.06,-705.93 462.35,-705.58 463.60,-705.11 464.80,-704.53 465.95,-703.84 467.03,-703.06 469.00,-701.25 470.72,-699.20 472.21,-696.99 474.09,-693.45 475.64,-689.75"/>
    </edge>
    <edge id=":54_0" function="internal">
        <lane id=":54_0_0" index="0" disallow="pedestrian tram rail_urban rail rail_electric rail_fast ship" speed="36.11" length="39.15" width="3.50" shape="563.65,-808.58 544.98,-799.83 528.31,-791.73"/>
    </edge>
    <edge id=":54_1" function="internal">
        <lane id=":54_1_0" index="0" disallow="pedestrian tram rail_urban rail rail_electric rail_fast ship" speed="11.67" length="36.86" width="3.50" shape="534.47,-821.18 537.03,-817.78 538.52,-815.37 539.74,-812.81 540.23,-811.48 540.61,-810.11 540.86,-808.72 540.98,-807.30 540.94,-805.89 540.74,-804.48 540.37,-803.11 539.85,-801.80 539.18,-800.55 538.39,-799.37 537.49,-798.27 535.47,-796.29 533.22,-794.57 530.81,-793.06 528.31,-791.73"/>
    </edge>
    <edge id=":54_2" function="internal">
        <lane id=":54_2_0" index="0" disallow="pedestrian tram rail_urban rail rail_electric rail_fast ship" speed="10.63" length="30.36" width="3.50" shape="526.75,-794.86 528.94,-796.02 531.00,-797.31 532.90,-798.76 534.59,-800.42 535.29,-801.28 535.91,-802.21 536.43,-803.19 536.84,-804.20 537.12,-805.24 537.27,-806.31 537.30,-807.40 537.20,-808.50 537.00,-809.61 536.69,-810.71 536.30,-811.78 535.27,-813.94 534.01,-815.99 531.78,-818.95"/>
    </edge>
    <edge id=":54_3" function="internal">
        <lane id=":54_3_0" index="0" disallow="pedestrian tram rail_urban rail rail_electric rail_fast ship" speed="36.11" length="39.24" width="3.50" shape="526.75,-794.86 543.48,-802.99 562.17,-811.75"/>
    </edge>
    <edge id=":55_0" function="internal">
        <lane id=":55_0_0" index="0" disallow="pedestrian tram rail_urban rail rail_electric rail_fast ship" speed="36.11" length="36.96" width="3.50" shape="458.66,-739.53 455.91,-747.29 452.48,-755.86 448.69,-764.28 444.57,-772.54 444.09,-773.45"/>
    </edge>
    <edge id=":55_1" function="internal">
        <lane id=":55_1_0" index="0" disallow="pedestrian tram rail_urban rail rail_electric rail_fast ship" speed="12.81" length="34.00" width="3.50" shape="458.66,-739.52 457.66,-743.18 457.24,-745.66 457.08,-748.17 457.20,-750.68 457.64,-753.16 458.43,-755.55 459.54,-757.80 460.96,-759.87 462.63,-761.75 464.50,-763.43 466.52,-764.93 469.76,-766.86 470.91,-767.45"/>
    </edge>
    <edge id=":55_2" function="internal">
        <lane id=":55_2_0" index="0" disallow="pedestrian tram rail_urban rail rail_electric rail_fast ship" speed="11.85" length="28.92" width="3.50" shape="472.45,-764.31 471.46,-763.81 468.59,-762.10 466.86,-760.81 465.26,-759.38 463.85,-757.80 462.67,-756.08 461.74,-754.22 461.08,-752.25 460.71,-750.19 460.61,-748.09 460.75,-745.95 461.10,-743.84 461.98,-740.63"/>
    </edge>
    <edge id=":55_3" function="internal">
        <lane id=":55_3_0" index="0" disallow="pedestrian tram rail_urban rail rail_electric rail_fast ship" speed="12.29" length="33.95" width="3.50" shape="472.45,-764.31 468.82,-762.76 466.33,-761.98 463.78,-761.46 461.18,-761.25 459.87,-761.29 458.57,-761.42 457.29,-761.66 456.03,-762.01 454.81,-762.46 453.63,-763.02 452.50,-763.67 450.40,-765.21 448.52,-767.02 446.86,-769.03 445.39,-771.19 444.09,-773.45"/>
    </edge>
    <edge id=":55_4" function="internal">
        <lane id=":55_4_0" index="0" disallow="pedestrian tram rail_urban rail rail_electric rail_fast ship" speed="11.29" length="28.51" width="3.50" shape="447.17,-775.11 448.31,-773.12 449.57,-771.26 450.98,-769.55 452.55,-768.04 454.31,-766.75 455.20,-766.24 456.16,-765.79 457.14,-765.43 458.15,-765.15 459.19,-764.96 460.24,-764.85 461.28,-764.82 463.47,-764.99 465.62,-765.43 467.74,-766.09 470.91,-767.45"/>
    </edge>
    <edge id=":55_5" function="internal">
        <lane id=":55_5_0" index="0" disallow="pedestrian tram rail_urban rail rail_electric rail_fast ship" speed="36.11" length="37.57" width="3.50" shape="447.17,-775.11 447.67,-774.16 451.86,-765.78 455.71,-757.22 459.19,-748.52 461.98,-740.63"/>
    </edge>
    <edge id=":56_0" function="internal">
        <lane id=":56_0_0" index="0" disallow="pedestrian tram rail_urban rail rail_electric rail_fast ship" speed="10.17" length="32.66" width="3.50" shape="365.55,-706.58 365.01,-709.02 364.23,-711.41 363.73,-712.56 363.12,-713.66 362.41,-714.69 361.56,-715.62 360.58,-716.41 359.49,-717.02 358.30,-717.42 357.06,-717.62 355.80,-717.64 354.55,-717.50 353.32,-717.23 352.12,-716.87 349.79,-715.92 347.56,-714.76 344.37,-712.75 341.32,-710.53"/>
    </edge>
    <edge id=":56_1" function="internal">
        <lane id=":56_1_0" index="0" disallow="pedestrian tram rail_urban rail rail_electric rail_fast ship" speed="15.27" length="32.46" width="3.50" shape="365.55,-706.58 364.69,-712.30 364.27,-716.92 364.17,-721.56 364.40,-725.03 364.96,-728.46 365.59,-730.69 366.47,-732.84 367.65,-734.83 368.36,-735.75 369.16,-736.59 370.03,-737.36"/>
    </edge>
    <edge id=":56_2" function="internal">
        <lane id=":56_2_0" index="0" disallow="pedestrian tram rail_urban rail rail_electric rail_fast ship" speed="14.40" length="28.75" width="3.50" shape="372.23,-734.63 371.53,-734.02 370.91,-733.35 370.37,-732.64 369.42,-730.94 368.73,-729.10 368.24,-727.17 367.80,-724.10 367.65,-720.97 367.78,-716.73 368.19,-712.48 369.00,-707.18"/>
    </edge>
    <edge id=":56_3" function="internal">
        <lane id=":56_3_0" index="0" disallow="pedestrian tram rail_urban rail rail_electric rail_fast ship" speed="36.11" length="39.19" width="3.50" shape="372.23,-734.63 356.76,-722.57 341.32,-710.53"/>
    </edge>
    <edge id=":56_4" function="internal">
        <lane id=":56_4_0" index="0" disallow="pedestrian tram rail_urban rail rail_electric rail_fast ship" speed="36.11" length="39.14" width="3.50" shape="339.17,-713.29 354.61,-725.33 370.03,-737.36"/>
    </edge>
    <edge id=":56_5" function="internal">
        <lane id=":56_5_0" index="0" disallow="pedestrian tram rail_urban rail rail_electric rail_fast ship" speed="11.24" length="40.27" width="3.50" shape="339.17,-713.29 342.70,-715.86 346.41,-718.17 349.08,-719.52 351.87,-720.61 353.39,-721.03 354.94,-721.31 356.55,-721.43 358.21,-721.34 359.86,-720.98 361.44,-720.35 362.89,-719.45 364.15,-718.35 365.22,-717.10 366.11,-715.76 366.84,-714.37 367.46,-712.93 368.36,-710.08 369.00,-707.18"/>
    </edge>
    <edge id=":57_0" function="internal">
        <lane id=":57_0_0" index="0" disallow="pedestrian tram rail_urban rail rail_electric rail_fast ship" speed="11.01" length="29.12" width="3.50" shape="521.61,-832.42 519.56,-835.15 518.04,-836.79 516.36,-838.26 514.50,-839.51 513.51,-840.02 512.47,-840.44 511.40,-840.76 510.31,-840.98 509.19,-841.08 508.08,-841.08 506.96,-840.98 505.86,-840.78 503.73,-840.12 501.69,-839.20 499.77,-838.06 497.06,-836.09"/>
    </edge>
    <edge id=":57_1" function="internal">
        <lane id=":57_1_0" index="0" disallow="pedestrian tram rail_urban rail rail_electric rail_fast ship" speed="36.11" length="38.88" width="3.50" shape="527.14,-860.72 512.09,-848.39 497.06,-836.09"/>
    </edge>
    <edge id=":57_2" function="internal">
        <lane id=":57_2_0" index="0" disallow="pedestrian tram rail_urban rail rail_electric rail_fast ship" speed="36.11" length="38.83" width="3.50" shape="494.86,-838.80 509.87,-851.10 524.90,-863.40"/>
    </edge>
    <edge id=":57_3" function="internal">
        <lane id=":57_3_0" index="0" disallow="pedestrian tram rail_urban rail rail_electric rail_fast ship" speed="12.03" length="34.97" width="3.50" shape="494.86,-838.80 497.99,-841.09 500.27,-842.43 502.70,-843.53 505.27,-844.32 506.65,-844.58 508.04,-844.71 509.44,-844.71 510.84,-844.57 512.22,-844.30 513.56,-843.89 514.85,-843.37 516.10,-842.73 518.33,-841.23 520.34,-839.47 522.14,-837.52 524.46,-834.43"/>
    </edge>
    <edge id=":58_0" function="internal">
        <lane id=":58_0_0" index="0" disallow="pedestrian tram rail_urban rail rail_electric rail_fast ship" speed="36.11" length="42.21" width="3.50" shape="449.04,-797.12 432.63,-783.84 416.22,-770.57"/>
    </edge>
    <edge id=":58_1" function="internal">
        <lane id=":58_1_0" index="0" disallow="pedestrian tram rail_urban rail rail_electric rail_fast ship" speed="11.32" length="40.01" width="3.50" shape="449.04,-797.12 445.54,-794.52 443.01,-792.97 440.34,-791.66 438.88,-791.12 437.38,-790.70 435.81,-790.42 434.18,-790.34 432.52,-790.50 430.89,-790.92 429.35,-791.60 427.95,-792.51 426.73,-793.60 425.67,-794.80 424.76,-796.07 423.97,-797.42 422.72,-800.12 421.74,-802.92 420.67,-807.14"/>
    </edge>
    <edge id=":58_2" function="internal">
        <lane id=":58_2_0" index="0" disallow="pedestrian tram rail_urban rail rail_electric rail_fast ship" speed="10.23" length="32.43" width="3.50" shape="424.10,-807.86 425.01,-804.23 425.83,-801.88 426.88,-799.61 427.52,-798.54 428.24,-797.52 429.06,-796.59 430.00,-795.76 431.04,-795.08 432.18,-794.57 433.38,-794.26 434.63,-794.15 435.87,-794.21 437.10,-794.43 438.30,-794.77 439.47,-795.20 441.71,-796.30 443.83,-797.61 446.84,-799.84"/>
    </edge>
    <edge id=":58_3" function="internal">
        <lane id=":58_3_0" index="0" disallow="pedestrian tram rail_urban rail rail_electric rail_fast ship" speed="16.50" length="40.13" width="3.50" shape="424.10,-807.86 425.08,-802.21 425.56,-797.65 425.69,-793.07 425.51,-789.63 425.04,-786.22 424.24,-782.88 423.06,-779.65 422.05,-777.59 420.85,-775.64 419.47,-773.80 417.92,-772.11 416.22,-770.57"/>
    </edge>
    <edge id=":58_4" function="internal">
        <lane id=":58_4_0" index="0" disallow="pedestrian tram rail_urban rail rail_electric rail_fast ship" speed="15.71" length="36.34" width="3.50" shape="413.98,-773.26 415.49,-774.63 416.84,-776.12 418.04,-777.74 419.07,-779.47 419.94,-781.28 420.97,-784.19 421.66,-787.20 422.05,-790.29 422.20,-793.43 422.05,-797.66 421.60,-801.88 420.67,-807.14"/>
    </edge>
    <edge id=":58_5" function="internal">
        <lane id=":58_5_0" index="0" disallow="pedestrian tram rail_urban rail rail_electric rail_fast ship" speed="36.11" length="42.26" width="3.50" shape="413.98,-773.26 430.42,-786.56 446.84,-799.84"/>
    </edge>

    <edge id="12187" from="53" to="20" priority="3" type="highway.residential" spreadType="center" length="70.00" shape="463.01,-708.52 540.20,-693.77">
        <lane id="12187_0" index="0" disallow="pedestrian tram rail_urban rail rail_electric rail_fast ship" speed="36.11" length="70.00" width="3.50" customShape="1" shape="475.64,-689.75 476.01,-688.82 476.94,-687.05 478.15,-685.46 479.64,-684.13 481.35,-683.10 483.66,-682.15 485.60,-681.67 488.09,-681.44 490.59,-681.56 493.05,-681.97 495.96,-682.72 499.27,-683.86 503.44,-685.55 512.20,-689.23 516.93,-690.88 520.80,-691.87 524.26,-692.42 530.73,-693.11 540.20,-693.77"/>
    </edge>
    <edge id="12188" from="38" to="53" priority="3" type="highway.residential" spreadType="center" length="70.00" shape="536.07,-689.97 462.33,-705.09">
        <lane id="12188_0" index="0" disallow="pedestrian tram rail_urban rail rail_electric rail_fast ship" speed="36.11" length="70.00" width="3.50" customShape="1" shape="536.07,-689.97 530.40,-689.56 523.88,-688.83 520.47,-688.20 516.66,-687.11 511.94,-685.35 502.94,-681.56 498.52,-679.91 494.93,-678.87 491.75,-678.26 489.00,-678.03 486.23,-678.14 483.48,-678.63 481.30,-679.34 478.76,-680.58 476.87,-681.91 475.20,-683.55 473.83,-685.44 472.79,-687.46 472.37,-688.50"/>
    </edge>
    <edge id="12190" from="55" to="53" priority="3" type="highway.residential" spreadType="center" length="12.28" shape="460.95,-760.25 464.47,-706.91">
        <lane id="12190_0" index="0" disallow="pedestrian tram rail_urban rail rail_electric rail_fast ship" speed="36.11" length="12.28" width="3.50" customShape="1" shape="461.98,-740.63 463.91,-734.82 465.85,-728.98"/>
    </edge>
    <edge id="12191" from="53" to="55" priority="3" type="highway.residential" spreadType="center" length="12.26" shape="460.98,-706.68 457.46,-760.02">
        <lane id="12191_0" index="0" disallow="pedestrian tram rail_urban rail rail_electric rail_fast ship" speed="36.11" length="12.26" width="3.50" customShape="1" shape="462.52,-727.91 460.59,-733.72 458.65,-739.54"/>
    </edge>
    <edge id="12193" from="13" to="55" priority="3" type="highway.residential" spreadType="center" length="9.52" shape="442.72,-783.50 460.64,-761.09">
        <lane id="12193_0" index="0" disallow="pedestrian tram rail_urban rail rail_electric rail_fast ship" speed="36.11" length="9.52" width="3.50" customShape="1" shape="442.72,-783.50 444.95,-779.29 447.18,-775.09"/>
    </edge>
    <edge id="12194" from="55" to="3" priority="3" type="highway.residential" spreadType="center" length="9.52" shape="457.90,-758.91 439.63,-781.86">
        <lane id="12194_0" index="0" disallow="pedestrian tram rail_urban rail rail_electric rail_fast ship" speed="36.11" length="9.52" width="3.50" customShape="1" shape="444.09,-773.45 441.86,-777.65 439.63,-781.86"/>
    </edge>
    <edge id="12233" from="57" to="58" priority="3" type="highway.residential" spreadType="center" length="61.87" shape="515.90,-842.82 429.34,-791.11">
        <lane id="12233_0" index="0" disallow="pedestrian tram rail_urban rail rail_electric rail_fast ship" speed="36.11" length="61.87" width="3.50" customShape="1" shape="497.06,-836.09 473.05,-816.60 449.02,-797.10"/>
    </edge>
    <edge id="12234" from="58" to="57" priority="3" type="highway.residential" spreadType="center" length="61.87" shape="427.55,-794.11 514.10,-845.82">
        <lane id="12234_0" index="0" disallow="pedestrian tram rail_urban rail rail_electric rail_fast ship" speed="36.11" length="61.87" width="3.50" customShape="1" shape="446.84,-799.84 470.84,-819.32 494.88,-838.82"/>
    </edge>
    <edge id="12236" from="52" to="57" priority="3" type="highway.residential" spreadType="center" length="37.10" shape="555.72,-884.35 516.23,-843.07">
        <lane id="12236_0" index="0" disallow="pedestrian tram rail_urban rail rail_electric rail_fast ship" speed="36.11" length="37.10" width="3.50" customShape="1" shape="555.72,-884.35 541.42,-872.53 527.13,-860.71"/>
    </edge>
    <edge id="12237" from="57" to="49" priority="3" type="highway.residential" spreadType="center" length="37.07" shape="513.70,-845.49 553.46,-887.03">
        <lane id="12237_0" index="0" disallow="pedestrian tram rail_urban rail rail_electric rail_fast ship" speed="36.11" length="37.07" width="3.50" customShape="1" shape="524.90,-863.40 539.19,-875.22 553.46,-887.03"/>
    </edge>
    <edge id="12272" from="56" to="40" priority="3" type="highway.residential" spreadType="center" length="17.05" shape="361.22,-718.79 368.53,-690.21">
        <lane id="12272_0" index="0" disallow="pedestrian tram rail_urban rail rail_electric rail_fast ship" speed="36.11" length="17.05" width="3.50" customShape="1" shape="369.00,-707.18 369.31,-705.07 369.51,-701.88 369.38,-698.15 368.53,-690.21"/>
    </edge>
    <edge id="12273" from="47" to="56" priority="3" type="highway.residential" spreadType="center" length="16.08" shape="365.06,-690.65 357.84,-717.92">
        <lane id="12273_0" index="0" disallow="pedestrian tram rail_urban rail rail_electric rail_fast ship" speed="36.11" length="16.08" width="3.50" customShape="1" shape="365.06,-690.65 365.88,-698.25 366.01,-701.72 365.84,-704.64 365.54,-706.66"/>
    </edge>
    <edge id="12379" from="37" to="58" priority="3" type="highway.residential" spreadType="center" length="70.01" shape="409.75,-876.37 430.18,-793.01">
        <lane id="12379_0" index="0" disallow="pedestrian tram rail_urban rail rail_electric rail_fast ship" speed="36.11" length="70.01" width="3.50" customShape="1" shape="409.75,-876.37 416.63,-843.53 424.10,-807.85"/>
    </edge>
    <edge id="12380" from="58" to="31" priority="3" type="highway.residential" spreadType="center" length="69.99" shape="426.78,-792.18 406.33,-875.65">
        <lane id="12380_0" index="0" disallow="pedestrian tram rail_urban rail rail_electric rail_fast ship" speed="36.11" length="69.99" width="3.50" customShape="1" shape="420.67,-807.14 413.20,-842.81 406.33,-875.65"/>
    </edge>
    <edge id="12419" from="54" to="57" priority="3" type="highway.residential" spreadType="center" length="16.95" shape="539.76,-806.82 513.54,-843.36">
        <lane id="12419_0" index="0" disallow="pedestrian tram rail_urban rail rail_electric rail_fast ship" speed="36.11" length="16.95" width="3.50" customShape="1" shape="531.78,-818.95 530.80,-820.13 525.72,-826.59 521.57,-832.47"/>
    </edge>
    <edge id="12420" from="57" to="54" priority="3" type="highway.residential" spreadType="center" length="16.61" shape="516.38,-845.39 542.60,-808.86">
        <lane id="12420_0" index="0" disallow="pedestrian tram rail_urban rail rail_electric rail_fast ship" speed="36.11" length="16.61" width="3.50" customShape="1" shape="524.46,-834.43 528.53,-828.68 533.52,-822.33 534.47,-821.18"/>
    </edge>
    <edge id="12440" from="53" to="18" priority="3" type="highway.residential" spreadType="center" length="70.00" shape="463.49,-705.22 387.91,-670.45">
        <lane id="12440_0" index="0" disallow="pedestrian tram rail_urban rail rail_electric rail_fast ship" speed="36.11" length="70.00" width="3.50" customShape="1" shape="450.63,-701.18 439.92,-696.83 431.94,-693.75 426.32,-691.53 419.07,-688.06 410.16,-683.37 391.35,-672.70 387.91,-670.45"/>
    </edge>
    <edge id="12441" from="36" to="53" priority="3" type="highway.residential" spreadType="center" length="70.00" shape="386.56,-673.75 462.03,-708.40">
        <lane id="12441_0" index="0" disallow="pedestrian tram rail_urban rail rail_electric rail_fast ship" speed="36.11" length="70.00" width="3.50" customShape="1" shape="386.56,-673.75 389.46,-675.64 408.44,-686.42 417.45,-691.16 424.83,-694.70 430.54,-696.96 438.55,-700.06 449.31,-704.43"/>
    </edge>
    <edge id="12532" from="56" to="39" priority="3" type="highway.residential" spreadType="center" length="70.00" shape="360.55,-716.83 286.39,-667.15">
        <lane id="12532_0" index="0" disallow="pedestrian tram rail_urban rail rail_electric rail_fast ship" speed="36.11" length="70.00" width="3.50" customShape="1" shape="341.32,-710.53 301.53,-679.51 286.39,-667.15"/>
    </edge>
    <edge id="12533" from="51" to="56" priority="3" type="highway.residential" spreadType="center" length="70.01" shape="284.25,-669.92 358.61,-719.73">
        <lane id="12533_0" index="0" disallow="pedestrian tram rail_urban rail rail_electric rail_fast ship" speed="36.11" length="70.01" width="3.50" customShape="1" shape="284.25,-669.92 299.48,-682.35 339.19,-713.30"/>
    </edge>
    <edge id="12535" from="58" to="56" priority="3" type="highway.residential" spreadType="center" length="56.81" shape="429.77,-791.46 360.84,-717.07">
        <lane id="12535_0" index="0" disallow="pedestrian tram rail_urban rail rail_electric rail_fast ship" speed="36.11" length="56.81" width="3.50" customShape="1" shape="416.22,-770.57 387.64,-747.00 372.22,-734.63"/>
    </edge>
    <edge id="12536" from="56" to="58" priority="3" type="highway.residential" spreadType="center" length="56.76" shape="358.27,-719.45 427.21,-793.84">
        <lane id="12536_0" index="0" disallow="pedestrian tram rail_urban rail rail_electric rail_fast ship" speed="36.11" length="56.76" width="3.50" customShape="1" shape="370.03,-737.36 385.44,-749.72 413.99,-773.27"/>
    </edge>
    <edge id="13370" from="54" to="55" priority="3" type="highway.residential" spreadType="center" length="62.25" shape="542.06,-806.33 460.06,-758.55">
        <lane id="13370_0" index="0" disallow="pedestrian tram rail_urban rail rail_electric rail_fast ship" speed="36.11" length="62.25" width="3.50" customShape="1" shape="528.31,-791.73 500.36,-778.01 472.43,-764.30"/>
    </edge>
    <edge id="13371" from="55" to="54" priority="3" type="highway.residential" spreadType="center" length="62.22" shape="458.30,-761.58 540.30,-809.35">
        <lane id="13371_0" index="0" disallow="pedestrian tram rail_urban rail rail_electric rail_fast ship" speed="36.11" length="62.22" width="3.50" customShape="1" shape="470.91,-767.45 498.82,-781.15 526.76,-794.87"/>
    </edge>
    <edge id="13373" from="50" to="54" priority="3" type="highway.residential" spreadType="center" length="14.83" shape="577.04,-814.86 541.52,-806.12">
        <lane id="13373_0" index="0" disallow="pedestrian tram rail_urban rail rail_electric rail_fast ship" speed="36.11" length="14.83" width="3.50" customShape="1" shape="577.04,-814.86 570.33,-811.72 563.61,-808.56"/>
    </edge>
    <edge id="13374" from="54" to="46" priority="3" type="highway.residential" spreadType="center" length="14.73" shape="540.68,-809.52 575.50,-818.01">
        <lane id="13374_0" index="0" disallow="pedestrian tram rail_urban rail rail_electric rail_fast ship" speed="36.11" length="14.73" width="3.50" customShape="1" shape="562.17,-811.75 568.84,-814.88 575.50,-818.01"/>
    </edge>

    <junction id="13" type="dead_end" x="442.72" y="-783.50" incLanes="" intLanes="" shape="441.18,-782.68 444.27,-784.32" rightOfWay="edgePriority"/>
    <junction id="18" type="dead_end" x="387.91" y="-670.45" incLanes="12440_0" intLanes="" shape="388.87,-668.98 386.95,-671.91" rightOfWay="edgePriority"/>
    <junction id="20" type="dead_end" x="540.20" y="-693.77" incLanes="12187_0" intLanes="" shape="540.07,-695.52 540.32,-692.02" rightOfWay="edgePriority"/>
    <junction id="3" type="dead_end" x="439.63" y="-781.86" incLanes="12194_0" intLanes="" shape="438.09,-781.04 441.18,-782.68" rightOfWay="edgePriority"/>
    <junction id="31" type="dead_end" x="406.33" y="-875.65" incLanes="12380_0" intLanes="" shape="404.62,-875.29 408.04,-876.01" rightOfWay="edgePriority"/>