<routes>
	<vehicle depart="0.1" departLane="0" departPos="13.815298608169488" departSpeed="0.49245936" id="38" type="bicycle">
		<route edges=":82_2 292"/>
	</vehicle>
	<vehicle depart="0.1" departLane="0" departPos="18.045348138275525" departSpeed="0.58109641" id="31" type="passenger">
		<route edges=":82_2 292 295"/>
	</vehicle>
	<vehicle depart="0.1" departLane="0" departPos="52.61667137815662" departSpeed="0.73167386" id="310" type="passenger">
		<route edges="1427 292"/>
	</vehicle>
	<vehicle depart="0.1" departLane="0" departPos="21.027634776222346" departSpeed="0.033916748" id="315" type="passenger">
		<route edges=":83_3 230"/>
	</vehicle>
	<vehicle depart="0.1" departLane="0" departPos="2.5" departSpeed="1.7560627" id="318" type="passenger">
		<route edges=":83_3 230"/>
	</vehicle>
	<vehicle depart="0.1" departLane="0" departPos="42.37574914991989" departSpeed="2.3805295" id="332" type="passenger">
		<route edges="1427 292"/>
	</vehicle>
	<vehicle depart="0.1" departLane="0" departPos="25.8339275049384" departSpeed="17.451096" id="345" type="passenger">
		<route edges=":86_3 1427 292"/>
	</vehicle>
	<vehicle depart="0.1" departLane="0" departPos="4.609566435127013" departSpeed="10.214517" id="360" type="passenger">
		<route edges=":81_3 294 230"/>
	</vehicle>
	<vehicle depart="0.1" departLane="0" departPos="11.027815827177697" departSpeed="1.3937549" id="317" type="motorcycle">
		<route edges="229 291"/>
	</vehicle>
	<vehicle depart="0.1" departLane="0" departPos="5.391700498620972" departSpeed="1.3834429" id="352" type="motorcycle">
		<route edges="229 295"/>
	</vehicle>
</routes>
