<routes>
	<vehicle depart="0.1" departLane="0" departPos="55.92427573968831" departSpeed="0.0" id="37" type="bicycle">
		<route edges="33535 33113"/>
	</vehicle>
	<vehicle depart="0.1" departLane="0" departPos="54.42379338797631" departSpeed="0.0" id="317" type="passenger">
		<route edges="33535 33113"/>
	</vehicle>
	<vehicle depart="0.1" departLane="0" departPos="28.799988784220663" departSpeed="0.0" id="323" type="passenger">
		<route edges="32820 33114"/>
	</vehicle>
	<vehicle depart="0.1" departLane="0" departPos="61.84201511041265" departSpeed="0.0" id="339" type="passenger">
		<route edges="33535 33113"/>
	</vehicle>
	<vehicle depart="0.1" departLane="0" departPos="36.29130294542294" departSpeed="0.0" id="340" type="passenger">
		<route edges="32820 33114"/>
	</vehicle>
	<vehicle depart="0.1" departLane="0" departPos="23.506356242585074" departSpeed="0.74254987" id="363" type="passenger">
		<route edges="33113 33110"/>
	</vehicle>
	<vehicle depart="0.1" departLane="0" departPos="26.524684086715464" departSpeed="12.772888" id="372" type="passenger">
		<route edges=":66_4 33113 33110"/>
	</vehicle>
	<vehicle depart="0.1" departLane="0" departPos="2.5" departSpeed="10.435662" id="377" type="passenger">
		<route edges=":66_4 33113"/>
	</vehicle>
	<vehicle depart="0.1" departLane="0" departPos="54.87628610093063" departSpeed="9.9844476" id="383" type="passenger">
		<route edges="33028 33113 33110"/>
	</vehicle>
	<vehicle depart="0.1" departLane="0" departPos="31.068342296620287" departSpeed="9.2380034" id="386" type="passenger">
		<route edges="33028 33113"/>
	</vehicle>
</routes>
