<routes>
	<vehicle depart="0.1" departLane="0" departPos="70.85712318788505" departSpeed="0.45821892" id="31" type="passenger">
		<route edges="109 443 415"/>
	</vehicle>
	<vehicle depart="0.1" departLane="0" departPos="10.095730755756858" departSpeed="0.41734811" id="38" type="passenger">
		<route edges="443 192"/>
	</vehicle>
	<vehicle depart="0.1" departLane="0" departPos="10.092467523236188" departSpeed="0.20100721" id="39" type="passenger">
		<route edges=":20_10 419"/>
	</vehicle>
	<vehicle depart="0.1" departLane="0" departPos="64.01776750670234" departSpeed="0.57437254" id="315" type="passenger">
		<route edges="416 875"/>
	</vehicle>
	<vehicle depart="0.1" departLane="0" departPos="54.184578247193656" departSpeed="1.0705868" id="317" type="passenger">
		<route edges="416 875"/>
	</vehicle>
	<vehicle depart="0.1" departLane="0" departPos="43.463595202548774" departSpeed="1.0129181" id="318" type="passenger">
		<route edges="416 875"/>
	</vehicle>
	<vehicle depart="0.1" departLane="0" departPos="7.412033208675123" departSpeed="8.5764854" id="320" type="passenger">
		<route edges=":20_1 875 108"/>
	</vehicle>
	<vehicle depart="0.1" departLane="0" departPos="45.30993054545843" departSpeed="7.5723509" id="328" type="passenger">
		<route edges="418 415"/>
	</vehicle>
	<vehicle depart="0.1" departLane="0" departPos="69.831167949369" departSpeed="0.27628704" id="30" type="motorcycle">
		<route edges="416 419"/>
	</vehicle>
</routes>
