<routes>
	<vehicle depart="0.1" departLane="0" departPos="6.87210082655975" departSpeed="1.581599" id="323" type="passenger">
		<route edges=":108_2 3881"/>
	</vehicle>
	<vehicle depart="0.1" departLane="0" departPos="14.908978620215372" departSpeed="1.952782" id="327" type="passenger">
		<route edges=":108_6 3881"/>
	</vehicle>
	<vehicle depart="0.1" departLane="0" departPos="54.254255241769016" departSpeed="14.654714" id="3119" type="passenger">
		<route edges="3881 4040"/>
	</vehicle>
	<vehicle depart="0.1" departLane="0" departPos="34.37863305487636" departSpeed="12.169572" id="3127" type="passenger">
		<route edges="3881 4040"/>
	</vehicle>
	<vehicle depart="0.1" departLane="0" departPos="27.891042966272092" departSpeed="15.47194" id="3130" type="passenger">
		<route edges=":108_8 3881 4040"/>
	</vehicle>
	<vehicle depart="0.1" departLane="0" departPos="2.5" departSpeed="13.339527" id="3134" type="passenger">
		<route edges="3881 4040"/>
	</vehicle>
	<vehicle depart="0.1" departLane="0" departPos="34.18256635503408" departSpeed="9.5625265" id="3139" type="motorcycle">
		<route edges="3878 3841"/>
	</vehicle>
</routes>
