<routes>
	<vehicle depart="0.1" departLane="0" departPos="10.335935128820143" departSpeed="14.6909" id="30" type="passenger">
		<route edges="1323 1310"/>
	</vehicle>
	<vehicle depart="0.1" departLane="0" departPos="0" departSpeed="12.9395" id="31" type="passenger">
		<route edges="1316 1323 1310"/>
	</vehicle>
	<vehicle depart="0.1" departLane="0" departPos="75.29230261805576" departSpeed="9.3304" id="32" type="passenger">
		<route edges="1311 1328 1312 1329 1315 1321 1319 1326 1318 1320 1316"/>
	</vehicle>
	<vehicle depart="0.1" departLane="0" departPos="0" departSpeed="12.9201" id="33" type="passenger">
		<route edges="1316 1327 1312 1329 1315 1321 1319"/>
	</vehicle>
	<vehicle depart="0.1" departLane="0" departPos="149.83446709537765" departSpeed="12.8954" id="34" type="passenger">
		<route edges="1313 1322 1316 1323 1310"/>
	</vehicle>
	<vehicle depart="0.1" departLane="0" departPos="0" departSpeed="14.2515" id="35" type="passenger">
		<route edges="1314"/>
	</vehicle>
	<vehicle depart="0.1" departLane="0" departPos="7.3745881904511785" departSpeed="6.9068" id="36" type="passenger">
		<route edges="1312 1329 1315 1321 1319 1326 1318 1320 1316"/>
	</vehicle>
	<vehicle depart="0.1" departLane="0" departPos="120.96231137465838" departSpeed="14.5013" id="37" type="passenger">
		<route edges="1313 1322 1316 1323 1310"/>
	</vehicle>
	<vehicle depart="0.1" departLane="0" departPos="0" departSpeed="12.2756" id="38" type="passenger">
		<route edges="1313 1322 1316 1323 1310"/>
	</vehicle>
	<vehicle depart="0.1" departLane="0" departPos="0" departSpeed="11.8508" id="310" type="passenger">
		<route edges="1313 1322 1316 1323 1310"/>
	</vehicle>
	<vehicle depart="0.1" departLane="0" departPos="57.99413629305522" departSpeed="9.3104" id="311" type="passenger">
		<route edges="1311 1330 1317 1324 1314"/>
	</vehicle>
	<vehicle depart="0.1" departLane="0" departPos="0" departSpeed="12.1072" id="312" type="passenger">
		<route edges="1313 1322 1316 1323 1310"/>
	</vehicle>
	<vehicle depart="0.1" departLane="0" departPos="41.361158551713885" departSpeed="9.1602" id="313" type="passenger">
		<route edges="1311 1328 1312 1329 1315 1321 1319 1326 1318 1320 1316"/>
	</vehicle>
	<vehicle depart="0.1" departLane="0" departPos="0" departSpeed="8.5081" id="314" type="passenger">
		<route edges="1311 1330 1317 1324 1314"/>
	</vehicle>
	<vehicle depart="0.1" departLane="0" departPos="0" departSpeed="10.0679" id="315" type="passenger">
		<route edges="1313 1322 1316 1323 1310"/>
	</vehicle>
	<vehicle depart="0.1" departLane="0" departPos="0" departSpeed="7.0565" id="316" type="passenger">
		<route edges="1311 1328 1312 1329 1315 1321"/>
	</vehicle>
	<vehicle depart="0.1" departLane="0" departPos="0" departSpeed="6.6673" id="317" type="passenger">
		<route edges="1313 1322 1316 1323 1310"/>
	</vehicle>
	<vehicle depart="0.1" departLane="0" departPos="0" departSpeed="3.6743" id="318" type="passenger">
		<route edges="1311 1328 1312 1329 1315 1321"/>
	</vehicle>
	<vehicle depart="0.1" departLane="0" departPos="0" departSpeed="3.4217" id="319" type="passenger">
		<route edges="1313 1322 1316 1323 1310"/>
	</vehicle>
</routes>
