<!-- generated on 2020-12-18 16:14:49.641763 by ipykernel_launcher.py v1_2_0+5214-53edc58fcd
-->
<edges>
	<edge from="1" function="normal" id="1310" length="90.08890837955641" numLanes="1" priority="1" speed="36.11111111111111" spreadType="center" to="2">
		<lane allow="moped bicycle pedestrian custom1 trailer evehicle rail_urban ship private vip custom2 authority delivery rail_electric taxi tram army hov coach motorcycle passenger rail emergency" index="0" length="90.08890837955641" shape="-26.49155,32.56635 -28.18895,37.31185 -32.38105,50.236850000000004 -36.3309,63.237899999999996 -38.9204,72.96385000000001 -40.9022,81.8026 -42.502750000000006,90.7183 -44.27995,103.17345 -46.613150000000005,120.12445" speed="36.11111111111111" width="2.499947919457523"/>
	</edge>
	<edge from="3" function="normal" id="1311" length="90.58093735404705" numLanes="1" priority="1" speed="36.11111111111111" spreadType="center" to="4">
		<lane allow="moped bicycle pedestrian custom1 trailer evehicle rail_urban ship private vip custom2 authority delivery rail_electric taxi tram army hov coach motorcycle passenger rail emergency" index="0" length="90.58093735404705" shape="-49.087050000000005,119.76445 -46.747550000000004,102.76384999999999 -44.95935,90.2497 -43.34315,81.2618 -41.34345,72.34905 -38.734700000000004,62.5517 -34.76465,49.483149999999995 -30.551299999999998,36.4942 -28.84695,31.729599999999998" speed="36.11111111111111" width="2.498957608684067"/>
	</edge>
	<edge from="5" function="normal" id="1312" length="131.18323030976106" numLanes="1" priority="1" speed="36.11111111111111" spreadType="center" to="6">
		<lane allow="moped bicycle pedestrian custom1 trailer evehicle rail_urban ship private vip custom2 authority delivery rail_electric taxi tram army hov coach motorcycle passenger rail emergency" index="0" length="131.18323030976106" shape="-31.5976,23.7989 -33.454499999999996,23.0136 -35.55715,21.62345 -41.17725,17.3448 -46.5642,12.7759 -52.0725,7.586 -57.3121,2.1249000000000002 -62.62015,-3.95745 -68.2783,-11.0616 -74.23625,-19.20635 -81.32025,-29.6438 -100.73495,-59.75295 -107.85464999999999,-70.16605 -113.21435,-77.49835" speed="36.11111111111111" width="2.496605134978299"/>
	</edge>
	<edge from="7" function="normal" id="1313" length="153.45432218797527" numLanes="1" priority="1" speed="36.11111111111111" spreadType="center" to="8">
		<lane allow="moped bicycle pedestrian custom1 trailer evehicle rail_urban ship private truck vip custom2 authority delivery rail_electric taxi tram army hov coach motorcycle passenger bus rail emergency" index="0" length="153.45432218797527" shape="54.63705,-192.59539999999998 28.486849999999997,-120.46475000000001 2.3346999999999998,-48.32935" speed="36.11111111111111" width="2.4999628177234943"/>
	</edge>
	<edge from="9" function="normal" id="1314" length="153.4456165191093" numLanes="1" priority="1" speed="36.11111111111111" spreadType="center" to="10">
		<lane allow="moped bicycle pedestrian custom1 trailer evehicle rail_urban ship private truck vip custom2 authority delivery rail_electric taxi tram army hov coach motorcycle passenger bus rail emergency" index="0" length="153.4456165191093" shape="-0.012399999999999967,-49.189499999999995 26.13655,-121.31685 52.28675,-193.44745" speed="36.11111111111111" width="2.4994407374450787"/>
	</edge>
	<edge from="11" function="normal" id="1315" length="0.2569269789666041" numLanes="1" priority="1" speed="36.11111111111111" spreadType="center" to="12">
		<lane allow="moped bicycle pedestrian custom1 trailer evehicle rail_urban ship private truck vip custom2 authority delivery rail_electric taxi tram army hov coach motorcycle passenger bus rail emergency" index="0" length="0.2569269789666041" shape="-113.99324999999999,-81.2835 -113.86529999999999,-81.27175 -113.73740000000001,-81.25999999999999" speed="36.11111111111111" width="2.478710457072384"/>
	</edge>
	<edge from="13" function="normal" id="1316" length="60.29944115988866" numLanes="1" priority="1" speed="36.11111111111111" spreadType="center" to="14">
		<lane allow="moped bicycle pedestrian custom1 trailer evehicle rail_urban ship private truck vip custom2 authority delivery rail_electric taxi tram army hov coach motorcycle passenger bus rail emergency" index="0" length="60.29944115988866" shape="-1.88525,-36.5728 -11.97965,-8.16465 -22.07565,20.24595" speed="36.11111111111111" width="2.4977191715643294"/>
	</edge>
	<edge from="15" function="normal" id="1317" length="60.2649373791989" numLanes="1" priority="1" speed="36.11111111111111" spreadType="center" to="16">
		<lane allow="moped bicycle pedestrian custom1 trailer evehicle rail_urban ship private truck vip custom2 authority delivery rail_electric taxi tram army hov coach motorcycle passenger bus rail emergency" index="0" length="60.2649373791989" shape="-24.4229,19.3883 -14.33535,-9.0017 -4.24465,-37.39815" speed="36.11111111111111" width="2.4999782979058027"/>
	</edge>
	<edge from="17" function="normal" id="1318" length="58.858757700246535" numLanes="1" priority="1" speed="36.11111111111111" spreadType="center" to="18">
		<lane allow="moped bicycle pedestrian custom1 trailer evehicle rail_urban ship private vip custom2 authority delivery rail_electric taxi tram army hov coach motorcycle passenger rail emergency" index="0" length="58.858757700246535" shape="-63.07755,-64.3762 -14.53655,-47.7398 -7.4216,-45.2259" speed="36.11111111111111" width="2.4937298650816224"/>
	</edge>
	<edge from="19" function="normal" id="1319" length="39.60606964101633" numLanes="1" priority="1" speed="36.11111111111111" spreadType="center" to="20">
		<lane allow="moped bicycle pedestrian custom1 trailer evehicle rail_urban ship private truck vip custom2 authority delivery rail_electric taxi tram army hov coach motorcycle passenger bus rail emergency" index="0" length="39.60606964101633" shape="-108.11925,-79.8446 -89.3902,-73.41159999999999 -70.66120000000001,-66.97855" speed="36.11111111111111" width="2.499481036135309"/>
	</edge>
	<edge from="18" function="normal" id="1320" length="11.697481170808441" numLanes="1" priority="1" speed="36.11111111111111" spreadType="center" to="13">
		<lane allow="moped bicycle pedestrian custom1 trailer evehicle rail_urban ship private vip custom2 authority delivery rail_electric taxi tram army hov coach motorcycle passenger rail emergency" index="0" length="11.697481170808441" shape="-7.4216,-45.2259 -5.27445,-44.28805 -3.792,-43.3459 -2.535,-42.1227 -1.9163,-41.129999999999995 -1.5424,-40.02205 -1.4377,-38.8568 -1.5699,-37.6935 -1.88525,-36.5728" speed="36.11111111111111" width="2.4937298650816224"/>
	</edge>
	<edge from="12" function="normal" id="1321" length="5.802753584311945" numLanes="1" priority="1" speed="36.11111111111111" spreadType="center" to="19">
		<lane allow="moped bicycle pedestrian custom1 trailer evehicle rail_urban ship private vip custom2 authority delivery rail_electric taxi tram army hov coach motorcycle passenger rail emergency" index="0" length="5.802753584311945" shape="-113.73740000000001,-81.25999999999999 -111.65925,-80.89715 -108.11925,-79.8446" speed="36.11111111111111" width="2.497987005570677"/>
	</edge>
	<edge from="8" function="normal" id="1322" length="12.49097458417705" numLanes="1" priority="1" speed="36.11111111111111" spreadType="center" to="13">
		<lane allow="moped bicycle pedestrian custom1 trailer evehicle rail_urban ship private truck vip custom2 authority delivery rail_electric taxi tram army hov coach motorcycle passenger bus rail emergency" index="0" length="12.49097458417705" shape="2.3346999999999998,-48.32935 0.22455000000000003,-42.45 -1.88525,-36.5728" speed="36.11111111111111" width="2.498949669361109"/>
	</edge>
	<edge from="14" function="normal" id="1323" length="13.087873374042935" numLanes="1" priority="1" speed="36.11111111111111" spreadType="center" to="1">
		<lane allow="moped bicycle pedestrian custom1 trailer evehicle rail_urban ship private truck vip custom2 authority delivery rail_electric taxi tram army hov coach motorcycle passenger bus rail emergency" index="0" length="13.087873374042935" shape="-22.07565,20.24595 -24.2828,26.40495 -26.49155,32.56635" speed="36.11111111111111" width="2.4977191715643294"/>
	</edge>
	<edge from="16" function="normal" id="1324" length="12.52788390400068" numLanes="1" priority="1" speed="36.11111111111111" spreadType="center" to="9">
		<lane allow="moped bicycle pedestrian custom1 trailer evehicle rail_urban ship private truck vip custom2 authority delivery rail_electric taxi tram army hov coach motorcycle passenger bus rail emergency" index="0" length="12.52788390400068" shape="-4.24465,-37.39815 -2.1285,-43.2946 -0.012399999999999967,-49.189499999999995" speed="36.11111111111111" width="2.4994407374450787"/>
	</edge>
	<edge from="18" function="normal" id="1325" length="9.607604820259102" numLanes="1" priority="1" speed="36.11111111111111" spreadType="center" to="9">
		<lane allow="moped bicycle pedestrian custom1 trailer evehicle rail_urban ship private vip custom2 authority delivery rail_electric taxi tram army hov coach motorcycle passenger rail emergency" index="0" length="9.607604820259102" shape="-7.4216,-45.2259 -5.67145,-44.800650000000005 -4.47095,-44.7932 -3.30915,-45.088899999999995 -2.2754,-45.696650000000005 -1.4256,-46.544799999999995 -0.47924999999999995,-48.0771 -0.012399999999999967,-49.189499999999995" speed="36.11111111111111" width="2.4937298650816224"/>
	</edge>
	<edge from="20" function="normal" id="1326" length="8.017728658788915" numLanes="1" priority="1" speed="36.11111111111111" spreadType="center" to="17">
		<lane allow="moped bicycle pedestrian custom1 trailer evehicle rail_urban ship private truck vip custom2 authority delivery rail_electric taxi tram army hov coach motorcycle passenger bus rail emergency" index="0" length="8.017728658788915" shape="-70.66120000000001,-66.97855 -66.86935,-65.67735 -63.07755,-64.3762" speed="36.11111111111111" width="2.499967569789651"/>
	</edge>
	<edge from="14" function="normal" id="1327" length="11.586054556161526" numLanes="1" priority="1" speed="36.11111111111111" spreadType="center" to="5">
		<lane allow="moped bicycle pedestrian custom1 trailer evehicle rail_urban ship private vip custom2 authority delivery rail_electric taxi tram army hov coach motorcycle passenger rail emergency" index="0" length="11.586054556161526" shape="-22.07565,20.24595 -22.85385,21.89195 -23.590200000000003,22.865499999999997 -24.51915,23.65615 -25.60985,24.201999999999998 -26.797449999999998,24.4831 -28.627299999999998,24.4936 -30.4281,24.155099999999997 -31.5976,23.7989" speed="36.11111111111111" width="2.496605134978299"/>
	</edge>
	<edge from="4" function="normal" id="1328" length="9.613350591162078" numLanes="1" priority="1" speed="36.11111111111111" spreadType="center" to="5">
		<lane allow="moped bicycle pedestrian custom1 trailer evehicle rail_urban ship private vip custom2 authority delivery rail_electric taxi tram army hov coach motorcycle passenger rail emergency" index="0" length="9.613350591162078" shape="-28.84695,31.729599999999998 -28.3384,29.98785 -28.148,28.19745 -28.300649999999997,27.0072 -28.755049999999997,25.89845 -29.516750000000002,24.97315 -30.49675,24.280549999999998 -31.5976,23.7989" speed="36.11111111111111" width="2.496605134978299"/>
	</edge>
	<edge from="6" function="normal" id="1329" length="4.876055396275429" numLanes="1" priority="1" speed="36.11111111111111" spreadType="center" to="11">
		<lane allow="moped bicycle pedestrian custom1 trailer evehicle rail_urban ship private vip custom2 authority delivery rail_electric taxi tram army hov coach motorcycle passenger rail emergency" index="0" length="4.876055396275429" shape="-113.21435,-77.49835 -114.40195,-79.2553 -114.7234,-79.88480000000001 -114.9204,-80.56020000000001 -114.6734,-81.16675000000001 -113.99324999999999,-81.2835" speed="36.11111111111111" width="2.478710457072384"/>
	</edge>
	<edge from="4" function="normal" id="1330" length="13.110297656214787" numLanes="1" priority="1" speed="36.11111111111111" spreadType="center" to="15">
		<lane allow="moped bicycle pedestrian custom1 trailer evehicle rail_urban ship private truck vip custom2 authority delivery rail_electric taxi tram army hov coach motorcycle passenger bus rail emergency" index="0" length="13.110297656214787" shape="-28.84695,31.729599999999998 -26.6358,25.560299999999998 -24.4229,19.3883" speed="36.11111111111111" width="2.498957608684067"/>
	</edge>
</edges>
