<routes>
	<vehicle depart="0.1" departLane="0" departPos="57.22158506611662" departSpeed="1.4117717" id="30" type="passenger">
		<route edges="3658 3534"/>
	</vehicle>
	<vehicle depart="0.1" departLane="0" departPos="4.8259748272553935" departSpeed="0.52962499" id="31" type="passenger">
		<route edges=":83_2 3531"/>
	</vehicle>
	<vehicle depart="0.1" departLane="0" departPos="9.03952116115346" departSpeed="9.1479757" id="322" type="passenger">
		<route edges=":86_2 3538"/>
	</vehicle>
	<vehicle depart="0.1" departLane="0" departPos="12.486356645814839" departSpeed="0.0" id="326" type="passenger">
		<route edges=":83_1 3535"/>
	</vehicle>
	<vehicle depart="0.1" departLane="0" departPos="2.5" departSpeed="7.0533276" id="333" type="passenger">
		<route edges=":83_0 3531 4047"/>
	</vehicle>
	<vehicle depart="0.1" departLane="0" departPos="71.54779919587685" departSpeed="5.8386903" id="335" type="passenger">
		<route edges="3658 3534"/>
	</vehicle>
	<vehicle depart="0.1" departLane="0" departPos="13.862251678939415" departSpeed="1.5002349" id="351" type="passenger">
		<route edges=":86_1 3534"/>
	</vehicle>
	<vehicle depart="0.1" departLane="0" departPos="61.56128261353371" departSpeed="0.20080764" id="359" type="passenger">
		<route edges="3537 3659"/>
	</vehicle>
	<vehicle depart="0.1" departLane="0" departPos="54.08411915645616" departSpeed="0.029075781" id="366" type="passenger">
		<route edges="3537 3659"/>
	</vehicle>
	<vehicle depart="0.1" departLane="0" departPos="19.890635587852337" departSpeed="11.351831" id="373" type="passenger">
		<route edges="3658 3534"/>
	</vehicle>
</routes>
