<!-- generated on Tue Feb  9 22:22:59 2021 by Eclipse SUMO netconvert Version 1.8.0
<configuration xmlns:xsi="http://www.w3.org/2001/XMLSchema-instance" xsi:noNamespaceSchemaLocation="http://sumo.dlr.de/xsd/netconvertConfiguration.xsd">

    <input>
        <node-files value="./converted_scenarios/scenario-factory/ITA_Empoli-4_2_I-1-1/ITA_Empoli-4_2_I-1-1.nod.xml"/>
        <edge-files value="./converted_scenarios/scenario-factory/ITA_Empoli-4_2_I-1-1/ITA_Empoli-4_2_I-1-1.edg.xml"/>
        <connection-files value="./converted_scenarios/scenario-factory/ITA_Empoli-4_2_I-1-1/ITA_Empoli-4_2_I-1-1.con.xml"/>
        <tllogic-files value="./converted_scenarios/scenario-factory/ITA_Empoli-4_2_I-1-1/ITA_Empoli-4_2_I-1-1.tll.xml"/>
        <type-files value="/home/zen/commonroad-interactive-benchmarks/install/commonroad-map-tool/crmapconverter/sumo_map/templates/DEU.typ.xml"/>
    </input>

    <output>
        <output-file value="./converted_scenarios/scenario-factory/ITA_Empoli-4_2_I-1-1/ITA_Empoli-4_2_I-1-1.net.xml"/>
    </output>

    <processing>
        <geometry.remove.keep-edges.explicit value="true"/>
        <geometry.avoid-overlap value="true"/>
        <offset.disable-normalization value="true"/>
    </processing>

    <junctions>
        <no-turnarounds value="true"/>
        <junctions.internal-link-detail value="20"/>
    </junctions>

    <report>
        <aggregate-warnings value="5"/>
    </report>

    <random_number>
        <seed value="1234"/>
    </random_number>

</configuration>
--><net xmlns:xsi="http://www.w3.org/2001/XMLSchema-instance" version="1.6" junctionCornerDetail="5" junctionLinkDetail="20" limitTurnSpeed="5.50" xsi:noNamespaceSchemaLocation="http://sumo.dlr.de/xsd/net_file.xsd">

    <location netOffset="0.00,0.00" convBoundary="533.11,90.69,837.78,462.78" origBoundary="533.11,90.69,837.78,462.78" projParameter="!"/>

    <type id="highway.bridleway" priority="1" speed="2.78" allow="pedestrian" oneway="1" width="2.00"/>
    <type id="highway.bus_guideway" priority="1" speed="27.78" allow="bus" oneway="1"/>
    <type id="highway.cycleway" priority="1" speed="8.33" allow="bicycle" oneway="0" width="1.00"/>
    <type id="highway.footway" priority="1" speed="2.78" allow="pedestrian" oneway="1" width="2.00"/>
    <type id="highway.ford" priority="1" speed="2.78" allow="army" oneway="0"/>
    <type id="highway.living_street" priority="2" speed="2.78" disallow="tram rail_urban rail rail_electric rail_fast ship" oneway="0"/>
    <type id="highway.motorway" priority="14" speed="39.44" allow="private emergency authority army vip passenger hov taxi bus coach delivery truck trailer motorcycle evehicle custom1 custom2" oneway="1"/>
    <type id="highway.motorway_link" priority="9" speed="22.22" allow="private emergency authority army vip passenger hov taxi bus coach delivery truck trailer motorcycle evehicle custom1 custom2" oneway="1"/>
    <type id="highway.path" priority="1" speed="2.78" allow="pedestrian bicycle" oneway="0" width="2.00"/>
    <type id="highway.pedestrian" priority="1" speed="2.78" allow="pedestrian" oneway="1" width="2.00"/>
    <type id="highway.primary" priority="12" speed="27.78" disallow="pedestrian tram rail_urban rail rail_electric rail_fast ship" oneway="0"/>
    <type id="highway.primary_link" priority="7" speed="22.22" disallow="pedestrian tram rail_urban rail rail_electric rail_fast ship" oneway="0"/>
    <type id="highway.raceway" priority="15" speed="83.33" allow="vip" oneway="0"/>
    <type id="highway.residential" priority="3" speed="13.89" disallow="pedestrian tram rail_urban rail rail_electric rail_fast ship" oneway="0"/>
    <type id="highway.secondary" priority="11" speed="27.78" disallow="pedestrian tram rail_urban rail rail_electric rail_fast ship" oneway="0"/>
    <type id="highway.secondary_link" priority="6" speed="22.22" disallow="pedestrian tram rail_urban rail rail_electric rail_fast ship" oneway="0"/>
    <type id="highway.service" priority="1" speed="5.56" allow="pedestrian delivery bicycle" oneway="0"/>
    <type id="highway.stairs" priority="1" speed="1.39" allow="pedestrian" oneway="1" width="2.00"/>
    <type id="highway.step" priority="1" speed="1.39" allow="pedestrian" oneway="1" width="2.00"/>
    <type id="highway.steps" priority="1" speed="1.39" allow="pedestrian" oneway="1" width="2.00"/>
    <type id="highway.tertiary" priority="10" speed="22.22" disallow="pedestrian tram rail_urban rail rail_electric rail_fast ship" oneway="0"/>
    <type id="highway.tertiary_link" priority="5" speed="22.22" disallow="pedestrian tram rail_urban rail rail_electric rail_fast ship" oneway="0"/>
    <type id="highway.track" priority="1" speed="5.56" allow="pedestrian motorcycle moped bicycle" oneway="0"/>
    <type id="highway.trunk" priority="13" speed="27.78" disallow="pedestrian bicycle tram rail_urban rail rail_electric rail_fast ship" oneway="0"/>
    <type id="highway.trunk_link" priority="8" speed="22.22" disallow="pedestrian bicycle tram rail_urban rail rail_electric rail_fast ship" oneway="0"/>
    <type id="highway.unclassified" priority="4" speed="13.89" disallow="pedestrian tram rail_urban rail rail_electric rail_fast ship" oneway="0"/>
    <type id="highway.unsurfaced" priority="1" speed="8.33" disallow="tram rail_urban rail rail_electric rail_fast ship" oneway="0"/>
    <type id="railway.highspeed" priority="21" speed="69.44" allow="rail_fast" oneway="1"/>
    <type id="railway.light_rail" priority="19" speed="27.78" allow="rail_urban" oneway="1"/>
    <type id="railway.preserved" priority="16" speed="27.78" allow="rail" oneway="1"/>
    <type id="railway.rail" priority="20" speed="44.44" allow="rail" oneway="1"/>
    <type id="railway.subway" priority="18" speed="27.78" allow="rail_urban" oneway="1"/>
    <type id="railway.tram" priority="17" speed="13.89" allow="tram" oneway="1"/>

    <edge id=":13_0" function="internal">
        <lane id=":13_0_0" index="0" disallow="pedestrian tram rail_urban rail rail_electric rail_fast ship" speed="36.11" length="0.10" width="3.50" shape="660.77,323.28 660.77,323.28"/>
    </edge>
    <edge id=":20_0" function="internal">
        <lane id=":20_0_0" index="0" disallow="pedestrian tram rail_urban rail rail_electric rail_fast ship" speed="36.11" length="3.31" width="3.50" shape="642.86,345.95 639.56,346.21"/>
    </edge>
    <edge id=":21_0" function="internal">
        <lane id=":21_0_0" index="0" disallow="pedestrian tram rail_urban rail rail_electric rail_fast ship" speed="36.11" length="4.23" width="3.50" shape="657.76,326.14 656.82,322.02"/>
    </edge>
    <edge id=":23_0" function="internal">
        <lane id=":23_0_0" index="0" disallow="pedestrian tram rail_urban rail rail_electric rail_fast ship" speed="36.11" length="3.24" width="3.50" shape="639.35,342.72 642.58,342.47"/>
    </edge>
    <edge id=":49_0" function="internal">
        <lane id=":49_0_0" index="0" disallow="pedestrian tram rail_urban rail rail_electric rail_fast ship" speed="36.11" length="0.26" width="3.50" shape="623.23,359.28 623.25,359.54"/>
    </edge>
    <edge id=":50_0" function="internal">
        <lane id=":50_0_0" index="0" disallow="pedestrian tram rail_urban rail rail_electric rail_fast ship" speed="36.11" length="2.99" width="3.50" shape="625.32,376.56 625.75,379.52"/>
    </edge>
    <edge id=":64_0" function="internal">
        <lane id=":64_0_0" index="0" disallow="pedestrian tram rail_urban rail rail_electric rail_fast ship" speed="36.11" length="0.29" width="3.50" shape="629.52,404.88 629.57,405.17"/>
    </edge>
    <edge id=":67_0" function="internal">
        <lane id=":67_0_0" index="0" disallow="pedestrian tram rail_urban rail rail_electric rail_fast ship" speed="36.11" length="3.00" width="3.50" shape="626.32,407.04 625.86,404.08"/>
    </edge>
    <edge id=":68_0" function="internal">
        <lane id=":68_0_0" index="0" disallow="pedestrian tram rail_urban rail rail_electric rail_fast ship" speed="36.11" length="0.29" width="3.50" shape="622.09,378.70 622.05,378.41"/>
    </edge>
    <edge id=":73_0" function="internal">
        <lane id=":73_0_0" index="0" disallow="pedestrian tram rail_urban rail rail_electric rail_fast ship" speed="3.36" length="3.39" width="3.50" shape="706.63,173.05 706.46,173.10 706.27,173.15 706.05,173.21 705.82,173.28 705.57,173.34 705.32,173.41 705.07,173.48 704.82,173.55 704.58,173.62 704.35,173.68 704.14,173.74 703.95,173.79 703.80,173.83 703.67,173.87 703.59,173.89 703.55,173.90 703.55,173.90 703.62,173.88 703.74,173.85"/>
    </edge>
    <edge id=":78_0" function="internal">
        <lane id=":78_0_0" index="0" disallow="pedestrian tram rail_urban rail rail_electric rail_fast ship" speed="36.11" length="2.96" width="3.50" shape="619.90,361.17 619.65,358.22"/>
    </edge>
    <edge id=":80_0" function="internal">
        <lane id=":80_0_0" index="0" disallow="pedestrian tram rail_urban rail rail_electric rail_fast ship" speed="12.42" length="30.56" width="3.50" shape="655.85,318.58 654.79,315.60 653.52,312.70 651.98,309.94 650.79,308.20 649.45,306.58 647.94,305.10 646.28,303.81 644.46,302.74 642.51,301.93 640.48,301.38 638.39,301.09 636.28,301.04 634.19,301.19"/>
    </edge>
    <edge id=":80_1" function="internal">
        <lane id=":80_1_0" index="0" disallow="pedestrian tram rail_urban rail rail_electric rail_fast ship" speed="11.41" length="33.04" width="3.50" shape="655.85,318.58 654.74,314.60 654.20,311.90 653.87,309.17 653.81,306.42 653.92,305.04 654.13,303.68 654.45,302.35 654.90,301.05 655.49,299.80 656.22,298.64 657.09,297.57 658.07,296.60 659.16,295.76 660.33,295.03 661.56,294.42 664.15,293.49 666.84,292.89"/>
    </edge>
    <edge id=":80_2" function="internal">
        <lane id=":80_2_0" index="0" disallow="pedestrian tram rail_urban rail rail_electric rail_fast ship" speed="10.34" length="26.93" width="3.50" shape="667.44,296.34 665.20,296.84 663.07,297.62 662.14,298.11 661.24,298.68 660.43,299.34 659.70,300.09 659.07,300.91 658.55,301.81 658.12,302.78 657.80,303.80 657.57,304.87 657.42,305.97 657.36,307.07 657.43,309.40 657.73,311.72 658.21,314.04 659.18,317.52"/>
    </edge>
    <edge id=":80_3" function="internal">
        <lane id=":80_3_0" index="0" disallow="pedestrian tram rail_urban rail rail_electric rail_fast ship" speed="36.11" length="33.60" width="3.50" shape="667.44,296.34 649.79,299.11 634.19,301.19"/>
    </edge>
    <edge id=":80_4" function="internal">
        <lane id=":80_4_0" index="0" disallow="pedestrian tram rail_urban rail rail_electric rail_fast ship" speed="36.11" length="33.42" width="3.50" shape="633.77,297.72 649.29,295.65 666.84,292.89"/>
    </edge>
    <edge id=":80_5" function="internal">
        <lane id=":80_5_0" index="0" disallow="pedestrian tram rail_urban rail rail_electric rail_fast ship" speed="13.35" length="35.43" width="3.50" shape="633.77,297.72 636.19,297.54 638.65,297.59 641.11,297.91 643.53,298.54 645.85,299.48 648.03,300.71 650.03,302.21 651.81,303.92 653.39,305.80 654.79,307.80 656.55,310.92 657.99,314.18 659.18,317.52"/>
    </edge>
    <edge id=":81_0" function="internal">
        <lane id=":81_0_0" index="0" disallow="pedestrian tram rail_urban rail rail_electric rail_fast ship" speed="36.11" length="29.42" width="3.50" shape="733.48,364.78 725.64,367.80 709.13,374.64 706.19,375.77"/>
    </edge>
    <edge id=":81_1" function="internal">
        <lane id=":81_1_0" index="0" disallow="pedestrian tram rail_urban rail rail_electric rail_fast ship" speed="12.22" length="34.64" width="3.50" shape="733.48,364.78 732.24,365.21 728.55,366.20 725.95,366.62 723.30,366.76 720.64,366.56 719.27,366.31 717.95,365.94 716.65,365.46 715.41,364.85 714.22,364.14 713.11,363.33 712.07,362.43 711.10,361.43 709.47,359.34 708.11,357.07 707.00,354.71 706.09,352.29"/>
    </edge>
    <edge id=":81_2" function="internal">
        <lane id=":81_2_0" index="0" disallow="pedestrian tram rail_urban rail rail_electric rail_fast ship" speed="11.21" length="29.01" width="3.50" shape="709.39,351.12 710.19,353.27 711.14,355.29 712.29,357.20 713.67,358.95 714.45,359.74 715.29,360.47 716.19,361.12 717.15,361.69 718.16,362.17 719.20,362.55 720.28,362.85 721.37,363.05 723.59,363.21 725.82,363.08 728.02,362.72 731.24,361.85 732.28,361.49"/>
    </edge>
    <edge id=":81_3" function="internal">
        <lane id=":81_3_0" index="0" disallow="pedestrian tram rail_urban rail rail_electric rail_fast ship" speed="11.05" length="27.44" width="3.50" shape="709.40,351.12 710.89,356.19 711.71,360.01 712.06,362.59 712.20,365.20 712.03,367.80 711.80,369.08 711.44,370.34 710.94,371.54 710.27,372.66 709.45,373.67 708.47,374.53 707.37,375.23 706.19,375.77"/>
    </edge>
    <edge id=":81_4" function="internal">
        <lane id=":81_4_0" index="0" disallow="pedestrian tram rail_urban rail rail_electric rail_fast ship" speed="9.92" length="22.07" width="3.50" shape="704.90,372.52 705.73,372.15 706.46,371.66 707.08,371.05 707.60,370.31 708.01,369.47 708.31,368.56 708.52,367.58 708.65,366.57 708.69,364.40 708.51,362.21 708.16,360.01 707.40,356.68 706.09,352.29"/>
    </edge>
    <edge id=":81_5" function="internal">
        <lane id=":81_5_0" index="0" disallow="pedestrian tram rail_urban rail rail_electric rail_fast ship" speed="36.11" length="29.52" width="3.50" shape="704.90,372.52 707.86,371.37 724.39,364.54 732.28,361.49"/>
    </edge>
    <edge id=":82_0" function="internal">
        <lane id=":82_0_0" index="0" disallow="pedestrian tram rail_urban rail rail_electric rail_fast ship" speed="10.84" length="25.88" width="3.50" shape="684.81,311.15 684.08,307.91 683.44,305.86 682.63,303.87 681.61,301.98 680.36,300.24 679.63,299.44 678.84,298.72 677.99,298.07 677.08,297.50 676.11,297.03 675.11,296.65 674.07,296.36 671.94,296.05 669.80,296.05 667.66,296.30"/>
    </edge>
    <edge id=":82_1" function="internal">
        <lane id=":82_1_0" index="0" disallow="pedestrian tram rail_urban rail rail_electric rail_fast ship" speed="12.05" length="33.99" width="3.50" shape="684.80,311.15 684.30,307.18 684.23,304.57 684.43,301.97 684.95,299.42 685.35,298.18 685.85,296.97 686.44,295.81 687.13,294.71 687.92,293.67 688.79,292.70 689.74,291.80 691.83,290.25 694.11,289.00 696.53,288.01 699.02,287.25 701.57,286.68"/>
    </edge>
    <edge id=":82_2" function="internal">
        <lane id=":82_2_0" index="0" disallow="pedestrian tram rail_urban rail rail_electric rail_fast ship" speed="11.04" length="28.35" width="3.50" shape="702.23,290.11 700.00,290.61 697.86,291.26 695.81,292.10 693.91,293.14 692.17,294.44 691.43,295.14 690.73,295.92 690.10,296.75 689.55,297.63 689.07,298.57 688.67,299.54 688.35,300.52 687.91,302.66 687.75,304.85 687.80,307.06 688.23,310.43"/>
    </edge>
    <edge id=":82_3" function="internal">
        <lane id=":82_3_0" index="0" disallow="pedestrian tram rail_urban rail rail_electric rail_fast ship" speed="36.11" length="35.12" width="3.50" shape="702.23,290.11 675.80,294.91 667.66,296.30"/>
    </edge>
    <edge id=":82_4" function="internal">
        <lane id=":82_4_0" index="0" disallow="pedestrian tram rail_urban rail rail_electric rail_fast ship" speed="36.11" length="35.02" width="3.50" shape="667.10,292.85 675.20,291.46 701.57,286.68"/>
    </edge>
    <edge id=":82_5" function="internal">
        <lane id=":82_5_0" index="0" disallow="pedestrian tram rail_urban rail rail_electric rail_fast ship" speed="11.88" length="31.29" width="3.50" shape="667.10,292.85 669.63,292.55 672.23,292.54 674.82,292.89 676.15,293.23 677.43,293.69 678.65,294.27 679.82,294.97 680.92,295.77 681.93,296.67 682.87,297.67 684.42,299.76 685.67,302.03 686.65,304.39 687.41,306.81 688.23,310.43"/>
    </edge>
    <edge id=":83_0" function="internal">
        <lane id=":83_0_0" index="0" disallow="pedestrian tram rail_urban rail rail_electric rail_fast ship" speed="36.11" length="30.74" width="3.50" shape="738.93,282.40 728.60,284.87 714.07,287.87 708.88,288.86"/>
    </edge>
    <edge id=":83_1" function="internal">
        <lane id=":83_1_0" index="0" disallow="pedestrian tram rail_urban rail rail_electric rail_fast ship" speed="7.17" length="10.82" width="3.50" shape="728.04,276.53 729.17,277.51 730.65,278.43 732.27,279.07 733.99,279.39 735.73,279.41 737.45,279.15 738.04,279.01"/>
    </edge>
    <edge id=":83_2" function="internal">
        <lane id=":83_2_0" index="0" disallow="pedestrian tram rail_urban rail rail_electric rail_fast ship" speed="8.83" length="18.79" width="3.50" shape="722.91,278.07 722.74,278.78 722.08,280.46 721.19,282.03 720.07,283.45 718.76,284.70 716.79,286.08 714.64,287.17 711.80,288.17 708.88,288.86"/>
    </edge>
    <edge id=":83_3" function="internal">
        <lane id=":83_3_0" index="0" disallow="pedestrian tram rail_urban rail rail_electric rail_fast ship" speed="36.11" length="30.52" width="3.50" shape="708.21,285.43 713.39,284.44 727.82,281.46 738.04,279.01"/>
    </edge>
    <edge id=":84_0" function="internal">
        <lane id=":84_0_0" index="0" disallow="pedestrian tram rail_urban rail rail_electric rail_fast ship" speed="8.78" length="18.22" width="3.49" shape="633.96,301.22 629.49,301.88 626.25,302.58 624.18,303.18 622.20,303.95 621.34,304.40 620.55,304.91 619.91,305.46 619.48,306.01 619.26,306.47 619.50,308.60"/>
    </edge>
    <edge id=":84_1" function="internal">
        <lane id=":84_1_0" index="0" disallow="pedestrian tram rail_urban rail rail_electric rail_fast ship" speed="12.05" length="32.17" width="3.50" shape="633.96,301.22 631.37,301.43 628.80,301.40 626.25,301.08 623.76,300.42 622.57,299.94 621.42,299.37 620.32,298.71 619.28,297.95 618.31,297.10 617.42,296.17 615.86,294.13 614.60,291.89 613.59,289.52 612.82,287.07 612.00,283.30"/>
    </edge>
    <edge id=":84_2" function="internal">
        <lane id=":84_2_0" index="0" disallow="pedestrian tram rail_urban rail rail_electric rail_fast ship" speed="11.02" length="26.78" width="3.50" shape="615.44,282.70 616.16,286.01 616.82,288.10 617.66,290.11 618.70,291.97 619.98,293.67 620.68,294.40 621.45,295.08 622.27,295.69 623.14,296.23 624.06,296.69 624.98,297.07 627.04,297.63 629.15,297.90 631.32,297.93 633.54,297.75"/>
    </edge>
    <edge id=":84_3" function="internal">
        <lane id=":84_3_0" index="0" disallow="pedestrian tram rail_urban rail rail_electric rail_fast ship" speed="36.11" length="26.22" width="3.49" shape="615.44,282.70 617.69,296.43 619.50,308.60"/>
    </edge>
    <edge id=":84_4" function="internal">
        <lane id=":84_4_0" index="0" disallow="pedestrian tram rail_urban rail rail_electric rail_fast ship" speed="36.11" length="26.43" width="3.50" shape="616.29,309.38 614.23,296.93 612.00,283.30"/>
    </edge>
    <edge id=":84_5" function="internal">
        <lane id=":84_5_0" index="0" disallow="pedestrian tram rail_urban rail rail_electric rail_fast ship" speed="9.75" length="24.10" width="3.50" shape="616.29,309.38 615.75,306.15 616.09,304.90 616.74,303.77 617.61,302.81 618.63,302.00 619.74,301.32 622.10,300.24 624.57,299.43 628.37,298.54 633.54,297.75"/>
    </edge>
    <edge id=":85_0" function="internal">
        <lane id=":85_0_0" index="0" disallow="pedestrian tram rail_urban rail rail_electric rail_fast ship" speed="10.73" length="28.83" width="3.50" shape="617.84,332.81 617.60,330.60 617.16,328.43 616.49,326.32 616.05,325.30 615.53,324.32 614.93,323.39 614.25,322.51 613.48,321.71 612.64,321.00 611.72,320.37 610.75,319.84 609.73,319.41 608.67,319.06 606.50,318.63 604.29,318.47 602.07,318.54 598.77,318.96 597.68,319.17"/>
    </edge>
    <edge id=":85_1" function="internal">
        <lane id=":85_1_0" index="0" disallow="pedestrian tram rail_urban rail rail_electric rail_fast ship" speed="36.11" length="23.28" width="3.48" shape="617.84,332.81 617.04,322.32 616.35,309.58"/>
    </edge>
    <edge id=":85_2" function="internal">
        <lane id=":85_2_0" index="0" disallow="pedestrian tram rail_urban rail rail_electric rail_fast ship" speed="36.11" length="23.79" width="3.50" shape="619.54,308.80 620.53,322.02 621.33,332.52"/>
    </edge>
    <edge id=":85_3" function="internal">
        <lane id=":85_3_0" index="0" disallow="pedestrian tram rail_urban rail rail_electric rail_fast ship" speed="10.59" length="25.38" width="3.50" shape="619.54,308.80 619.21,308.55 618.83,309.73 618.18,310.79 617.34,311.72 616.39,312.53 614.29,313.88 612.05,314.98 608.55,316.33 603.77,317.76 597.68,319.17"/>
    </edge>
    <edge id=":85_4" function="internal">
        <lane id=":85_4_0" index="0" disallow="pedestrian tram rail_urban rail rail_electric rail_fast ship" speed="9.63" length="22.14" width="3.48" shape="596.97,315.74 602.43,314.50 606.69,313.30 609.78,312.21 611.73,311.37 613.55,310.36 614.32,309.82 614.98,309.23 615.46,308.65 615.70,308.19 616.35,309.58"/>
    </edge>
    <edge id=":85_5" function="internal">
        <lane id=":85_5_0" index="0" disallow="pedestrian tram rail_urban rail rail_electric rail_fast ship" speed="11.77" length="34.88" width="3.50" shape="596.97,315.74 598.27,315.50 602.06,315.02 604.69,314.95 607.34,315.15 609.96,315.69 611.29,316.13 612.57,316.69 613.79,317.37 614.95,318.17 616.01,319.09 616.97,320.11 617.83,321.22 618.57,322.39 619.20,323.60 619.74,324.87 620.53,327.39 621.04,329.96 621.33,332.52"/>
    </edge>
    <edge id=":86_0" function="internal">
        <lane id=":86_0_0" index="0" disallow="pedestrian tram rail_urban rail rail_electric rail_fast ship" speed="11.45" length="29.66" width="3.50" shape="770.21,274.21 766.92,275.24 764.88,276.12 762.96,277.19 761.21,278.46 759.66,279.98 759.02,280.77 758.43,281.64 757.91,282.56 757.47,283.52 757.11,284.48 756.59,286.60 756.37,288.77 756.38,290.98 756.60,293.20 757.26,296.58"/>
    </edge>
    <edge id=":86_1" function="internal">
        <lane id=":86_1_0" index="0" disallow="pedestrian tram rail_urban rail rail_electric rail_fast ship" speed="36.11" length="32.11" width="3.50" shape="770.21,274.21 754.66,278.28 739.15,282.34"/>
    </edge>
    <edge id=":86_2" function="internal">
        <lane id=":86_2_0" index="0" disallow="pedestrian tram rail_urban rail rail_electric rail_fast ship" speed="36.11" length="32.07" width="3.50" shape="738.27,278.95 753.78,274.89 769.29,270.83"/>
    </edge>
    <edge id=":86_3" function="internal">
        <lane id=":86_3_0" index="0" disallow="pedestrian tram rail_urban rail rail_electric rail_fast ship" speed="11.27" length="29.37" width="3.50" shape="738.26,278.95 739.59,278.67 740.96,278.50 742.36,278.47 743.77,278.61 745.17,278.92 746.52,279.41 747.78,280.06 748.95,280.85 750.01,281.75 750.96,282.72 751.81,283.76 752.59,284.86 753.89,287.09 754.97,289.42 756.26,292.96 757.26,296.58"/>
    </edge>
    <edge id=":86_4" function="internal">
        <lane id=":86_4_0" index="0" disallow="pedestrian tram rail_urban rail rail_electric rail_fast ship" speed="10.17" length="23.76" width="3.50" shape="753.86,297.41 753.00,294.28 751.92,291.22 751.05,289.25 750.01,287.36 749.41,286.45 748.76,285.59 748.04,284.79 747.25,284.05 746.39,283.40 745.46,282.85 744.47,282.43 743.43,282.15 742.36,282.00 741.28,282.00 740.21,282.12 739.15,282.34"/>
    </edge>
    <edge id=":86_5" function="internal">
        <lane id=":86_5_0" index="0" disallow="pedestrian tram rail_urban rail rail_electric rail_fast ship" speed="12.42" length="35.14" width="3.50" shape="753.86,297.41 753.12,293.57 752.86,290.98 752.84,288.37 753.12,285.79 753.74,283.26 754.19,282.04 754.74,280.86 755.38,279.73 756.12,278.65 756.94,277.64 758.80,275.83 760.91,274.30 763.18,273.04 765.57,272.01 769.29,270.83"/>
    </edge>
    <edge id=":87_0" function="internal">
        <lane id=":87_0_0" index="0" disallow="pedestrian tram rail_urban rail rail_electric rail_fast ship" speed="36.11" length="29.57" width="3.50" shape="705.91,375.88 697.99,378.74 687.93,381.99 677.75,384.86"/>
    </edge>
    <edge id=":87_1" function="internal">
        <lane id=":87_1_0" index="0" disallow="pedestrian tram rail_urban rail rail_electric rail_fast ship" speed="10.66" length="26.83" width="3.50" shape="705.91,375.88 704.59,376.28 703.14,376.51 701.64,376.50 700.15,376.22 698.75,375.71 697.48,375.00 696.35,374.16 695.35,373.22 694.45,372.22 693.63,371.15 692.26,368.99 691.09,366.73 689.64,363.30 688.42,359.78"/>
    </edge>
    <edge id=":87_2" function="internal">
        <lane id=":87_2_0" index="0" disallow="pedestrian tram rail_urban rail rail_electric rail_fast ship" speed="9.53" length="21.17" width="3.50" shape="691.76,358.72 692.79,361.74 693.99,364.68 694.92,366.58 695.99,368.41 696.59,369.28 697.25,370.11 697.96,370.89 698.76,371.59 699.63,372.19 700.58,372.65 701.60,372.93 702.65,373.01 703.70,372.89 704.71,372.59"/>
    </edge>
    <edge id=":87_3" function="internal">
        <lane id=":87_3_0" index="0" disallow="pedestrian tram rail_urban rail rail_electric rail_fast ship" speed="11.92" length="34.43" width="3.50" shape="691.76,358.72 692.77,362.58 693.19,365.19 693.35,367.84 693.17,370.48 692.94,371.78 692.61,373.06 692.16,374.31 691.60,375.51 690.93,376.65 690.16,377.72 689.29,378.73 688.35,379.65 686.25,381.26 683.96,382.59 681.53,383.65 677.75,384.86"/>
    </edge>
    <edge id=":87_4" function="internal">
        <lane id=":87_4_0" index="0" disallow="pedestrian tram rail_urban rail rail_electric rail_fast ship" speed="10.90" length="28.58" width="3.50" shape="676.93,381.46 680.14,380.43 682.19,379.53 684.10,378.43 685.85,377.08 686.58,376.35 687.27,375.55 687.88,374.70 688.41,373.79 688.85,372.84 689.21,371.85 689.47,370.82 689.66,369.79 689.80,367.58 689.66,365.36 689.31,363.14 688.42,359.78"/>
    </edge>
    <edge id=":87_5" function="internal">
        <lane id=":87_5_0" index="0" disallow="pedestrian tram rail_urban rail rail_electric rail_fast ship" speed="36.11" length="29.17" width="3.50" shape="676.93,381.46 686.92,378.64 696.86,375.43 704.71,372.59"/>
    </edge>
    <edge id=":88_0" function="internal">
        <lane id=":88_0_0" index="0" disallow="pedestrian tram rail_urban rail rail_electric rail_fast ship" speed="5.64" length="6.54" width="3.50" shape="701.14,175.59 700.46,176.21 699.47,177.66 698.81,179.30 698.46,181.02 698.44,181.36"/>
    </edge>
    <edge id=":88_1" function="internal">
        <lane id=":88_1_0" index="0" disallow="pedestrian tram rail_urban rail rail_electric rail_fast ship" speed="6.14" length="8.19" width="3.50" shape="693.44,165.44 693.61,165.76 694.60,167.20 695.79,168.49 697.19,169.54 698.79,170.25 699.60,170.40"/>
    </edge>
    <edge id=":88_2" function="internal">
        <lane id=":88_2_0" index="0" disallow="pedestrian tram rail_urban rail rail_electric rail_fast ship" speed="36.11" length="16.74" width="3.50" shape="692.59,165.64 693.55,169.39 697.07,181.77"/>
    </edge>

    <edge id="3525" from="80" to="84" priority="3" type="highway.residential" spreadType="center" length="0.24" shape="652.48,305.74 621.15,298.27">
        <lane id="3525_0" index="0" disallow="pedestrian tram rail_urban rail rail_electric rail_fast ship" speed="36.11" length="0.24" width="3.50" customShape="1" shape="634.19,301.19 634.06,301.21 633.95,301.22"/>
    </edge>
    <edge id="3526" from="84" to="80" priority="3" type="highway.residential" spreadType="center" length="0.25" shape="621.96,294.87 653.29,302.34">
        <lane id="3526_0" index="0" disallow="pedestrian tram rail_urban rail rail_electric rail_fast ship" speed="36.11" length="0.25" width="3.50" customShape="1" shape="633.54,297.75 633.79,297.72"/>
    </edge>
    <edge id="3528" from="82" to="80" priority="3" type="highway.residential" spreadType="center" length="0.25" shape="685.68,299.60 653.21,305.76">
        <lane id="3528_0" index="0" disallow="pedestrian tram rail_urban rail rail_electric rail_fast ship" speed="36.11" length="0.25" width="3.50" customShape="1" shape="667.66,296.30 667.41,296.34"/>
    </edge>
    <edge id="3529" from="80" to="82" priority="3" type="highway.residential" spreadType="center" length="0.27" shape="652.56,302.32 685.03,296.17">
        <lane id="3529_0" index="0" disallow="pedestrian tram rail_urban rail rail_electric rail_fast ship" speed="36.11" length="0.27" width="3.50" customShape="1" shape="666.84,292.89 666.96,292.87 667.11,292.85"/>
    </edge>
    <edge id="3531" from="83" to="82" priority="3" type="highway.residential" spreadType="center" length="6.78" shape="724.01,281.72 686.01,299.49">
        <lane id="3531_0" index="0" disallow="pedestrian tram rail_urban rail rail_electric rail_fast ship" speed="36.11" length="6.78" width="3.50" customShape="1" shape="708.88,288.86 705.54,289.49 702.22,290.12"/>
    </edge>
    <edge id="3532" from="82" to="83" priority="3" type="highway.residential" spreadType="center" length="6.78" shape="684.53,296.32 722.53,278.55">
        <lane id="3532_0" index="0" disallow="pedestrian tram rail_urban rail rail_electric rail_fast ship" speed="36.11" length="6.78" width="3.50" customShape="1" shape="701.57,286.68 704.90,286.05 708.23,285.43"/>
    </edge>
    <edge id="3534" from="86" to="83" priority="3" type="highway.residential" spreadType="center" length="0.26" shape="754.60,285.13 723.03,281.91">
        <lane id="3534_0" index="0" disallow="pedestrian tram rail_urban rail rail_electric rail_fast ship" speed="36.11" length="0.26" width="3.50" customShape="1" shape="739.15,282.34 739.03,282.37 738.90,282.40"/>
    </edge>
    <edge id="3535" from="83" to="86" priority="3" type="highway.residential" spreadType="center" length="0.26" shape="723.38,278.43 754.95,281.65">
        <lane id="3535_0" index="0" disallow="pedestrian tram rail_urban rail rail_electric rail_fast ship" speed="36.11" length="0.26" width="3.50" customShape="1" shape="738.04,279.01 738.14,278.99 738.29,278.95"/>
    </edge>
    <edge id="3537" from="69" to="86" priority="3" type="highway.residential" spreadType="center" length="70.03" shape="837.78,255.93 755.23,285.04">