<!-- generated on Tue Feb  9 22:15:40 2021 by Eclipse SUMO netconvert Version 1.8.0
<configuration xmlns:xsi="http://www.w3.org/2001/XMLSchema-instance" xsi:noNamespaceSchemaLocation="http://sumo.dlr.de/xsd/netconvertConfiguration.xsd">

    <input>
        <node-files value="./converted_scenarios/scenario-factory/HRV_Pula-32_2_I-1-1/HRV_Pula-32_2_I-1-1.nod.xml"/>
        <edge-files value="./converted_scenarios/scenario-factory/HRV_Pula-32_2_I-1-1/HRV_Pula-32_2_I-1-1.edg.xml"/>
        <connection-files value="./converted_scenarios/scenario-factory/HRV_Pula-32_2_I-1-1/HRV_Pula-32_2_I-1-1.con.xml"/>
        <tllogic-files value="./converted_scenarios/scenario-factory/HRV_Pula-32_2_I-1-1/HRV_Pula-32_2_I-1-1.tll.xml"/>
        <type-files value="/home/zen/commonroad-interactive-benchmarks/install/commonroad-map-tool/crmapconverter/sumo_map/templates/DEU.typ.xml"/>
    </input>

    <output>
        <output-file value="./converted_scenarios/scenario-factory/HRV_Pula-32_2_I-1-1/HRV_Pula-32_2_I-1-1.net.xml"/>
    </output>

    <processing>
        <geometry.remove.keep-edges.explicit value="true"/>
        <geometry.avoid-overlap value="true"/>
        <offset.disable-normalization value="true"/>
    </processing>

    <junctions>
        <no-turnarounds value="true"/>
        <junctions.internal-link-detail value="20"/>
    </junctions>

    <report>
        <aggregate-warnings value="5"/>
    </report>

    <random_number>
        <seed value="1234"/>
    </random_number>

</configuration>
--><net xmlns:xsi="http://www.w3.org/2001/XMLSchema-instance" version="1.6" junctionCornerDetail="5" junctionLinkDetail="20" limitTurnSpeed="5.50" xsi:noNamespaceSchemaLocation="http://sumo.dlr.de/xsd/net_file.xsd">

    <location netOffset="0.00,0.00" convBoundary="-76.84,56.01,228.12,519.68" origBoundary="-76.84,56.01,228.12,519.68" projParameter="!"/>

    <type id="highway.bridleway" priority="1" speed="2.78" allow="pedestrian" oneway="1" width="2.00"/>
    <type id="highway.bus_guideway" priority="1" speed="27.78" allow="bus" oneway="1"/>
    <type id="highway.cycleway" priority="1" speed="8.33" allow="bicycle" oneway="0" width="1.00"/>
    <type id="highway.footway" priority="1" speed="2.78" allow="pedestrian" oneway="1" width="2.00"/>
    <type id="highway.ford" priority="1" speed="2.78" allow="army" oneway="0"/>
    <type id="highway.living_street" priority="2" speed="2.78" disallow="tram rail_urban rail rail_electric rail_fast ship" oneway="0"/>
    <type id="highway.motorway" priority="14" speed="39.44" allow="private emergency authority army vip passenger hov taxi bus coach delivery truck trailer motorcycle evehicle custom1 custom2" oneway="1"/>
    <type id="highway.motorway_link" priority="9" speed="22.22" allow="private emergency authority army vip passenger hov taxi bus coach delivery truck trailer motorcycle evehicle custom1 custom2" oneway="1"/>
    <type id="highway.path" priority="1" speed="2.78" allow="pedestrian bicycle" oneway="0" width="2.00"/>
    <type id="highway.pedestrian" priority="1" speed="2.78" allow="pedestrian" oneway="1" width="2.00"/>
    <type id="highway.primary" priority="12" speed="27.78" disallow="pedestrian tram rail_urban rail rail_electric rail_fast ship" oneway="0"/>
    <type id="highway.primary_link" priority="7" speed="22.22" disallow="pedestrian tram rail_urban rail rail_electric rail_fast ship" oneway="0"/>
    <type id="highway.raceway" priority="15" speed="83.33" allow="vip" oneway="0"/>
    <type id="highway.residential" priority="3" speed="13.89" disallow="pedestrian tram rail_urban rail rail_electric rail_fast ship" oneway="0"/>
    <type id="highway.secondary" priority="11" speed="27.78" disallow="pedestrian tram rail_urban rail rail_electric rail_fast ship" oneway="0"/>
    <type id="highway.secondary_link" priority="6" speed="22.22" disallow="pedestrian tram rail_urban rail rail_electric rail_fast ship" oneway="0"/>
    <type id="highway.service" priority="1" speed="5.56" allow="pedestrian delivery bicycle" oneway="0"/>
    <type id="highway.stairs" priority="1" speed="1.39" allow="pedestrian" oneway="1" width="2.00"/>
    <type id="highway.step" priority="1" speed="1.39" allow="pedestrian" oneway="1" width="2.00"/>
    <type id="highway.steps" priority="1" speed="1.39" allow="pedestrian" oneway="1" width="2.00"/>
    <type id="highway.tertiary" priority="10" speed="22.22" disallow="pedestrian tram rail_urban rail rail_electric rail_fast ship" oneway="0"/>
    <type id="highway.tertiary_link" priority="5" speed="22.22" disallow="pedestrian tram rail_urban rail rail_electric rail_fast ship" oneway="0"/>
    <type id="highway.track" priority="1" speed="5.56" allow="pedestrian motorcycle moped bicycle" oneway="0"/>
    <type id="highway.trunk" priority="13" speed="27.78" disallow="pedestrian bicycle tram rail_urban rail rail_electric rail_fast ship" oneway="0"/>
    <type id="highway.trunk_link" priority="8" speed="22.22" disallow="pedestrian bicycle tram rail_urban rail rail_electric rail_fast ship" oneway="0"/>
    <type id="highway.unclassified" priority="4" speed="13.89" disallow="pedestrian tram rail_urban rail rail_electric rail_fast ship" oneway="0"/>
    <type id="highway.unsurfaced" priority="1" speed="8.33" disallow="tram rail_urban rail rail_electric rail_fast ship" oneway="0"/>
    <type id="railway.highspeed" priority="21" speed="69.44" allow="rail_fast" oneway="1"/>
    <type id="railway.light_rail" priority="19" speed="27.78" allow="rail_urban" oneway="1"/>
    <type id="railway.preserved" priority="16" speed="27.78" allow="rail" oneway="1"/>
    <type id="railway.rail" priority="20" speed="44.44" allow="rail" oneway="1"/>
    <type id="railway.subway" priority="18" speed="27.78" allow="rail_urban" oneway="1"/>
    <type id="railway.tram" priority="17" speed="13.89" allow="tram" oneway="1"/>

    <edge id=":77_0" function="internal">
        <lane id=":77_0_0" index="0" disallow="pedestrian tram rail_urban rail rail_electric rail_fast ship" speed="10.65" length="30.40" width="3.50" shape="199.17,232.90 198.25,230.55 197.20,228.35 195.98,226.28 194.54,224.39 193.77,223.59 192.92,222.84 192.03,222.20 191.08,221.67 190.08,221.25 189.04,220.96 187.97,220.80 186.87,220.75 185.75,220.82 184.63,221.00 183.53,221.26 181.27,222.05 179.10,223.09 175.93,225.00"/>
    </edge>
    <edge id=":77_1" function="internal">
        <lane id=":77_1_0" index="0" disallow="pedestrian tram rail_urban rail rail_electric rail_fast ship" speed="36.11" length="40.01" width="3.50" shape="199.17,232.90 198.80,231.87 186.17,195.06"/>
    </edge>
    <edge id=":77_2" function="internal">
        <lane id=":77_2_0" index="0" disallow="pedestrian tram rail_urban rail rail_electric rail_fast ship" speed="36.11" length="39.89" width="3.50" shape="189.49,193.93 202.10,230.70 202.44,231.66"/>
    </edge>
    <edge id=":77_3" function="internal">
        <lane id=":77_3_0" index="0" disallow="pedestrian tram rail_urban rail rail_electric rail_fast ship" speed="14.11" length="36.84" width="3.50" shape="189.49,193.93 190.18,196.29 190.65,198.71 190.88,201.19 190.83,203.69 190.49,206.18 189.85,208.61 188.95,210.94 187.81,213.14 186.46,215.22 184.17,218.05 181.60,220.61 178.84,222.91 175.93,225.00"/>
    </edge>
    <edge id=":77_4" function="internal">
        <lane id=":77_4_0" index="0" disallow="pedestrian tram rail_urban rail rail_electric rail_fast ship" speed="13.22" length="32.24" width="3.50" shape="173.98,222.10 176.61,220.21 179.09,218.15 181.38,215.89 183.43,213.40 184.62,211.61 185.62,209.71 186.42,207.72 186.99,205.64 187.30,203.52 187.36,201.37 187.18,199.23 186.77,197.12 186.17,195.06"/>
    </edge>
    <edge id=":77_5" function="internal">
        <lane id=":77_5_0" index="0" disallow="pedestrian tram rail_urban rail rail_electric rail_fast ship" speed="11.69" length="36.91" width="3.50" shape="173.98,222.10 177.63,219.89 180.19,218.67 182.87,217.73 184.25,217.40 185.66,217.18 187.07,217.09 188.49,217.14 189.89,217.36 191.26,217.74 192.57,218.28 193.81,218.97 194.97,219.80 196.03,220.73 197.02,221.76 198.74,224.01 200.18,226.46 201.40,229.02 202.44,231.66"/>
    </edge>
    <edge id=":78_0" function="internal">
        <lane id=":78_0_0" index="0" disallow="pedestrian tram rail_urban rail rail_electric rail_fast ship" speed="9.71" length="24.29" width="3.48" shape="63.49,236.59 63.31,235.32 62.66,231.75 61.73,228.29 60.93,226.12 59.90,224.07 59.32,223.18 58.67,222.34 57.95,221.60 57.16,220.99 56.33,220.52 55.44,220.19 54.50,220.00 53.51,219.96 52.49,220.05 51.45,220.26 50.40,220.58"/>
    </edge>
    <edge id=":78_1" function="internal">
        <lane id=":78_1_0" index="0" disallow="pedestrian tram rail_urban rail rail_electric rail_fast ship" speed="36.11" length="39.36" width="3.50" shape="63.49,236.59 63.34,235.45 62.74,229.26 62.29,220.99 62.12,210.67 62.32,197.28"/>
    </edge>
    <edge id=":78_2" function="internal">
        <lane id=":78_2_0" index="0" disallow="pedestrian tram rail_urban rail rail_electric rail_fast ship" speed="36.11" length="38.72" width="3.50" shape="65.82,197.36 65.62,210.62 65.79,220.81 66.22,228.95 66.82,235.04 66.94,236.03"/>
    </edge>
    <edge id=":78_3" function="internal">
        <lane id=":78_3_0" index="0" disallow="pedestrian tram rail_urban rail rail_electric rail_fast ship" speed="13.38" length="29.89" width="3.48" shape="65.82,197.36 65.77,198.56 65.41,202.02 64.68,205.46 63.93,207.74 62.96,209.94 61.76,212.04 60.31,213.99 58.63,215.75 56.76,217.29 54.74,218.61 52.61,219.70 50.40,220.58"/>
    </edge>
    <edge id=":78_4" function="internal">
        <lane id=":78_4_0" index="0" disallow="pedestrian tram rail_urban rail rail_electric rail_fast ship" speed="12.37" length="25.67" width="3.50" shape="49.21,217.29 51.15,216.52 52.97,215.58 54.69,214.45 56.26,213.14 57.67,211.64 58.88,209.99 59.89,208.21 60.71,206.32 61.33,204.37 61.96,201.36 62.28,198.30 62.32,197.28"/>
    </edge>
    <edge id=":78_5" function="internal">
        <lane id=":78_5_0" index="0" disallow="pedestrian tram rail_urban rail rail_electric rail_fast ship" speed="10.87" length="30.59" width="3.50" shape="49.21,217.29 50.57,216.87 51.93,216.57 53.31,216.41 54.70,216.42 56.08,216.61 57.41,217.01 58.66,217.61 59.80,218.39 60.83,219.33 61.74,220.38 62.54,221.52 63.85,223.97 64.87,226.55 65.98,230.57 66.75,234.67 66.94,236.03"/>
    </edge>
    <edge id=":79_0" function="internal">
        <lane id=":79_0_0" index="0" disallow="pedestrian tram rail_urban rail rail_electric rail_fast ship" speed="11.93" length="27.78" width="3.50" shape="143.33,337.14 140.25,336.26 138.14,335.89 136.01,335.73 133.87,335.81 131.77,336.16 129.72,336.79 127.79,337.70 125.99,338.86 124.35,340.23 122.87,341.76 121.53,343.43 119.77,346.11"/>
    </edge>
    <edge id=":79_1" function="internal">
        <lane id=":79_1_0" index="0" disallow="pedestrian tram rail_urban rail rail_electric rail_fast ship" speed="36.11" length="36.84" width="3.49" shape="143.33,337.14 137.42,334.92 131.63,332.41 125.98,329.60 120.48,326.51 114.24,322.60 110.75,320.20"/>
    </edge>
    <edge id=":79_2" function="internal">
        <lane id=":79_2_0" index="0" disallow="pedestrian tram rail_urban rail rail_electric rail_fast ship" speed="36.11" length="35.82" width="3.50" shape="112.79,317.35 116.17,319.68 122.25,323.50 127.61,326.50 133.10,329.23 138.72,331.68 144.46,333.82"/>
    </edge>
    <edge id=":79_3" function="internal">
        <lane id=":79_3_0" index="0" disallow="pedestrian tram rail_urban rail rail_electric rail_fast ship" speed="12.42" length="33.30" width="3.50" shape="112.79,317.35 115.82,319.73 117.68,321.49 119.37,323.41 120.84,325.51 122.02,327.78 122.86,330.20 123.14,331.45 123.32,332.72 123.37,335.27 123.06,337.81 122.42,340.29 121.52,342.69 120.40,344.99 119.77,346.11"/>
    </edge>
    <edge id=":79_4" function="internal">
        <lane id=":79_4_0" index="0" disallow="pedestrian tram rail_urban rail rail_electric rail_fast ship" speed="11.44" length="28.04" width="3.49" shape="116.76,344.33 117.28,343.39 118.26,341.39 119.02,339.35 119.56,337.27 119.81,335.17 119.76,333.05 119.61,332.05 119.39,331.07 118.69,329.06 117.70,327.19 116.47,325.43 115.03,323.80 113.43,322.29 110.75,320.20"/>
    </edge>
    <edge id=":79_5" function="internal">
        <lane id=":79_5_0" index="0" disallow="pedestrian tram rail_urban rail rail_electric rail_fast ship" speed="12.89" length="32.60" width="3.50" shape="116.76,344.33 118.76,341.28 120.32,339.34 122.06,337.54 124.00,335.93 126.14,334.55 128.47,333.47 130.92,332.71 133.44,332.29 135.97,332.20 138.47,332.39 140.93,332.82 144.46,333.82"/>
    </edge>
    <edge id=":80_0" function="internal">
        <lane id=":80_0_0" index="0" disallow="pedestrian tram rail_urban rail rail_electric rail_fast ship" speed="36.11" length="33.60" width="3.50" shape="39.94,450.04 39.85,449.06 39.26,445.06 38.14,440.12 36.68,435.26 34.93,430.47 32.51,424.83 29.33,418.37"/>
    </edge>
    <edge id=":80_1" function="internal">
        <lane id=":80_1_0" index="0" disallow="pedestrian tram rail_urban rail rail_electric rail_fast ship" speed="12.77" length="33.07" width="3.50" shape="39.94,450.04 39.82,446.32 39.99,443.80 40.41,441.29 41.13,438.83 42.17,436.45 43.54,434.24 45.22,432.25 47.14,430.52 49.25,429.06 51.49,427.87 53.82,426.89 57.36,425.81"/>
    </edge>
    <edge id=":80_2" function="internal">
        <lane id=":80_2_0" index="0" disallow="pedestrian tram rail_urban rail rail_electric rail_fast ship" speed="11.80" length="28.10" width="3.50" shape="58.23,429.20 55.11,430.15 53.12,430.98 51.21,432.00 49.43,433.23 47.82,434.67 46.43,436.32 45.29,438.15 44.43,440.13 43.82,442.20 43.46,444.33 43.32,446.49 43.43,449.73"/>
    </edge>
    <edge id=":80_3" function="internal">
        <lane id=":80_3_0" index="0" disallow="pedestrian tram rail_urban rail rail_electric rail_fast ship" speed="13.17" length="33.75" width="3.50" shape="58.23,429.20 54.54,429.97 50.82,430.39 48.32,430.44 45.83,430.27 43.37,429.85 40.97,429.15 38.68,428.16 36.54,426.87 34.58,425.32 32.83,423.55 31.29,421.58 29.94,419.48 29.33,418.37"/>
    </edge>
    <edge id=":80_4" function="internal">
        <lane id=":80_4_0" index="0" disallow="pedestrian tram rail_urban rail rail_electric rail_fast ship" speed="12.23" length="29.02" width="3.50" shape="32.44,416.76 32.95,417.70 34.13,419.53 35.45,421.20 36.94,422.70 38.60,423.99 40.40,425.06 42.33,425.88 44.37,426.45 46.48,426.80 48.63,426.93 50.80,426.88 54.10,426.49 57.36,425.81"/>
    </edge>
    <edge id=":80_5" function="internal">
        <lane id=":80_5_0" index="0" disallow="pedestrian tram rail_urban rail rail_electric rail_fast ship" speed="36.11" length="34.97" width="3.50" shape="32.44,416.76 35.71,423.42 38.21,429.26 40.03,434.24 41.55,439.31 42.71,444.48 43.32,448.67 43.43,449.73"/>
    </edge>
    <edge id=":81_0" function="internal">
        <lane id=":81_0_0" index="0" disallow="pedestrian tram rail_urban rail rail_electric rail_fast ship" speed="11.51" length="28.02" width="3.45" shape="91.69,304.25 89.52,301.62 87.25,299.34 85.59,297.98 83.81,296.79 81.90,295.82 79.87,295.14 78.82,294.92 77.76,294.79 76.69,294.75 75.62,294.80 73.51,295.16 71.47,295.83 69.54,296.75 67.73,297.85"/>
    </edge>
    <edge id=":81_1" function="internal">
        <lane id=":81_1_0" index="0" disallow="pedestrian tram rail_urban rail rail_electric rail_fast ship" speed="36.11" length="42.24" width="3.50" shape="91.69,304.25 89.93,301.40 85.62,292.98 76.57,273.99 73.03,266.38"/>
    </edge>
    <edge id=":81_2" function="internal">
        <lane id=":81_2_0" index="0" disallow="pedestrian tram rail_urban rail rail_electric rail_fast ship" speed="12.50" length="38.89" width="3.50" shape="91.69,304.25 90.08,301.99 88.77,299.76 87.71,297.41 86.94,294.95 86.54,292.40 86.49,291.12 86.55,289.83 86.72,288.55 87.00,287.29 87.84,284.85 89.02,282.56 90.47,280.43 92.14,278.45 94.91,275.76 97.93,273.34 100.04,271.85"/>
    </edge>
    <edge id=":81_3" function="internal">
        <lane id=":81_3_0" index="0" disallow="pedestrian tram rail_urban rail rail_electric rail_fast ship" speed="11.52" length="32.92" width="3.50" shape="101.99,274.75 100.12,276.07 97.43,278.22 94.97,280.59 93.54,282.27 92.29,284.07 91.28,285.97 90.55,288.00 90.32,288.99 90.17,290.02 90.11,291.06 90.13,292.07 90.43,294.19 91.05,296.24 91.94,298.23 93.06,300.15 94.36,302.01"/>
    </edge>
    <edge id=":81_4" function="internal">
        <lane id=":81_4_0" index="0" disallow="pedestrian tram rail_urban rail rail_electric rail_fast ship" speed="36.11" length="41.32" width="3.45" shape="101.99,274.75 84.85,286.31 67.73,297.85"/>
    </edge>
    <edge id=":81_5" function="internal">
        <lane id=":81_5_0" index="0" disallow="pedestrian tram rail_urban rail rail_electric rail_fast ship" speed="11.80" length="35.88" width="3.50" shape="101.99,274.75 99.74,276.16 97.37,277.40 94.85,278.43 92.21,279.15 90.79,279.37 89.37,279.46 87.94,279.42 86.50,279.23 85.09,278.88 83.73,278.39 82.43,277.76 81.21,277.01 80.07,276.17 79.02,275.24 78.04,274.23 76.34,272.13 74.86,269.87 73.03,266.38"/>
    </edge>
    <edge id=":81_6" function="internal">
        <lane id=":81_6_0" index="0" disallow="pedestrian tram rail_urban rail rail_electric rail_fast ship" speed="10.77" length="29.69" width="3.50" shape="76.20,264.89 77.79,267.92 79.04,269.84 80.47,271.61 81.27,272.43 82.12,273.19 83.04,273.87 84.01,274.47 85.04,274.97 86.11,275.36 87.22,275.64 88.35,275.79 89.49,275.82 90.63,275.75 91.76,275.58 93.97,274.98 96.08,274.12 98.10,273.06 100.04,271.85"/>
    </edge>
    <edge id=":81_7" function="internal">
        <lane id=":81_7_0" index="0" disallow="pedestrian tram rail_urban rail rail_electric rail_fast ship" speed="36.11" length="41.34" width="3.50" shape="76.20,264.89 79.71,272.44 88.65,291.23 92.87,299.52 94.36,302.01"/>
    </edge>
    <edge id=":81_8" function="internal">
        <lane id=":81_8_0" index="0" disallow="pedestrian tram rail_urban rail rail_electric rail_fast ship" speed="13.62" length="37.70" width="3.45" shape="76.20,264.89 76.69,265.99 77.96,269.31 78.90,272.77 79.30,275.18 79.47,277.62 79.40,280.09 79.04,282.54 78.38,284.94 77.45,287.24 76.25,289.40 74.83,291.41 73.22,293.27 70.58,295.72 67.73,297.85"/>
    </edge>
    <edge id=":81_9" function="internal">
        <lane id=":81_9_0" index="0" disallow="pedestrian tram rail_urban rail rail_electric rail_fast ship" speed="12.71" length="32.71" width="3.50" shape="65.77,294.96 68.29,293.07 70.61,290.91 71.99,289.31 73.21,287.59 74.23,285.73 75.02,283.78 75.57,281.74 75.87,279.65 75.93,277.53 75.77,275.43 75.42,273.34 74.59,270.28 73.46,267.32 73.03,266.38"/>
    </edge>
    <edge id=":81_10" function="internal">
        <lane id=":81_10_0" index="0" disallow="pedestrian tram rail_urban rail rail_electric rail_fast ship" speed="36.11" length="41.33" width="3.50" shape="65.77,294.96 82.89,283.41 100.04,271.85"/>
    </edge>
    <edge id=":81_11" function="internal">
        <lane id=":81_11_0" index="0" disallow="pedestrian tram rail_urban rail rail_electric rail_fast ship" speed="12.51" length="33.23" width="3.50" shape="65.77,294.96 67.90,293.65 70.20,292.55 72.65,291.73 75.18,291.26 76.54,291.18 77.86,291.21 79.18,291.35 80.51,291.61 82.96,292.40 85.29,293.54 87.42,294.94 89.38,296.53 92.00,299.14 94.36,302.01"/>
    </edge>
    <edge id=":82_0" function="internal">
        <lane id=":82_0_0" index="0" disallow="pedestrian tram rail_urban rail rail_electric rail_fast ship" speed="11.77" length="30.18" width="3.50" shape="84.04,131.73 80.82,132.10 78.71,132.56 76.67,133.24 74.71,134.15 72.90,135.32 71.29,136.74 69.90,138.39 68.76,140.22 67.88,142.18 67.22,144.24 66.77,146.35 66.41,149.56 66.34,151.71"/>
    </edge>
    <edge id=":82_1" function="internal">
        <lane id=":82_1_0" index="0" disallow="pedestrian tram rail_urban rail rail_electric rail_fast ship" speed="36.11" length="40.27" width="3.50" shape="84.04,131.73 75.84,132.35 61.48,133.85 43.97,135.73"/>
    </edge>
    <edge id=":82_2" function="internal">
        <lane id=":82_2_0" index="0" disallow="pedestrian tram rail_urban rail rail_electric rail_fast ship" speed="12.13" length="34.54" width="3.50" shape="84.04,131.73 80.05,131.76 77.41,131.50 74.81,130.97 72.30,130.10 71.10,129.52 69.96,128.85 68.88,128.08 67.87,127.21 66.95,126.26 66.12,125.22 65.38,124.12 64.17,121.76 63.29,119.26 62.69,116.67 62.33,114.04 62.17,111.37"/>
    </edge>
    <edge id=":82_3" function="internal">
        <lane id=":82_3_0" index="0" disallow="pedestrian tram rail_urban rail rail_electric rail_fast ship" speed="11.12" length="28.84" width="3.50" shape="65.66,111.24 65.81,113.59 66.12,115.86 66.62,118.06 67.35,120.15 68.36,122.11 68.94,122.98 69.60,123.80 70.33,124.57 71.13,125.26 71.99,125.87 72.91,126.41 73.85,126.87 75.94,127.60 78.12,128.05 80.35,128.26 83.81,128.23"/>
    </edge>
    <edge id=":82_4" function="internal">
        <lane id=":82_4_0" index="0" disallow="pedestrian tram rail_urban rail rail_electric rail_fast ship" speed="36.11" length="40.48" width="3.50" shape="65.66,111.24 66.24,136.16 66.34,151.71"/>
    </edge>
    <edge id=":82_5" function="internal">
        <lane id=":82_5_0" index="0" disallow="pedestrian tram rail_urban rail rail_electric rail_fast ship" speed="12.93" length="37.02" width="3.50" shape="65.66,111.24 65.60,115.11 65.33,117.64 64.84,120.14 64.10,122.58 63.08,124.92 61.75,127.09 60.13,129.06 58.24,130.77 56.14,132.20 53.87,133.36 51.48,134.26 49.02,134.93 45.26,135.59 43.97,135.73"/>
    </edge>
    <edge id=":82_6" function="internal">
        <lane id=":82_6_0" index="0" disallow="pedestrian tram rail_urban rail rail_electric rail_fast ship" speed="11.98" length="31.64" width="3.50" shape="43.66,132.24 44.76,132.13 48.11,131.54 50.23,130.96 52.27,130.19 54.19,129.21 55.96,128.02 57.53,126.60 58.87,124.97 59.97,123.16 60.83,121.20 61.46,119.13 61.88,116.97 62.11,114.77 62.17,111.37"/>
    </edge>
    <edge id=":82_7" function="internal">
        <lane id=":82_7_0" index="0" disallow="pedestrian tram rail_urban rail rail_electric rail_fast ship" speed="36.11" length="40.35" width="3.50" shape="43.66,132.24 61.15,130.36 75.56,128.86 83.81,128.23"/>
    </edge>
    <edge id=":82_8" function="internal">
        <lane id=":82_8_0" index="0" disallow="pedestrian tram rail_urban rail rail_electric rail_fast ship" speed="11.92" length="35.11" width="3.50" shape="43.66,132.24 47.71,132.05 50.41,132.18 53.08,132.56 55.69,133.25 56.95,133.74 58.17,134.32 59.33,135.01 60.42,135.81 61.42,136.72 62.33,137.71 63.14,138.79 63.84,139.95 64.44,141.15 65.36,143.69 65.94,146.33 66.25,149.01 66.34,151.71"/>
    </edge>
    <edge id=":82_9" function="internal">
        <lane id=":82_9_0" index="0" disallow="pedestrian tram rail_urban rail rail_electric rail_fast ship" speed="10.90" length="29.18" width="3.50" shape="62.84,151.71 62.76,149.37 62.50,147.08 62.01,144.88 61.24,142.76 60.76,141.82 60.20,140.91 59.56,140.06 58.84,139.28 58.05,138.57 57.18,137.95 56.26,137.40 55.28,136.93 54.28,136.55 52.09,135.97 49.83,135.66 47.52,135.56 43.97,135.73"/>
    </edge>
    <edge id=":82_10" function="internal">
        <lane id=":82_10_0" index="0" disallow="pedestrian tram rail_urban rail rail_electric rail_fast ship" speed="36.11" length="40.35" width="3.50" shape="62.84,151.71 62.74,136.20 62.17,111.37"/>
    </edge>
    <edge id=":82_11" function="internal">
        <lane id=":82_11_0" index="0" disallow="pedestrian tram rail_urban rail rail_electric rail_fast ship" speed="12.74" length="35.51" width="3.50" shape="62.84,151.71 62.92,149.23 63.34,145.57 63.87,143.11 64.65,140.70 65.71,138.36 67.09,136.17 68.78,134.18 70.74,132.47 72.93,131.08 75.25,129.99 77.67,129.20 80.13,128.66 83.81,128.23"/>
    </edge>
    <edge id=":83_0" function="internal">
        <lane id=":83_0_0" index="0" disallow="pedestrian tram rail_urban rail rail_electric rail_fast ship" speed="18.00" length="34.16" width="3.50" shape="52.57,219.80 49.27,221.15 48.48,221.80 47.13,223.33 45.39,225.84 43.35,229.37 41.04,233.92 38.07,240.41 34.91,247.93"/>
    </edge>
    <edge id=":83_1" function="internal">
        <lane id=":83_1_0" index="0" disallow="pedestrian tram rail_urban rail rail_electric rail_fast ship" speed="36.11" length="37.37" width="3.50" shape="52.57,219.80 45.02,221.86 38.84,223.22 30.60,225.01 18.23,227.67 16.15,228.12"/>
    </edge>
    <edge id=":83_2" function="internal">
        <lane id=":83_2_0" index="0" disallow="pedestrian tram rail_urban rail rail_electric rail_fast ship" speed="36.11" length="36.96" width="3.50" shape="15.34,224.72 17.51,224.26 29.84,221.81 38.01,220.12 44.08,218.70 51.36,216.54"/>
    </edge>
    <edge id=":83_3" function="internal">
        <lane id=":83_3_0" index="0" disallow="pedestrian tram rail_urban rail rail_electric rail_fast ship" speed="11.39" length="43.65" width="3.50" shape="15.34,224.71 20.38,223.82 23.72,223.50 27.07,223.48 28.74,223.62 30.39,223.91 32.00,224.37 33.54,225.03 34.94,225.95 36.14,227.11 37.08,228.50 37.73,230.04 38.12,231.67 38.29,233.33 38.28,235.01 38.13,236.68 37.53,239.98 36.63,243.21 34.91,247.93"/>
    </edge>
    <edge id=":83_4" function="internal">
        <lane id=":83_4_0" index="0" disallow="pedestrian tram rail_urban rail rail_electric rail_fast ship" speed="10.30" length="35.38" width="3.50" shape="31.65,246.64 33.17,242.50 33.94,239.74 34.45,236.93 34.57,235.59 34.57,234.25 34.45,232.96 34.16,231.75 33.70,230.65 33.06,229.69 32.23,228.89 31.23,228.25 30.09,227.76 28.84,227.41 27.52,227.18 26.18,227.06 23.33,227.08 20.48,227.35 16.15,228.12"/>
    </edge>
    <edge id=":83_5" function="internal">
        <lane id=":83_5_0" index="0" disallow="pedestrian tram rail_urban rail rail_electric rail_fast ship" speed="18.63" length="37.04" width="3.50" shape="31.65,246.64 35.01,238.70 38.19,231.86 40.70,227.05 42.98,223.29 44.99,220.57 46.63,218.86 47.69,218.04 51.36,216.54"/>
    </edge>
    <edge id=":84_0" function="internal">
        <lane id=":84_0_0" index="0" disallow="pedestrian tram rail_urban rail rail_electric rail_fast ship" speed="24.86" length="54.27" width="3.50" shape="202.59,396.28 201.25,392.35 198.35,384.55 195.54,377.86 192.89,372.25 189.96,366.81 187.25,362.47 184.87,359.17 182.26,356.08 180.15,353.97 177.87,352.08 175.38,350.44"/>
    </edge>
    <edge id=":84_1" function="internal">
        <lane id=":84_1_0" index="0" disallow="pedestrian tram rail_urban rail rail_electric rail_fast ship" speed="24.87" length="55.60" width="3.50" shape="202.59,396.28 201.62,393.26 199.88,387.17 198.45,380.98 197.54,375.75 196.94,370.46 196.69,365.13 196.79,360.83 197.20,356.55 197.95,352.30 199.06,348.13 200.17,345.05 201.51,342.07"/>
    </edge>
    <edge id=":84_2" function="internal">
        <lane id=":84_2_0" index="0" disallow="pedestrian tram rail_urban rail rail_electric rail_fast ship" speed="24.26" length="52.91" width="3.50" shape="204.66,343.59 203.40,346.41 202.37,349.28 201.33,353.21 200.64,357.22 200.27,361.27 200.19,365.33 200.44,370.41 201.04,375.46 201.92,380.46 203.30,386.41 204.98,392.27 205.91,395.18"/>
    </edge>
    <edge id=":84_3" function="internal">
        <lane id=":84_3_0" index="0" disallow="pedestrian tram rail_urban rail rail_electric rail_fast ship" speed="36.11" length="57.02" width="3.50" shape="204.66,343.59 187.48,377.90 180.80,390.76 178.75,394.38"/>
    </edge>
    <edge id=":84_4" function="internal">
        <lane id=":84_4_0" index="0" disallow="pedestrian tram rail_urban rail rail_electric rail_fast ship" speed="12.04" length="34.94" width="3.50" shape="204.66,343.59 203.35,345.98 201.85,348.20 200.11,350.24 199.14,351.16 198.09,352.00 196.98,352.75 195.81,353.40 194.58,353.94 193.31,354.35 192.00,354.65 190.67,354.82 189.33,354.87 186.66,354.68 184.03,354.14 181.48,353.33 177.79,351.73 175.38,350.44"/>
    </edge>
    <edge id=":84_5" function="internal">
        <lane id=":84_5_0" index="0" disallow="pedestrian tram rail_urban rail rail_electric rail_fast ship" speed="11.02" length="29.12" width="3.50" shape="177.09,347.39 179.21,348.53 182.44,349.94 184.61,350.63 186.81,351.10 189.05,351.28 190.10,351.24 191.17,351.12 192.21,350.90 193.22,350.58 194.20,350.17 195.13,349.66 196.02,349.07 196.87,348.40 197.65,347.67 199.13,345.97 200.40,344.09 201.51,342.07"/>
    </edge>
    <edge id=":84_6" function="internal">
        <lane id=":84_6_0" index="0" disallow="pedestrian tram rail_urban rail rail_electric rail_fast ship" speed="25.50" length="56.85" width="3.50" shape="177.10,347.39 179.84,349.18 182.32,351.22 184.61,353.48 187.39,356.74 189.92,360.20 192.78,364.73 195.85,370.37 198.62,376.18 201.53,383.09 204.52,391.12 205.91,395.18"/>
    </edge>
    <edge id=":84_7" function="internal">
        <lane id=":84_7_0" index="0" disallow="pedestrian tram rail_urban rail rail_electric rail_fast ship" speed="14.81" length="53.77" width="3.50" shape="177.09,347.39 179.27,348.74 181.27,350.23 183.12,351.91 184.78,353.78 186.19,355.83 187.33,358.06 188.17,360.41 188.71,362.84 188.96,365.33 188.95,367.83 188.73,370.31 188.03,373.99 187.00,377.59 185.70,381.11 183.65,385.66 181.31,390.08 178.75,394.38"/>
    </edge>
    <edge id=":84_8" function="internal">
        <lane id=":84_8_0" index="0" disallow="pedestrian tram rail_urban rail rail_electric rail_fast ship" speed="13.99" length="47.93" width="3.50" shape="175.83,392.45 178.17,388.52 180.34,384.43 182.26,380.24 183.47,377.03 184.44,373.77 185.12,370.45 185.36,368.26 185.40,366.07 185.23,363.90 184.82,361.79 184.15,359.76 183.23,357.85 182.05,356.06 180.65,354.43 179.06,352.96 177.30,351.64 175.38,350.44"/>
    </edge>
    <edge id=":84_9" function="internal">
        <lane id=":84_9_0" index="0" disallow="pedestrian tram rail_urban rail rail_electric rail_fast ship" speed="36.11" length="56.56" width="3.50" shape="175.82,392.45 177.77,389.01 184.41,376.22 201.51,342.07"/>
    </edge>
    <edge id=":85_0" function="internal">