<routes>
	<vehicle depart="0.1" departLane="0" departPos="9.42578003697956" departSpeed="0.1017777" id="31" type="passenger">
		<route edges=":19_8 95639"/>
	</vehicle>
	<vehicle depart="0.1" departLane="0" departPos="25.927695943107622" departSpeed="9.4517212" id="39" type="passenger">
		<route edges=":19_1 95357"/>
	</vehicle>
	<vehicle depart="0.1" departLane="0" departPos="4.759112062381489" departSpeed="1.9210868" id="312" type="passenger">
		<route edges=":19_2 96030"/>
	</vehicle>
	<vehicle depart="0.1" departLane="0" departPos="28.555354763067392" departSpeed="9.9508598" id="317" type="passenger">
		<route edges=":19_4 95639"/>
	</vehicle>
	<vehicle depart="0.1" departLane="0" departPos="32.12132706905736" departSpeed="14.052296" id="325" type="passenger">
		<route edges="95638 96030"/>
	</vehicle>
	<vehicle depart="0.1" departLane="0" departPos="19.505930309377966" departSpeed="13.324854" id="326" type="passenger">
		<route edges="95638 96062"/>
	</vehicle>
	<vehicle depart="0.1" departLane="0" departPos="16.523053281125666" departSpeed="0.4279959" id="318" type="truck">
		<route edges="96037 95636 95639"/>
	</vehicle>
</routes>
