<!-- generated on 2020-12-18 15:44:11.923975 by ipykernel_launcher.py v1_2_0+5214-53edc58fcd
-->
<nodes>
	<node id="1" type="from" x="-13.98391" y="14.95454"/>
	<node id="2" type="to" x="89.32962999999998" y="-89.92102"/>
</nodes>
