<routes>
	<vehicle depart="0.1" departLane="4" departPos="46.18957243430397" departSpeed="13.9105" id="27" type="passenger">
		<route edges="64"/>
	</vehicle>
	<vehicle depart="0.1" departLane="3" departPos="65.13266023242947" departSpeed="11.2165" id="32" type="passenger">
		<route edges="64"/>
	</vehicle>
	<vehicle depart="0.1" departLane="1" departPos="52.46757063916096" departSpeed="13.6168" id="34" type="passenger">
		<route edges="64"/>
	</vehicle>
	<vehicle depart="0.1" departLane="0" departPos="41.06573555228393" departSpeed="8.9163" id="35" type="passenger">
		<route edges="64"/>
	</vehicle>
	<vehicle depart="0.1" departLane="4" departPos="62.38157959275535" departSpeed="10.9504" id="39" type="passenger">
		<route edges="64"/>
	</vehicle>
	<vehicle depart="0.1" departLane="1" departPos="0" departSpeed="13.611" id="40" type="passenger">
		<route edges="64"/>
	</vehicle>
	<vehicle depart="0.1" departLane="4" departPos="38.08492157027752" departSpeed="11.7221" id="43" type="passenger">
		<route edges="64"/>
	</vehicle>
	<vehicle depart="0.1" departLane="2" departPos="35.783981575682866" departSpeed="9.364" id="47" type="passenger">
		<route edges="64"/>
	</vehicle>
	<vehicle depart="0.1" departLane="0" departPos="51.39262583568587" departSpeed="7.8331" id="48" type="passenger">
		<route edges="64"/>
	</vehicle>
	<vehicle depart="0.1" departLane="1" departPos="33.77125256131892" departSpeed="16.4572" id="51" type="passenger">
		<route edges="64"/>
	</vehicle>
	<vehicle depart="0.1" departLane="0" departPos="30.917130661790505" departSpeed="9.7875" id="53" type="passenger">
		<route edges="64"/>
	</vehicle>
	<vehicle depart="0.1" departLane="3" departPos="22.795453258812273" departSpeed="10.9095" id="56" type="passenger">
		<route edges="64"/>
	</vehicle>
	<vehicle depart="0.1" departLane="0" departPos="0" departSpeed="11.3332" id="60" type="passenger">
		<route edges="64"/>
	</vehicle>
</routes>
