<routes>
	<vehicle depart="0.1" departLane="0" departPos="9.260487289063175" departSpeed="3.6653306" id="36" type="bicycle">
		<route edges="89696 90864"/>
	</vehicle>
	<vehicle depart="0.1" departLane="0" departPos="15.925481380243077" departSpeed="3.1298493" id="39" type="passenger">
		<route edges=":31_2 89696"/>
	</vehicle>
	<vehicle depart="0.1" departLane="0" departPos="2.5" departSpeed="0.18458414" id="313" type="passenger">
		<route edges="89694 89696"/>
	</vehicle>
	<vehicle depart="0.1" departLane="0" departPos="23.839780248911357" departSpeed="0.81187904" id="314" type="passenger">
		<route edges=":35_0 89694"/>
	</vehicle>
	<vehicle depart="0.1" departLane="0" departPos="2.5" departSpeed="9.8767144" id="330" type="passenger">
		<route edges="89732 90510"/>
	</vehicle>
	<vehicle depart="0.1" departLane="0" departPos="31.423283681891036" departSpeed="1.8734613" id="331" type="passenger">
		<route edges=":31_0 89696 90864"/>
	</vehicle>
	<vehicle depart="0.1" departLane="0" departPos="15.057402322156566" departSpeed="1.8871874" id="333" type="passenger">
		<route edges=":31_0 89696"/>
	</vehicle>
	<vehicle depart="0.1" departLane="0" departPos="20.708925754994418" departSpeed="9.103482" id="337" type="passenger">
		<route edges=":31_2 89696 90864"/>
	</vehicle>
	<vehicle depart="0.1" departLane="0" departPos="31.97444822125327" departSpeed="7.5898622" id="335" type="motorcycle">
		<route edges=":31_1 89506 89732"/>
	</vehicle>
</routes>
