<routes>
	<vehicle depart="0.1" departLane="0" departPos="10.30833969350588" departSpeed="0.043881685" id="312" type="bicycle">
		<route edges="73868 69375"/>
	</vehicle>
	<vehicle depart="0.1" departLane="0" departPos="18.087973921469203" departSpeed="0.13488663" id="33" type="passenger">
		<route edges="73868 69375"/>
	</vehicle>
	<vehicle depart="0.1" departLane="0" departPos="5.450361293164094" departSpeed="5.5006401" id="38" type="passenger">
		<route edges="69394 69036 69768"/>
	</vehicle>
	<vehicle depart="0.1" departLane="0" departPos="34.36486177196136" departSpeed="4.6036389" id="324" type="passenger">
		<route edges=":48_1 69394 68915"/>
	</vehicle>
	<vehicle depart="0.1" departLane="0" departPos="20.584665041745904" departSpeed="3.8919685" id="327" type="passenger">
		<route edges=":48_1 69394"/>
	</vehicle>
	<vehicle depart="0.1" departLane="0" departPos="11.054990924749536" departSpeed="0.27276303" id="332" type="passenger">
		<route edges="69032 69387"/>
	</vehicle>
	<vehicle depart="0.1" departLane="0" departPos="36.05367518780598" departSpeed="0.38696592" id="343" type="passenger">
		<route edges=":53_0 69032"/>
	</vehicle>
	<vehicle depart="0.1" departLane="0" departPos="27.437044295567937" departSpeed="1.3995711" id="348" type="passenger">
		<route edges=":53_0 69032"/>
	</vehicle>
	<vehicle depart="0.1" departLane="0" departPos="1.25" departSpeed="0.17013396" id="336" type="motorcycle">
		<route edges="69032 68915"/>
	</vehicle>
</routes>
