<!-- generated on 2020-12-18 15:56:41.514965 by ipykernel_launcher.py v1_2_0+5214-53edc58fcd
-->
<edges>
	<edge from="1" function="normal" id="43165" length="11.72400499658713" numLanes="2" priority="1" speed="36.11111111111111" spreadType="center" to="2">
		<lane allow="moped bicycle pedestrian custom1 trailer evehicle rail_urban ship private truck vip custom2 authority delivery rail_electric taxi tram army hov coach motorcycle passenger bus rail emergency" index="0" length="11.72400499658713" shape="-19.6385,56.760149999999996 -18.916600000000003,45.0496" speed="36.11111111111111" width="2.578245023266797"/>
		<lane allow="moped bicycle pedestrian custom1 trailer evehicle rail_urban ship private truck vip custom2 authority delivery rail_electric taxi tram army hov coach motorcycle passenger bus rail emergency" index="1" length="11.72400499658713" shape="-16.728900000000003,56.8354 -16.0443,45.1314" speed="36.11111111111111" width="3.06728219112621"/>
	</edge>
	<edge from="3" function="normal" id="43171" length="11.752980921132304" numLanes="3" priority="1" speed="36.11111111111111" spreadType="center" to="4">
		<lane allow="moped bicycle pedestrian custom1 trailer evehicle rail_urban ship private truck vip custom2 authority delivery rail_electric taxi tram army hov coach motorcycle passenger bus rail emergency" index="0" length="11.752980921132304" shape="-6.70625,45.397450000000006 -7.4688,57.16975" speed="36.11111111111111" width="2.531726861254981"/>
		<lane allow="moped bicycle pedestrian custom1 trailer evehicle rail_urban ship private truck vip custom2 authority delivery rail_electric taxi tram army hov coach motorcycle passenger bus rail emergency" index="1" length="11.752980921132304" shape="-9.5705,45.31585 -10.40545,57.0685" speed="36.11111111111111" width="3.1160154444418287"/>
		<lane allow="moped bicycle pedestrian custom1 trailer evehicle rail_urban ship private truck vip custom2 authority delivery rail_electric taxi tram army hov coach motorcycle passenger bus rail emergency" index="2" length="11.752980921132304" shape="-12.815,45.2234 -13.579350000000002,56.951499999999996" speed="36.11111111111111" width="3.236096081700913"/>
	</edge>
	<edge from="5" function="normal" id="43199" length="20.886447620646443" numLanes="2" priority="1" speed="36.11111111111111" spreadType="center" to="6">
		<lane allow="moped bicycle pedestrian custom1 trailer evehicle rail_urban ship private truck vip custom2 authority delivery rail_electric taxi tram army hov coach motorcycle passenger bus rail emergency" index="0" length="20.886447620646443" shape="-17.6612,25.1149 -17.42355,14.672 -17.1859,4.229" speed="36.11111111111111" width="2.763578694374378"/>
		<lane allow="moped bicycle pedestrian custom1 trailer evehicle rail_urban ship private truck vip custom2 authority delivery rail_electric taxi tram army hov coach motorcycle passenger bus rail emergency" index="1" length="20.886447620646443" shape="-14.72845,25.1845 -14.4422,14.74525 -14.15595,4.305899999999999" speed="36.11111111111111" width="3.103572820154219"/>
	</edge>
	<edge from="6" function="normal" id="43203" length="18.616247445846835" numLanes="2" priority="1" speed="36.11111111111111" spreadType="center" to="7">
		<lane allow="moped bicycle pedestrian custom1 trailer evehicle rail_urban ship private truck vip custom2 authority delivery rail_electric taxi tram army hov coach motorcycle passenger bus rail emergency" index="0" length="18.616247445846835" shape="-17.1859,4.229 -16.97795,-5.0768 -16.76995,-14.3826" speed="36.11111111111111" width="2.948348995624502"/>
		<lane allow="moped bicycle pedestrian custom1 trailer evehicle rail_urban ship private truck vip custom2 authority delivery rail_electric taxi tram army hov coach motorcycle passenger bus rail emergency" index="1" length="18.616247445846835" shape="-14.15595,4.305899999999999 -13.91685,-5.0432500000000005 -13.6777,-14.39235" speed="36.11111111111111" width="3.1135024088636887"/>
	</edge>
	<edge from="7" function="normal" id="43207" length="10.590827331353836" numLanes="2" priority="1" speed="36.11111111111111" spreadType="center" to="8">
		<lane allow="moped bicycle pedestrian custom1 trailer evehicle rail_urban ship private truck vip custom2 authority delivery rail_electric taxi tram army hov coach motorcycle passenger bus rail emergency" index="0" length="10.590827331353836" shape="-16.76995,-14.3826 -16.67535,-19.6785 -16.5807,-24.97445" speed="36.11111111111111" width="2.9870115316148365"/>
		<lane allow="moped bicycle pedestrian custom1 trailer evehicle rail_urban ship private truck vip custom2 authority delivery rail_electric taxi tram army hov coach motorcycle passenger bus rail emergency" index="1" length="10.590827331353836" shape="-13.6777,-14.39235 -13.633,-19.68715 -13.5883,-24.982799999999997" speed="36.11111111111111" width="2.9978117686072285"/>
	</edge>
	<edge from="8" function="normal" id="43213" length="26.423553559019847" numLanes="3" priority="1" speed="36.11111111111111" spreadType="center" to="9">
		<lane allow="moped bicycle pedestrian custom1 trailer evehicle rail_urban ship private truck vip custom2 authority delivery rail_electric taxi tram army hov coach motorcycle passenger bus rail emergency" index="0" length="26.423553559019847" shape="-16.5807,-24.97445 -16.8697,-37.15575 -17.18655,-51.39105" speed="36.11111111111111" width="2.9870115316148365"/>
		<lane allow="moped bicycle pedestrian custom1 trailer evehicle rail_urban ship private truck vip custom2 authority delivery rail_electric taxi tram army hov coach motorcycle passenger bus rail emergency" index="1" length="26.423553559019847" shape="-13.5883,-24.982799999999997 -13.8809,-37.3158 -14.2375,-51.4585" speed="36.11111111111111" width="2.9055271535471836"/>
		<lane allow="moped bicycle pedestrian custom1 trailer evehicle rail_urban ship private truck vip custom2 authority delivery rail_electric taxi tram army hov coach motorcycle passenger bus rail emergency" index="2" length="26.423553559019847" shape="-13.5883,-24.982799999999997 -12.705449999999999,-37.375550000000004 -11.17725,-51.52805" speed="36.11111111111111" width="2.9978117686072285"/>
	</edge>
	<edge from="9" function="normal" id="43219" length="11.6111022079086" numLanes="3" priority="1" speed="36.11111111111111" spreadType="center" to="10">
		<lane allow="moped bicycle pedestrian custom1 trailer evehicle rail_urban ship private truck vip custom2 authority delivery rail_electric taxi tram army hov coach motorcycle passenger bus rail emergency" index="0" length="11.6111022079086" shape="-17.18655,-51.39105 -17.7902,-62.98645" speed="36.11111111111111" width="2.993284872844547"/>
		<lane allow="moped bicycle pedestrian custom1 trailer evehicle rail_urban ship private truck vip custom2 authority delivery rail_electric taxi tram army hov coach motorcycle passenger bus rail emergency" index="1" length="11.6111022079086" shape="-14.2375,-51.4585 -14.8433,-63.095749999999995" speed="36.11111111111111" width="2.904567845652774"/>
		<lane allow="moped bicycle pedestrian custom1 trailer evehicle rail_urban ship private truck vip custom2 authority delivery rail_electric taxi tram army hov coach motorcycle passenger bus rail emergency" index="2" length="11.6111022079086" shape="-11.17725,-51.52805 -11.7853,-63.20895" speed="36.11111111111111" width="3.215621216810214"/>
	</edge>
	<edge from="11" function="normal" id="43223" length="11.740023820780767" numLanes="2" priority="1" speed="36.11111111111111" spreadType="center" to="12">
		<lane allow="moped bicycle pedestrian custom1 trailer evehicle rail_urban ship private truck vip custom2 authority delivery rail_electric taxi tram army hov coach motorcycle passenger bus rail emergency" index="0" length="11.740023820780767" shape="-5.79405,-63.43275 -5.1815999999999995,-51.66825" speed="36.11111111111111" width="2.8617048240515657"/>
		<lane allow="moped bicycle pedestrian custom1 trailer evehicle rail_urban ship private truck vip custom2 authority delivery rail_electric taxi tram army hov coach motorcycle passenger bus rail emergency" index="1" length="11.740023820780767" shape="-8.70125,-63.323949999999996 -8.09095,-51.5998" speed="36.11111111111111" width="2.9567655199558844"/>
	</edge>
	<edge from="12" function="normal" id="43229" length="26.60931157260748" numLanes="3" priority="1" speed="36.11111111111111" spreadType="center" to="13">
		<lane allow="moped bicycle pedestrian custom1 trailer evehicle rail_urban ship private truck vip custom2 authority delivery rail_electric taxi tram army hov coach motorcycle passenger bus rail emergency" index="0" length="26.60931157260748" shape="-5.1815999999999995,-51.66825 -4.7956,-37.8029 -4.4921,-25.0083" speed="36.11111111111111" width="2.832011299412487"/>
		<lane allow="moped bicycle pedestrian custom1 trailer evehicle rail_urban ship private truck vip custom2 authority delivery rail_electric taxi tram army hov coach motorcycle passenger bus rail emergency" index="1" length="26.60931157260748" shape="-8.09095,-51.5998 -7.6766000000000005,-37.6499 -7.3765,-25.0002" speed="36.11111111111111" width="2.936811447812066"/>
		<lane allow="moped bicycle pedestrian custom1 trailer evehicle rail_urban ship private truck vip custom2 authority delivery rail_electric taxi tram army hov coach motorcycle passenger bus rail emergency" index="2" length="26.60931157260748" shape="-8.09095,-51.5998 -9.62755,-37.54145 -10.46715,-24.991549999999997" speed="36.11111111111111" width="2.9577143151426912"/>
	</edge>
	<edge from="13" function="normal" id="43235" length="10.586816360320451" numLanes="3" priority="1" speed="36.11111111111111" spreadType="center" to="14">
		<lane allow="moped bicycle pedestrian custom1 trailer evehicle rail_urban ship private truck vip custom2 authority delivery rail_electric taxi tram army hov coach motorcycle passenger bus rail emergency" index="0" length="10.586816360320451" shape="-4.4921,-25.0083 -4.462400000000001,-19.71465 -4.43275,-14.42165" speed="36.11111111111111" width="2.8229140298634667"/>
		<lane allow="moped bicycle pedestrian custom1 trailer evehicle rail_urban ship private truck vip custom2 authority delivery rail_electric taxi tram army hov coach motorcycle passenger bus rail emergency" index="1" length="10.586816360320451" shape="-7.3765,-25.0002 -7.3656500000000005,-19.705849999999998 -7.354850000000001,-14.4124" speed="36.11111111111111" width="2.936811447812066"/>
		<lane allow="moped bicycle pedestrian custom1 trailer evehicle rail_urban ship private truck vip custom2 authority delivery rail_electric taxi tram army hov coach motorcycle passenger bus rail emergency" index="2" length="10.586816360320451" shape="-10.46715,-24.991549999999997 -10.4771,-19.69645 -10.48705,-14.40245" speed="36.11111111111111" width="3.243116356222821"/>
	</edge>
	<edge from="14" function="normal" id="43241" length="18.79542459177229" numLanes="3" priority="1" speed="36.11111111111111" spreadType="center" to="15">
		<lane allow="moped bicycle pedestrian custom1 trailer evehicle rail_urban ship private truck vip custom2 authority delivery rail_electric taxi tram army hov coach motorcycle passenger bus rail emergency" index="0" length="18.79542459177229" shape="-4.43275,-14.42165 -4.67195,-4.94055 -4.91115,4.5405999999999995" speed="36.11111111111111" width="2.8229140298634667"/>
		<lane allow="moped bicycle pedestrian custom1 trailer evehicle rail_urban ship private truck vip custom2 authority delivery rail_electric taxi tram army hov coach motorcycle passenger bus rail emergency" index="1" length="18.79542459177229" shape="-7.354850000000001,-14.4124 -7.59105,-4.972899999999999 -7.82725,4.46655" speed="36.11111111111111" width="2.9986657866457875"/>
		<lane allow="moped bicycle pedestrian custom1 trailer evehicle rail_urban ship private truck vip custom2 authority delivery rail_electric taxi tram army hov coach motorcycle passenger bus rail emergency" index="2" length="18.79542459177229" shape="-10.48705,-14.40245 -10.725000000000001,-5.00775 -10.962900000000001,4.38695" speed="36.11111111111111" width="3.243116356222821"/>
	</edge>
	<edge from="15" function="normal" id="43247" length="20.871192544869068" numLanes="3" priority="1" speed="36.11111111111111" spreadType="center" to="16">
		<lane allow="moped bicycle pedestrian custom1 trailer evehicle rail_urban ship private truck vip custom2 authority delivery rail_electric taxi tram army hov coach motorcycle passenger bus rail emergency" index="0" length="20.871192544869068" shape="-4.91115,4.5405999999999995 -5.1998999999999995,14.9722 -5.4887,25.4038" speed="36.11111111111111" width="2.8291981903005667"/>
		<lane allow="moped bicycle pedestrian custom1 trailer evehicle rail_urban ship private truck vip custom2 authority delivery rail_electric taxi tram army hov coach motorcycle passenger bus rail emergency" index="1" length="20.871192544869068" shape="-7.82725,4.46655 -8.1047,14.90085 -8.38215,25.3351" speed="36.11111111111111" width="2.959332744048901"/>
		<lane allow="moped bicycle pedestrian custom1 trailer evehicle rail_urban ship private truck vip custom2 authority delivery rail_electric taxi tram army hov coach motorcycle passenger bus rail emergency" index="2" length="20.871192544869068" shape="-10.962900000000001,4.38695 -11.2411,14.82385 -11.51925,25.26065" speed="36.11111111111111" width="3.27465457262289"/>
	</edge>
	<edge from="5" function="normal" id="43451" length="15.38696056770176" numLanes="1" priority="1" speed="36.11111111111111" spreadType="center" to="17">
		<lane allow="moped bicycle pedestrian custom1 trailer evehicle rail_urban ship private vip custom2 authority delivery rail_electric taxi tram army hov coach motorcycle passenger rail emergency" index="0" length="15.38696056770176" shape="-17.6612,25.1149 -17.70625,21.20515 -18.0666,19.8891 -18.73425,18.920650000000002 -19.79015,18.13025 -21.0845,17.83365 -27.372149999999998,17.68905" speed="36.11111111111111" width="2.4012139638108043"/>
	</edge>
	<edge from="18" function="normal" id="43453" length="17.763377113560473" numLanes="1" priority="1" speed="36.11111111111111" spreadType="center" to="6">
		<lane allow="moped bicycle pedestrian custom1 trailer evehicle rail_urban ship private vip custom2 authority delivery rail_electric taxi tram army hov coach motorcycle passenger rail emergency" index="0" length="17.763377113560473" shape="-27.27395,13.8255 -21.04625,13.7804 -19.6356,13.536750000000001 -18.719250000000002,12.95905 -18.1798,12.2611 -17.79055,11.180299999999999 -17.3436,8.388950000000001 -17.1859,4.229" speed="36.11111111111111" width="2.7081200582692047"/>
	</edge>
	<edge from="14" function="normal" id="43455" length="11.718159892325748" numLanes="1" priority="1" speed="36.11111111111111" spreadType="center" to="19">
		<lane allow="moped bicycle pedestrian custom1 trailer evehicle rail_urban ship private vip custom2 authority delivery rail_electric taxi tram army hov coach motorcycle passenger rail emergency" index="0" length="11.718159892325748" shape="-4.43275,-14.42165 -4.40855,-11.6374 -4.15315,-9.6393 -3.6767000000000003,-7.7613 -2.94855,-6.504300000000001 -1.9457499999999999,-5.521 0.0268415,-4.7312" speed="36.11111111111111" width="2.8229140298634667"/>
	</edge>
	<edge from="19" function="normal" id="43457" length="12.650964552836385" numLanes="1" priority="1" speed="36.11111111111111" spreadType="center" to="20">
		<lane allow="moped bicycle pedestrian custom1 trailer evehicle rail_urban ship private truck vip custom2 authority delivery rail_electric taxi tram army hov coach motorcycle passenger bus rail emergency" index="0" length="12.650964552836385" shape="0.0268415,-4.7312 6.35225,-4.75725 12.6777,-4.7829999999999995" speed="36.11111111111111" width="4.179433209051318"/>
	</edge>
	<edge from="21" function="normal" id="43459" length="12.462945608284928" numLanes="1" priority="1" speed="36.11111111111111" spreadType="center" to="22">
		<lane allow="moped bicycle pedestrian custom1 trailer evehicle rail_urban ship private truck vip custom2 authority delivery rail_electric taxi tram army hov coach motorcycle passenger bus rail emergency" index="0" length="12.462945608284928" shape="12.4722,-0.36550000000000005 6.2407,-0.36824999999999986 0.0092555,-0.37075000000000014" speed="36.11111111111111" width="4.5415377249474655"/>
	</edge>
	<edge from="22" function="normal" id="43461" length="7.963732106279229" numLanes="1" priority="1" speed="36.11111111111111" spreadType="center" to="15">
		<lane allow="moped bicycle pedestrian custom1 trailer evehicle rail_urban ship private vip custom2 authority delivery rail_electric taxi tram army hov coach motorcycle passenger rail emergency" index="0" length="7.963732106279229" shape="0.0092555,-0.37075000000000014 -1.81195,-0.09679999999999989 -2.72415,0.18404999999999994 -3.62605,0.717845 -4.18415,1.527265 -4.7242,2.7580999999999998 -4.91115,4.5405999999999995" speed="36.11111111111111" width="2.835414299533668"/>
	</edge>
	<edge from="12" function="normal" id="43463" length="9.846707303800484" numLanes="1" priority="1" speed="36.11111111111111" spreadType="center" to="23">
		<lane allow="moped bicycle pedestrian custom1 trailer evehicle rail_urban ship private vip custom2 authority delivery rail_electric taxi tram army hov coach motorcycle passenger rail emergency" index="0" length="9.846707303800484" shape="-5.1815999999999995,-51.66825 -5.1213999999999995,-49.94665 -4.85855,-48.252449999999996 -4.38555,-47.18305 -3.50845,-46.4281 -2.3424500000000004,-46.036950000000004 0.508335,-45.9213" speed="36.11111111111111" width="2.854848866402563"/>
	</edge>
	<edge from="23" function="normal" id="43465" length="5.074430788305195" numLanes="1" priority="1" speed="36.11111111111111" spreadType="center" to="24">
		<lane allow="moped bicycle pedestrian custom1 trailer evehicle rail_urban ship private truck vip custom2 authority delivery rail_electric taxi tram army hov coach motorcycle passenger bus rail emergency" index="0" length="5.074430788305195" shape="0.508335,-45.9213 3.04345,-46.024100000000004 5.57855,-46.1281" speed="36.11111111111111" width="5.783970164177887"/>
	</edge>
	<edge from="25" function="normal" id="43467" length="5.012376381037859" numLanes="1" priority="1" speed="36.11111111111111" spreadType="center" to="26">
		<lane allow="moped bicycle pedestrian custom1 trailer evehicle rail_urban ship private truck vip custom2 authority delivery rail_electric taxi tram army hov coach motorcycle passenger bus rail emergency" index="0" length="5.012376381037859" shape="5.6871,-40.620050000000006 3.1831,-40.515299999999996 0.67911,-40.4104" speed="36.11111111111111" width="5.16650302332245"/>
	</edge>
	<edge from="26" function="normal" id="43469" length="18.5489500368695" numLanes="1" priority="1" speed="36.11111111111111" spreadType="center" to="13">
		<lane allow="moped bicycle pedestrian custom1 trailer evehicle rail_urban ship private vip custom2 authority delivery rail_electric taxi tram army hov coach motorcycle passenger rail emergency" index="0" length="18.5489500368695" shape="0.67911,-40.4104 -1.7579500000000001,-40.21365 -3.3116499999999998,-39.01245 -3.862,-37.40305 -4.32605,-34.909949999999995 -4.4257,-30.8612 -4.4921,-25.0083" speed="36.11111111111111" width="2.7987617905066524"/>
	</edge>
	<edge from="27" function="normal" id="43471" length="8.414161347955238" numLanes="1" priority="1" speed="36.11111111111111" spreadType="center" to="28">
		<lane allow="moped bicycle pedestrian custom1 trailer evehicle rail_urban ship private vip custom2 authority delivery rail_electric taxi tram army hov coach motorcycle passenger rail emergency" index="0" length="8.414161347955238" shape="-32.465999999999994,34.353 -27.76275,34.39235 -24.052149999999997,34.35935" speed="36.11111111111111" width="2.702357433797389"/>
	</edge>
	<edge from="29" function="normal" id="43473" length="8.414160929907872" numLanes="1" priority="1" speed="36.11111111111111" spreadType="center" to="30">
		<lane allow="moped bicycle pedestrian custom1 trailer evehicle rail_urban ship private vip custom2 authority delivery rail_electric taxi tram army hov coach motorcycle passenger rail emergency" index="0" length="8.414160929907872" shape="-24.088549999999998,36.9645 -27.79915,36.9975 -32.502399999999994,36.958200000000005" speed="36.11111111111111" width="2.4696340538630417"/>
	</edge>
	<edge from="31" function="normal" id="43475" length="32.7140051746039" numLanes="1" priority="1" speed="36.11111111111111" spreadType="center" to="32">
		<lane allow="moped bicycle pedestrian custom1 trailer evehicle rail_urban ship private truck vip custom2 authority delivery rail_electric taxi tram army hov coach motorcycle passenger bus rail emergency" index="0" length="32.7140051746039" shape="2.6744,34.127849999999995 10.85315,34.12405 19.033099999999997,34.1186 27.210749999999997,34.123099999999994 35.3884,34.1276" speed="36.11111111111111" width="2.9638421145533367"/>
	</edge>
	<edge from="33" function="normal" id="43477" length="32.714605202175356" numLanes="1" priority="1" speed="36.11111111111111" spreadType="center" to="34">
		<lane allow="moped bicycle pedestrian custom1 trailer evehicle rail_urban ship private truck vip custom2 authority delivery rail_electric taxi tram army hov coach motorcycle passenger bus rail emergency" index="0" length="32.714605202175356" shape="35.372749999999996,36.9941 27.19495,36.989549999999994 19.01715,36.98505 10.837050000000001,36.9905 2.65815,36.994299999999996" speed="36.11111111111111" width="2.732615825541525"/>
	</edge>
	<edge from="2" function="normal" id="43481" length="6.771698325840525" numLanes="2" priority="1" speed="36.11111111111111" spreadType="center" to="35">
		<lane allow="moped bicycle pedestrian custom1 trailer evehicle rail_urban ship private truck vip custom2 authority delivery rail_electric taxi tram army hov coach motorcycle passenger bus rail emergency" index="0" length="6.771698325840525" shape="-18.916600000000003,45.0496 -18.70545,41.59855 -18.50955,38.29015" speed="36.11111111111111" width="2.578245023266797"/>
		<lane allow="moped bicycle pedestrian custom1 trailer evehicle rail_urban ship private truck vip custom2 authority delivery rail_electric taxi tram army hov coach motorcycle passenger bus rail emergency" index="1" length="6.771698325840525" shape="-16.0443,45.1314 -15.836300000000001,41.64425 -15.64435,38.330600000000004" speed="36.11111111111111" width="3.126133863096718"/>
	</edge>
	<edge from="36" function="normal" id="43487" length="6.8698332475932915" numLanes="3" priority="1" speed="36.11111111111111" spreadType="center" to="3">
		<lane allow="moped bicycle pedestrian custom1 trailer evehicle rail_urban ship private truck vip custom2 authority delivery rail_electric taxi tram army hov coach motorcycle passenger bus rail emergency" index="0" length="6.8698332475932915" shape="-6.31035,38.33075 -6.50065,41.79275 -6.70625,45.397450000000006" speed="36.11111111111111" width="2.531726861254981"/>
		<lane allow="moped bicycle pedestrian custom1 trailer evehicle rail_urban ship private truck vip custom2 authority delivery rail_electric taxi tram army hov coach motorcycle passenger bus rail emergency" index="1" length="6.8698332475932915" shape="-9.2053,38.34425 -9.379950000000001,41.747150000000005 -9.5705,45.31585" speed="36.11111111111111" width="3.140205217816186"/>
		<lane allow="moped bicycle pedestrian custom1 trailer evehicle rail_urban ship private truck vip custom2 authority delivery rail_electric taxi tram army hov coach motorcycle passenger bus rail emergency" index="2" length="6.8698332475932915" shape="-12.4285,38.364450000000005 -12.6134,41.6956 -12.815,45.2234" speed="36.11111111111111" width="3.292536390079842"/>
	</edge>
	<edge from="37" function="normal" id="43491" length="7.824770336690182" numLanes="2" priority="1" speed="36.11111111111111" spreadType="center" to="5">
		<lane allow="moped bicycle pedestrian custom1 trailer evehicle rail_urban ship private truck vip custom2 authority delivery rail_electric taxi tram army hov coach motorcycle passenger bus rail emergency" index="0" length="7.824770336690182" shape="-18.18,33.051649999999995 -17.924300000000002,29.12355 -17.6612,25.1149" speed="36.11111111111111" width="2.6452469468841664"/>
		<lane allow="moped bicycle pedestrian custom1 trailer evehicle rail_urban ship private truck vip custom2 authority delivery rail_electric taxi tram army hov coach motorcycle passenger bus rail emergency" index="1" length="7.824770336690182" shape="-15.30415,32.98805 -15.027050000000001,29.13405 -14.72845,25.1845" speed="36.11111111111111" width="3.1003177804863817"/>
	</edge>
	<edge from="16" function="normal" id="43497" length="7.394295711693332" numLanes="3" priority="1" speed="36.11111111111111" spreadType="center" to="38">
		<lane allow="moped bicycle pedestrian custom1 trailer evehicle rail_urban ship private truck vip custom2 authority delivery rail_electric taxi tram army hov coach motorcycle passenger bus rail emergency" index="0" length="7.394295711693332" shape="-5.4887,25.4038 -5.7418,29.164450000000002 -5.9793,32.781800000000004" speed="36.11111111111111" width="2.7378707420183304"/>
		<lane allow="moped bicycle pedestrian custom1 trailer evehicle rail_urban ship private truck vip custom2 authority delivery rail_electric taxi tram army hov coach motorcycle passenger bus rail emergency" index="1" length="7.394295711693332" shape="-8.38215,25.3351 -8.64695,29.1549 -8.89835,32.8464" speed="36.11111111111111" width="2.959332744048901"/>
		<lane allow="moped bicycle pedestrian custom1 trailer evehicle rail_urban ship private truck vip custom2 authority delivery rail_electric taxi tram army hov coach motorcycle passenger bus rail emergency" index="2" length="7.394295711693332" shape="-11.51925,25.26065 -11.818750000000001,29.1449 -12.0997,32.917199999999994" speed="36.11111111111111" width="3.3026068854769863"/>
	</edge>
	<edge from="39" function="normal" id="43499" length="7.382415952951213" numLanes="1" priority="1" speed="36.11111111111111" spreadType="center" to="31">
		<lane allow="moped bicycle pedestrian custom1 trailer evehicle rail_urban ship private truck vip custom2 authority delivery rail_electric taxi tram army hov coach motorcycle passenger bus rail emergency" index="0" length="7.382415952951213" shape="-4.707649999999999,34.19905 -1.0149249999999999,34.1543 2.6744,34.127849999999995" speed="36.11111111111111" width="2.9015859835614033"/>
	</edge>
	<edge from="34" function="normal" id="43501" length="7.553172937758809" numLanes="1" priority="1" speed="36.11111111111111" spreadType="center" to="40">
		<lane allow="moped bicycle pedestrian custom1 trailer evehicle rail_urban ship private truck vip custom2 authority delivery rail_electric taxi tram army hov coach motorcycle passenger bus rail emergency" index="0" length="7.553172937758809" shape="2.65815,36.994299999999996 -1.11675,36.983450000000005 -4.895,36.990899999999996" speed="36.11111111111111" width="2.6946722620756693"/>
	</edge>
	<edge from="28" function="normal" id="43503" length="4.473946482405157" numLanes="1" priority="1" speed="36.11111111111111" spreadType="center" to="41">
		<lane allow="moped bicycle pedestrian custom1 trailer evehicle rail_urban ship private truck vip custom2 authority delivery rail_electric taxi tram army hov coach motorcycle passenger bus rail emergency" index="0" length="4.473946482405157" shape="-24.052149999999997,34.35935 -21.8154,34.392700000000005 -19.5787,34.426" speed="36.11111111111111" width="2.6945359303598058"/>
	</edge>
	<edge from="2" function="normal" id="43505" length="12.118104772104388" numLanes="1" priority="1" speed="36.11111111111111" spreadType="center" to="29">
		<lane allow="moped bicycle pedestrian custom1 trailer evehicle rail_urban ship private vip custom2 authority delivery rail_electric taxi tram army hov coach motorcycle passenger rail emergency" index="0" length="12.118104772104388" shape="-18.916600000000003,45.0496 -18.7128,41.64375 -18.87845,39.62795 -19.204,38.40455 -19.90795,37.550399999999996 -21.05725,36.9884 -24.088549999999998,36.9645" speed="36.11111111111111" width="2.508451213398421"/>
	</edge>
	<edge from="34" function="normal" id="43507" length="15.09619227156064" numLanes="1" priority="1" speed="36.11111111111111" spreadType="center" to="3">
		<lane allow="moped bicycle pedestrian custom1 trailer evehicle rail_urban ship private vip custom2 authority delivery rail_electric taxi tram army hov coach motorcycle passenger rail emergency" index="0" length="15.09619227156064" shape="2.65815,36.994299999999996 -1.0661,37.00465 -3.0805499999999997,37.55805 -4.7655,38.591499999999996 -5.9399,40.016850000000005 -6.47615,42.00735 -6.70625,45.397450000000006" speed="36.11111111111111" width="2.5021254844631624"/>
	</edge>
	<edge from="16" function="normal" id="43509" length="14.788043016212352" numLanes="1" priority="1" speed="36.11111111111111" spreadType="center" to="31">
		<lane allow="moped bicycle pedestrian custom1 trailer evehicle rail_urban ship private vip custom2 authority delivery rail_electric taxi tram army hov coach motorcycle passenger rail emergency" index="0" length="14.788043016212352" shape="-5.4887,25.4038 -5.64485,29.155450000000002 -5.21965,31.1845 -4.13505,32.63495 -2.45705,33.65975 -0.48483000000000004,34.11215 2.6744,34.127849999999995" speed="36.11111111111111" width="2.8291981903005667"/>
	</edge>
	<edge from="28" function="normal" id="43511" length="13.499040247496719" numLanes="1" priority="1" speed="36.11111111111111" spreadType="center" to="5">