<?xml version="1.0" encoding="UTF-8"?>

<!-- generated on Fri Dec 18 15:56:41 2020 by Eclipse SUMO netconvert Version 1.8.0
<configuration xmlns:xsi="http://www.w3.org/2001/XMLSchema-instance" xsi:noNamespaceSchemaLocation="http://sumo.dlr.de/xsd/netconvertConfiguration.xsd">

    <input>
        <node-files value="./converted_scenarios/NGSIM/Peachtree/USA_Peach-3_1_I-1-1/nodes.net.xml"/>
        <edge-files value="./converted_scenarios/NGSIM/Peachtree/USA_Peach-3_1_I-1-1/edges.net.xml"/>
        <connection-files value="./converted_scenarios/NGSIM/Peachtree/USA_Peach-3_1_I-1-1/_connections.net.xml"/>
        <tllogic-files value="./converted_scenarios/NGSIM/Peachtree/USA_Peach-3_1_I-1-1/_tll.net.xml"/>
    </input>

    <output>
        <output-file value="./converted_scenarios/NGSIM/Peachtree/USA_Peach-3_1_I-1-1/USA_Peach-3_1_I-1-1.net.xml"/>
    </output>

    <processing>
        <plain.extend-edge-shape value="true"/>
        <geometry.remove.keep-edges.explicit value="true"/>
        <geometry.avoid-overlap value="true"/>
        <offset.disable-normalization value="true"/>
    </processing>

    <junctions>
        <no-turnarounds value="true"/>
        <junctions.internal-link-detail value="20"/>
    </junctions>

    <report>
        <aggregate-warnings value="5"/>
    </report>

    <random_number>
        <seed value="1234"/>
    </random_number>

</configuration>
-->

<net version="1.6" junctionCornerDetail="5" junctionLinkDetail="20" limitTurnSpeed="5.50" xmlns:xsi="http://www.w3.org/2001/XMLSchema-instance" xsi:noNamespaceSchemaLocation="http://sumo.dlr.de/xsd/net_file.xsd">

    <location netOffset="0.00,0.00" convBoundary="-32.50,-63.38,35.39,57.06" origBoundary="-32.50,-63.43,35.39,57.17" projParameter="!"/>

    <edge id=":12_0" function="internal">
        <lane id=":12_0_0" index="0" disallow="bus truck rail_fast" speed="7.05" length="10.11" width="2.85" shape="-5.28,-53.60 -5.23,-52.84 -5.15,-52.11 -5.06,-51.43 -4.93,-50.78 -4.79,-50.18 -4.62,-49.62 -4.43,-49.09 -4.21,-48.61 -3.98,-48.17 -3.72,-47.76 -3.43,-47.40 -3.12,-47.08 -2.79,-46.80 -2.44,-46.56 -2.06,-46.36 -1.66,-46.20 -1.24,-46.07 -0.79,-45.99 -0.32,-45.96"/>
    </edge>
    <edge id=":12_1" function="internal">
        <lane id=":12_1_0" index="0" disallow="rail_fast" speed="36.11" length="9.52" width="2.83" shape="-5.28,-53.60 -4.97,-44.02"/>
        <lane id=":12_1_1" index="1" disallow="rail_fast" speed="36.11" length="9.52" width="2.94" shape="-8.19,-53.49 -7.87,-44.03"/>
        <lane id=":12_1_2" index="2" disallow="rail_fast" speed="36.11" length="9.52" width="2.96" shape="-8.19,-53.49 -8.16,-52.79 -8.13,-52.15 -8.12,-51.57 -8.12,-51.05 -8.13,-50.57 -8.15,-50.13 -8.17,-49.72 -8.20,-49.32 -8.25,-48.95 -8.29,-48.57 -8.34,-48.20 -8.40,-47.81 -8.47,-47.39 -8.53,-46.96 -8.61,-46.48 -8.68,-45.96 -8.76,-45.38 -8.84,-44.75 -8.92,-44.04"/>
    </edge>
    <edge id=":13_0" function="internal">
        <lane id=":13_0_0" index="0" disallow="bus truck rail_fast" speed="7.26" length="20.07" width="2.82" shape="2.45,-40.55 -4.47,-21.71"/>
    </edge>
    <edge id=":13_1" function="internal">
        <lane id=":13_1_0" index="0" disallow="rail_fast" speed="36.11" length="22.15" width="2.82" shape="-4.96,-43.82 -4.47,-21.71"/>
        <lane id=":13_1_1" index="1" disallow="rail_fast" speed="36.11" length="22.15" width="2.94" shape="-7.86,-43.83 -7.37,-21.71"/>
        <lane id=":13_1_2" index="2" disallow="rail_fast" speed="36.11" length="22.15" width="3.24" shape="-8.94,-43.84 -9.12,-42.19 -9.29,-40.70 -9.45,-39.35 -9.59,-38.13 -9.72,-37.02 -9.83,-35.99 -9.94,-35.03 -10.03,-34.12 -10.11,-33.23 -10.19,-32.36 -10.25,-31.47 -10.30,-30.56 -10.35,-29.59 -10.39,-28.56 -10.42,-27.44 -10.44,-26.21 -10.46,-24.86 -10.47,-23.36 -10.47,-21.70"/>
    </edge>
    <edge id=":14_0" function="internal">
        <lane id=":14_0_0" index="0" disallow="bus truck rail_fast" speed="13.60" length="10.07" width="2.82" shape="-4.44,-15.94 -4.43,-15.21 -4.41,-14.54 -4.38,-13.94 -4.34,-13.39 -4.28,-12.88 -4.21,-12.42 -4.12,-11.99 -4.01,-11.59 -3.88,-11.20 -3.73,-10.83 -3.56,-10.46 -3.37,-10.08 -3.15,-9.69 -2.90,-9.28 -2.62,-8.84 -2.32,-8.37 -1.98,-7.86 -1.61,-7.29 -1.21,-6.67"/>
    </edge>
    <edge id=":14_1" function="internal">
        <lane id=":14_1_0" index="0" disallow="rail_fast" speed="36.11" length="11.43" width="2.82" shape="-4.44,-15.94 -4.71,-3.34"/>
        <lane id=":14_1_1" index="1" disallow="rail_fast" speed="36.11" length="11.43" width="3.00" shape="-7.36,-15.94 -7.59,-5.07"/>
        <lane id=":14_1_2" index="2" disallow="rail_fast" speed="36.11" length="11.43" width="3.24" shape="-10.48,-15.93 -10.72,-5.11"/>
    </edge>
    <edge id=":15_0" function="internal">
        <lane id=":15_0_0" index="0" disallow="bus truck rail_fast" speed="7.08" length="9.50" width="2.83" shape="-0.15,-0.35 -0.63,-0.26 -1.08,-0.14 -1.51,0.02 -1.91,0.20 -2.29,0.42 -2.64,0.67 -2.97,0.95 -3.27,1.26 -3.55,1.61 -3.80,1.98 -4.03,2.39 -4.24,2.83 -4.42,3.31 -4.57,3.81 -4.70,4.35 -4.81,4.91 -4.89,5.51 -4.94,6.15 -4.97,6.81"/>
    </edge>
    <edge id=":15_1" function="internal">
        <lane id=":15_1_0" index="0" disallow="rail_fast" speed="36.11" length="11.14" width="2.83" shape="-4.71,-3.24 -4.97,6.81"/>
        <lane id=":15_1_1" index="1" disallow="rail_fast" speed="36.11" length="11.14" width="2.96" shape="-7.59,-4.97 -7.89,6.73"/>
        <lane id=":15_1_2" index="2" disallow="rail_fast" speed="36.11" length="11.14" width="3.27" shape="-10.73,-5.01 -11.02,6.65"/>
    </edge>
    <edge id=":16_0" function="internal">
        <lane id=":16_0_0" index="0" disallow="bus truck rail_fast" speed="7.48" length="10.51" width="2.83" shape="-5.42,23.08 -5.45,24.09 -5.46,25.05 -5.47,25.95 -5.46,26.80 -5.44,27.60 -5.42,28.35 -5.38,29.04 -5.34,29.68 -5.28,30.27 -5.22,30.81 -5.14,31.29 -5.06,31.72 -4.96,32.10 -4.86,32.42 -4.74,32.70 -4.62,32.92 -4.48,33.09 -4.34,33.20 -4.18,33.26"/>
    </edge>
    <edge id=":16_1" function="internal">
        <lane id=":16_1_0" index="0" disallow="rail_fast" speed="36.11" length="11.04" width="2.74" shape="-5.42,23.08 -6.07,34.10"/>
        <lane id=":16_1_1" index="1" disallow="rail_fast" speed="36.11" length="11.04" width="2.96" shape="-8.32,23.01 -8.98,34.03"/>
        <lane id=":16_1_2" index="2" disallow="rail_fast" speed="36.11" length="11.04" width="3.30" shape="-11.46,22.93 -12.18,33.95"/>
    </edge>
    <edge id=":19_0" function="internal">
        <lane id=":19_0_0" index="0" disallow="bus truck rail_fast" speed="4.89" length="2.69" width="4.18" shape="-1.10,-6.51 -1.01,-6.37 -0.93,-6.24 -0.86,-6.11 -0.78,-5.97 -0.70,-5.84 -0.63,-5.71 -0.55,-5.59 -0.47,-5.47 -0.39,-5.36 -0.31,-5.25 -0.22,-5.15 -0.13,-5.06 -0.03,-4.98 0.08,-4.91 0.19,-4.85 0.31,-4.80 0.44,-4.76 0.59,-4.74 0.74,-4.73"/>
    </edge>
    <edge id=":2_0" function="internal">
        <lane id=":2_0_0" index="0" disallow="bus truck rail_fast" speed="6.04" length="7.51" width="2.51" shape="-18.79,43.07 -23.19,36.97"/>
    </edge>
    <edge id=":2_1" function="internal">
        <lane id=":2_1_0" index="0" disallow="rail_fast" speed="36.11" length="5.95" width="2.58" shape="-18.79,43.07 -18.44,37.14"/>
        <lane id=":2_1_1" index="1" disallow="rail_fast" speed="36.11" length="5.95" width="3.13" shape="-15.93,43.19 -15.58,37.25"/>
    </edge>
    <edge id=":22_0" function="internal">
        <lane id=":22_0_0" index="0" disallow="bus truck rail_fast" speed="36.11" length="0.91" width="2.84" shape="0.95,-0.37 0.88,-0.37 0.82,-0.37 0.77,-0.38 0.72,-0.38 0.67,-0.38 0.63,-0.39 0.59,-0.39 0.55,-0.39 0.51,-0.40 0.48,-0.40 0.44,-0.40 0.40,-0.40 0.37,-0.40 0.32,-0.40 0.28,-0.40 0.23,-0.40 0.17,-0.39 0.11,-0.39 0.05,-0.38"/>
    </edge>
    <edge id=":23_0" function="internal">
        <lane id=":23_0_0" index="0" disallow="bus truck rail_fast" speed="36.11" length="1.97" width="5.78" shape="-0.12,-45.95 1.84,-45.98"/>
    </edge>
    <edge id=":26_0" function="internal">
        <lane id=":26_0_0" index="0" disallow="bus truck rail_fast" speed="36.11" length="4.51" width="2.80" shape="2.94,-40.51 -1.56,-40.23"/>
    </edge>
    <edge id=":28_0" function="internal">
        <lane id=":28_0_0" index="0" disallow="bus truck rail_fast" speed="7.40" length="9.99" width="2.67" shape="-25.75,34.37 -25.07,34.35 -24.42,34.31 -23.80,34.24 -23.22,34.14 -22.66,34.01 -22.13,33.86 -21.63,33.68 -21.17,33.47 -20.73,33.24 -20.33,32.98 -19.95,32.70 -19.61,32.38 -19.29,32.04 -19.01,31.68 -18.75,31.29 -18.53,30.87 -18.34,30.42 -18.18,29.95 -18.04,29.45"/>
    </edge>
    <edge id=":28_1" function="internal">
        <lane id=":28_1_0" index="0" disallow="bus truck rail_fast" speed="36.11" length="7.26" width="2.69" shape="-25.75,34.37 -18.49,34.44"/>
    </edge>
    <edge id=":29_0" function="internal">
        <lane id=":29_0_0" index="0" disallow="bus truck rail_fast" speed="3.28" length="3.79" width="2.47" shape="-22.19,36.98 -25.98,36.98"/>
    </edge>
    <edge id=":29_1" function="internal">
        <lane id=":29_1_0" index="0" disallow="bus truck rail_fast" speed="36.11" length="3.79" width="2.47" shape="-22.19,36.99 -25.98,36.98"/>
    </edge>
    <edge id=":3_0" function="internal">
        <lane id=":3_0_0" index="0" disallow="bus truck rail_fast" speed="36.11" length="5.70" width="2.53" shape="-5.54,38.52 -5.65,38.93 -5.75,39.30 -5.85,39.63 -5.93,39.94 -6.01,40.22 -6.08,40.47 -6.15,40.71 -6.21,40.94 -6.26,41.16 -6.31,41.38 -6.36,41.61 -6.40,41.84 -6.44,42.08 -6.47,42.35 -6.50,42.63 -6.53,42.94 -6.56,43.29 -6.59,43.67 -6.62,44.10"/>
    </edge>
    <edge id=":3_1" function="internal">
        <lane id=":3_1_0" index="0" disallow="rail_fast" speed="36.11" length="6.92" width="2.53" shape="-6.25,37.15 -6.62,44.10"/>
        <lane id=":3_1_1" index="1" disallow="rail_fast" speed="36.11" length="6.92" width="3.12" shape="-9.14,37.07 -9.48,43.98"/>
        <lane id=":3_1_2" index="2" disallow="rail_fast" speed="36.11" length="6.92" width="3.24" shape="-12.35,36.99 -12.73,43.85"/>
    </edge>
    <edge id=":3_4" function="internal">
        <lane id=":3_4_0" index="0" disallow="bus truck rail_fast" speed="14.45" length="7.58" width="3.24" shape="-14.34,36.58 -14.12,37.10 -13.92,37.56 -13.73,37.99 -13.56,38.37 -13.41,38.73 -13.27,39.06 -13.15,39.37 -13.04,39.67 -12.94,39.96 -12.86,40.26 -12.80,40.55 -12.74,40.86 -12.70,41.19 -12.68,41.54 -12.66,41.92 -12.66,42.33 -12.67,42.79 -12.69,43.29 -12.73,43.85"/>
    </edge>
    <edge id=":31_0" function="internal">
        <lane id=":31_0_0" index="0" disallow="bus truck rail_fast" speed="36.11" length="5.04" width="2.96" shape="-3.99,33.31 -3.62,33.39 -3.29,33.48 -3.00,33.55 -2.72,33.62 -2.48,33.69 -2.25,33.75 -2.04,33.81 -1.83,33.86 -1.64,33.91 -1.44,33.95 -1.24,33.99 -1.04,34.02 -0.82,34.05 -0.59,34.07 -0.34,34.09 -0.06,34.11 0.24,34.12 0.58,34.13 0.96,34.13"/>
    </edge>
    <edge id=":31_1" function="internal">
        <lane id=":31_1_0" index="0" disallow="rail_fast" speed="36.11" length="5.61" width="2.96" shape="-4.65,34.20 0.96,34.13"/>
    </edge>
    <edge id=":34_0" function="internal">
        <lane id=":34_0_0" index="0" disallow="bus truck rail_fast" speed="5.98" length="6.09" width="2.50" shape="0.21,37.00 -0.33,37.00 -0.86,37.01 -1.35,37.03 -1.81,37.06 -2.25,37.09 -2.66,37.13 -3.05,37.18 -3.40,37.23 -3.73,37.30 -4.03,37.37 -4.30,37.44 -4.54,37.53 -4.76,37.62 -4.95,37.72 -5.11,37.83 -5.25,37.94 -5.35,38.06 -5.43,38.19 -5.48,38.33"/>
    </edge>
    <edge id=":34_1" function="internal">
        <lane id=":34_1_0" index="0" disallow="rail_fast" speed="36.11" length="5.52" width="2.69" shape="0.21,37.00 -5.30,36.99"/>
    </edge>
    <edge id=":35_0" function="internal">
        <lane id=":35_0_0" index="0" disallow="rail_fast" speed="36.11" length="4.32" width="2.61" shape="-18.43,36.94 -18.15,32.65"/>
        <lane id=":35_0_1" index="1" disallow="rail_fast" speed="36.11" length="4.32" width="3.11" shape="-15.57,37.05 -15.29,32.73"/>
    </edge>
    <edge id=":35_2" function="internal">
        <lane id=":35_2_0" index="0" disallow="bus truck rail_fast" speed="5.52" length="5.70" width="2.82" shape="-15.57,37.05 -15.54,36.82 -15.50,36.59 -15.42,36.38 -15.32,36.18 -15.20,35.99 -15.06,35.81 -14.89,35.64 -14.70,35.48 -14.49,35.34 -14.25,35.21 -13.98,35.08 -13.70,34.97 -13.39,34.88 -13.05,34.79 -12.70,34.71 -12.32,34.65 -11.91,34.60 -11.48,34.56 -11.03,34.53"/>
    </edge>
    <edge id=":36_0" function="internal">
        <lane id=":36_0_0" index="0" disallow="rail_fast" speed="36.11" length="1.73" width="2.53" shape="-6.33,38.63 -6.23,36.95"/>
        <lane id=":36_0_1" index="1" disallow="rail_fast" speed="36.11" length="1.73" width="3.14" shape="-9.22,38.60 -9.13,36.87"/>
        <lane id=":36_0_2" index="2" disallow="rail_fast" speed="36.11" length="1.73" width="3.29" shape="-12.44,38.57 -12.34,36.79"/>
    </edge>
    <edge id=":37_0" function="internal">
        <lane id=":37_0_0" index="0" disallow="rail_fast" speed="36.11" length="2.51" width="2.65" shape="-18.14,32.45 -18.32,35.19"/>
        <lane id=":37_0_1" index="1" disallow="rail_fast" speed="36.11" length="2.51" width="3.10" shape="-15.27,32.53 -15.44,34.81"/>
    </edge>
    <edge id=":38_0" function="internal">
        <lane id=":38_0_0" index="0" disallow="rail_fast" speed="36.11" length="4.18" width="2.65" shape="-6.08,34.30 -6.32,38.43"/>
        <lane id=":38_0_1" index="1" disallow="rail_fast" speed="36.11" length="4.18" width="3.10" shape="-8.99,34.23 -9.21,38.40"/>
        <lane id=":38_0_2" index="2" disallow="rail_fast" speed="36.11" length="4.18" width="3.30" shape="-12.19,34.15 -12.43,38.37"/>
    </edge>
    <edge id=":38_3" function="internal">
        <lane id=":38_3_0" index="0" disallow="bus truck rail_fast" speed="6.13" length="7.27" width="2.40" shape="-12.19,34.15 -12.23,34.43 -12.30,34.69 -12.40,34.94 -12.53,35.17 -12.69,35.39 -12.88,35.60 -13.10,35.79 -13.36,35.97 -13.65,36.13 -13.96,36.28 -14.31,36.41 -14.69,36.54 -15.10,36.64 -15.55,36.74 -16.02,36.81 -16.52,36.88 -17.06,36.93 -17.63,36.97 -18.23,36.99"/>
    </edge>
    <edge id=":39_0" function="internal">
        <lane id=":39_0_0" index="0" disallow="rail_fast" speed="36.11" length="8.40" width="2.90" shape="-13.25,34.33 -4.85,34.20"/>
    </edge>
    <edge id=":39_1" function="internal">
        <lane id=":39_1_0" index="0" disallow="bus truck rail_fast" speed="36.11" length="5.99" width="2.90" shape="-10.83,34.52 -4.85,34.20"/>
    </edge>
    <edge id=":40_0" function="internal">
        <lane id=":40_0_0" index="0" disallow="bus truck rail_fast" speed="36.11" length="7.18" width="2.52" shape="-5.50,36.99 -12.69,37.05"/>
    </edge>
    <edge id=":40_1" function="internal">
        <lane id=":40_1_0" index="0" disallow="bus truck rail_fast" speed="7.05" length="8.63" width="2.69" shape="-5.50,36.99 -6.28,36.99 -7.02,36.97 -7.71,36.95 -8.37,36.91 -8.99,36.87 -9.57,36.81 -10.11,36.74 -10.62,36.67 -11.08,36.58 -11.51,36.48 -11.89,36.37 -12.24,36.25 -12.55,36.12 -12.82,35.98 -13.05,35.83 -13.24,35.66 -13.40,35.49 -13.51,35.31 -13.59,35.11"/>
    </edge>
    <edge id=":41_0" function="internal">
        <lane id=":41_0_0" index="0" disallow="rail_fast" speed="36.11" length="4.84" width="2.69" shape="-18.29,34.45 -13.45,34.33"/>
    </edge>
    <edge id=":41_1" function="internal">
        <lane id=":41_1_0" index="0" disallow="bus truck rail_fast" speed="5.66" length="4.61" width="2.46" shape="-18.29,34.45 -17.98,34.46 -17.67,34.48 -17.38,34.51 -17.10,34.55 -16.83,34.60 -16.58,34.66 -16.34,34.73 -16.11,34.81 -15.89,34.91 -15.69,35.01 -15.50,35.12 -15.32,35.25 -15.15,35.38 -15.00,35.52 -14.86,35.68 -14.73,35.84 -14.62,36.02 -14.51,36.20 -14.42,36.40"/>
    </edge>
    <edge id=":42_0" function="internal">
        <lane id=":42_0_0" index="0" disallow="bus truck rail_fast" speed="36.11" length="7.08" width="2.51" shape="-12.89,37.05 -19.96,37.03"/>
    </edge>
    <edge id=":42_1" function="internal">
        <lane id=":42_1_0" index="0" disallow="bus truck rail_fast" speed="36.11" length="0.23" width="2.51" shape="-19.73,37.03 -19.96,37.03"/>
    </edge>
    <edge id=":5_0" function="internal">
        <lane id=":5_0_0" index="0" disallow="bus truck rail_fast" speed="36.11" length="19.92" width="3.10" shape="-13.64,34.92 -13.85,34.16 -14.03,33.39 -14.18,32.60 -14.31,31.80 -14.41,30.98 -14.50,30.14 -14.57,29.26 -14.62,28.35 -14.65,27.41 -14.67,26.43 -14.68,25.40 -14.68,24.32 -14.66,23.19 -14.64,22.00 -14.61,20.76 -14.58,19.45 -14.54,18.07 -14.49,16.62 -14.45,15.09"/>
    </edge>
    <edge id=":5_1" function="internal">
        <lane id=":5_1_0" index="0" disallow="bus truck rail_fast" speed="7.16" length="11.75" width="2.40" shape="-17.66,25.11 -17.63,24.38 -17.64,23.68 -17.70,23.02 -17.80,22.40 -17.95,21.82 -18.13,21.27 -18.37,20.77 -18.65,20.30 -18.97,19.88 -19.33,19.49 -19.74,19.14 -20.20,18.83 -20.69,18.56 -21.24,18.33 -21.82,18.14 -22.45,17.98 -23.13,17.87 -23.85,17.79 -24.61,17.75"/>
    </edge>
    <edge id=":5_2" function="internal">
        <lane id=":5_2_0" index="0" disallow="bus truck rail_fast" speed="36.11" length="10.10" width="2.76" shape="-17.66,25.11 -17.43,15.02"/>
    </edge>
    <edge id=":5_3" function="internal">
        <lane id=":5_3_0" index="0" disallow="bus truck rail_fast" speed="9.29" length="20.32" width="2.40" shape="-18.31,34.99 -18.21,33.24 -18.17,31.58 -18.17,30.02 -18.22,28.55 -18.31,27.18 -18.45,25.90 -18.64,24.71 -18.88,23.61 -19.17,22.61 -19.50,21.71 -19.88,20.89 -20.30,20.17 -20.78,19.55 -21.30,19.01 -21.87,18.57 -22.48,18.23 -23.14,17.98 -23.85,17.82 -24.61,17.75"/>
    </edge>
    <edge id=":5_4" function="internal">
        <lane id=":5_4_0" index="0" disallow="rail_fast" speed="36.11" length="19.77" width="2.76" shape="-18.31,34.99 -17.43,15.02"/>
        <lane id=":5_4_1" index="1" disallow="rail_fast" speed="36.11" length="19.77" width="3.10" shape="-15.42,34.61 -14.45,15.09"/>
    </edge>
    <edge id=":6_0" function="internal">
        <lane id=":6_0_0" index="0" disallow="bus truck rail_fast" speed="6.81" length="9.91" width="2.95" shape="-22.59,13.79 -22.06,13.77 -21.55,13.71 -21.08,13.61 -20.63,13.47 -20.21,13.30 -19.81,13.09 -19.45,12.84 -19.11,12.55 -18.80,12.22 -18.52,11.86 -18.27,11.46 -18.04,11.02 -17.84,10.54 -17.67,10.02 -17.53,9.47 -17.42,8.88 -17.33,8.25 -17.28,7.58 -17.25,6.88"/>
    </edge>
    <edge id=":6_1" function="internal">
        <lane id=":6_1_0" index="0" disallow="rail_fast" speed="36.11" length="7.94" width="2.95" shape="-17.43,14.82 -17.25,6.88"/>
        <lane id=":6_1_1" index="1" disallow="rail_fast" speed="36.11" length="7.94" width="3.11" shape="-14.45,14.89 -14.22,6.95"/>
    </edge>
    <edge id=":7_0" function="internal">
        <lane id=":7_0_0" index="0" disallow="rail_fast" speed="36.11" length="3.08" width="2.99" shape="-16.80,-12.86 -16.74,-15.94"/>
        <lane id=":7_0_1" index="1" disallow="rail_fast" speed="36.11" length="3.08" width="3.00" shape="-13.72,-12.83 -13.66,-15.92"/>
    </edge>
    <edge id=":8_0" function="internal">
        <lane id=":8_0_0" index="0" disallow="rail_fast" speed="36.11" length="7.92" width="2.99" shape="-16.65,-21.01 -16.67,-28.94"/>
        <lane id=":8_0_1" index="1" disallow="rail_fast" speed="36.11" length="7.92" width="2.91" shape="-13.62,-20.99 -13.68,-28.90"/>
        <lane id=":8_0_2" index="2" disallow="rail_fast" speed="36.11" length="7.92" width="3.00" shape="-13.62,-20.99 -13.31,-28.90"/>
    </edge>
    <edge id=":9_0" function="internal">
        <lane id=":9_0_0" index="0" disallow="rail_fast" speed="36.11" length="3.04" width="2.99" shape="-17.15,-49.63 -17.25,-52.57"/>
        <lane id=":9_0_1" index="1" disallow="rail_fast" speed="36.11" length="3.04" width="2.90" shape="-14.19,-49.63 -14.30,-52.67"/>
        <lane id=":9_0_2" index="2" disallow="rail_fast" speed="36.11" length="3.04" width="3.22" shape="-11.38,-49.64 -11.36,-49.87 -11.33,-50.08 -11.31,-50.27 -11.29,-50.45 -11.27,-50.60 -11.26,-50.75 -11.24,-50.88 -11.23,-51.01 -11.22,-51.14 -11.21,-51.26 -11.21,-51.39 -11.21,-51.52 -11.20,-51.65 -11.21,-51.80 -11.21,-51.96 -11.21,-52.13 -11.22,-52.32 -11.23,-52.53 -11.24,-52.77"/>
    </edge>

    <edge id="43165" from="1" to="2" priority="1" spreadType="center" length="11.72">
        <lane id="43165_0" index="0" disallow="rail_fast" speed="36.11" length="11.72" width="2.58" customShape="1" shape="-19.64,56.76 -18.79,43.07"/>
        <lane id="43165_1" index="1" disallow="rail_fast" speed="36.11" length="11.72" width="3.07" customShape="1" shape="-16.73,56.88 -15.93,43.19"/>
    </edge>
    <edge id="43171" from="3" to="4" priority="1" spreadType="center" length="11.75">
        <lane id="43171_0" index="0" disallow="rail_fast" speed="36.11" length="11.75" width="2.53" customShape="1" shape="-6.62,44.10 -7.47,57.26"/>
        <lane id="43171_1" index="1" disallow="rail_fast" speed="36.11" length="11.75" width="3.12" customShape="1" shape="-9.48,43.98 -10.41,57.07"/>
        <lane id="43171_2" index="2" disallow="rail_fast" speed="36.11" length="11.75" width="3.24" customShape="1" shape="-12.73,43.85 -13.58,56.95"/>
    </edge>
    <edge id="43199" from="5" to="6" priority="1" spreadType="center" length="20.89">
        <lane id="43199_0" index="0" disallow="rail_fast" speed="36.11" length="20.89" width="2.76" customShape="1" shape="-17.43,15.02 -17.43,14.82"/>
        <lane id="43199_1" index="1" disallow="rail_fast" speed="36.11" length="20.89" width="3.10" customShape="1" shape="-14.45,15.09 -14.45,14.89"/>
    </edge>
    <edge id="43203" from="6" to="7" priority="1" spreadType="center" length="18.62">
        <lane id="43203_0" index="0" disallow="rail_fast" speed="36.11" length="18.62" width="2.95" customShape="1" shape="-17.25,6.88 -16.98,-5.08 -16.80,-12.86"/>
        <lane id="43203_1" index="1" disallow="rail_fast" speed="36.11" length="18.62" width="3.11" customShape="1" shape="-14.22,6.95 -13.92,-5.04 -13.72,-12.83"/>
    </edge>
    <edge id="43207" from="7" to="8" priority="1" spreadType="center" length="10.59">
        <lane id="43207_0" index="0" disallow="rail_fast" speed="36.11" length="10.59" width="2.99" customShape="1" shape="-16.74,-15.94 -16.68,-19.68 -16.65,-21.01"/>
        <lane id="43207_1" index="1" disallow="rail_fast" speed="36.11" length="10.59" width="3.00" customShape="1" shape="-13.66,-15.92 -13.63,-19.69 -13.62,-20.99"/>
    </edge>
    <edge id="43213" from="8" to="9" priority="1" spreadType="center" length="26.42">
        <lane id="43213_0" index="0" disallow="rail_fast" speed="36.11" length="26.42" width="2.99" customShape="1" shape="-16.67,-28.94 -16.87,-37.16 -17.15,-49.63"/>
        <lane id="43213_1" index="1" disallow="rail_fast" speed="36.11" length="26.42" width="2.91" customShape="1" shape="-13.68,-28.90 -13.88,-37.32 -14.19,-49.63"/>
        <lane id="43213_2" index="2" disallow="rail_fast" speed="36.11" length="26.42" width="3.00" customShape="1" shape="-13.31,-28.90 -12.71,-37.38 -11.38,-49.64"/>
    </edge>
    <edge id="43219" from="9" to="10" priority="1" spreadType="center" length="11.61">
        <lane id="43219_0" index="0" disallow="rail_fast" speed="36.11" length="11.61" width="2.99" customShape="1" shape="-17.25,-52.57 -17.79,-62.99"/>
        <lane id="43219_1" index="1" disallow="rail_fast" speed="36.11" length="11.61" width="2.90" customShape="1" shape="-14.30,-52.67 -14.84,-63.10"/>
        <lane id="43219_2" index="2" disallow="rail_fast" speed="36.11" length="11.61" width="3.22" customShape="1" shape="-11.24,-52.77 -11.79,-63.25"/>
    </edge>
    <edge id="43223" from="11" to="12" priority="1" spreadType="center" length="11.74">
        <lane id="43223_0" index="0" disallow="rail_fast" speed="36.11" length="11.74" width="2.86" customShape="1" shape="-5.80,-63.45 -5.28,-53.60"/>
        <lane id="43223_1" index="1" disallow="rail_fast" speed="36.11" length="11.74" width="2.96" customShape="1" shape="-8.70,-63.32 -8.19,-53.49"/>
    </edge>
    <edge id="43229" from="12" to="13" priority="1" spreadType="center" length="26.61">
        <lane id="43229_0" index="0" disallow="rail_fast" speed="36.11" length="26.61" width="2.83" customShape="1" shape="-4.97,-44.02 -4.96,-43.82"/>
        <lane id="43229_1" index="1" disallow="rail_fast" speed="36.11" length="26.61" width="2.94" customShape="1" shape="-7.87,-44.03 -7.86,-43.83"/>
        <lane id="43229_2" index="2" disallow="rail_fast" speed="36.11" length="26.61" width="2.96" customShape="1" shape="-8.92,-44.04 -8.94,-43.84"/>
    </edge>
    <edge id="43235" from="13" to="14" priority="1" spreadType="center" length="10.59">
        <lane id="43235_0" index="0" disallow="rail_fast" speed="36.11" length="10.59" width="2.82" customShape="1" shape="-4.47,-21.71 -4.46,-19.71 -4.44,-15.94"/>
        <lane id="43235_1" index="1" disallow="rail_fast" speed="36.11" length="10.59" width="2.94" customShape="1" shape="-7.37,-21.71 -7.37,-19.71 -7.36,-15.94"/>
        <lane id="43235_2" index="2" disallow="rail_fast" speed="36.11" length="10.59" width="3.24" customShape="1" shape="-10.47,-21.70 -10.48,-19.70 -10.48,-15.93"/>
    </edge>
    <edge id="43241" from="14" to="15" priority="1" spreadType="center" length="18.80">
        <lane id="43241_0" index="0" disallow="rail_fast" speed="36.11" length="18.80" width="2.82" customShape="1" shape="-4.71,-3.34 -4.71,-3.24"/>
        <lane id="43241_1" index="1" disallow="rail_fast" speed="36.11" length="18.80" width="3.00" customShape="1" shape="-7.59,-5.07 -7.59,-4.97"/>
        <lane id="43241_2" index="2" disallow="rail_fast" speed="36.11" length="18.80" width="3.24" customShape="1" shape="-10.72,-5.11 -10.73,-5.01"/>
    </edge>
    <edge id="43247" from="15" to="16" priority="1" spreadType="center" length="20.87">
        <lane id="43247_0" index="0" disallow="rail_fast" speed="36.11" length="20.87" width="2.83" customShape="1" shape="-4.97,6.81 -5.20,14.97 -5.42,23.08"/>
        <lane id="43247_1" index="1" disallow="rail_fast" speed="36.11" length="20.87" width="2.96" customShape="1" shape="-7.89,6.73 -8.10,14.90 -8.32,23.01"/>
        <lane id="43247_2" index="2" disallow="rail_fast" speed="36.11" length="20.87" width="3.27" customShape="1" shape="-11.02,6.65 -11.24,14.82 -11.46,22.93"/>
    </edge>
    <edge id="43451" from="5" to="17" priority="1" spreadType="center" length="15.39">
        <lane id="43451_0" index="0" disallow="bus truck rail_fast" speed="36.11" length="15.39" width="2.40" customShape="1" shape="-24.61,17.75 -27.37,17.69"/>
    </edge>
    <edge id="43453" from="18" to="6" priority="1" spreadType="center" length="17.76">
        <lane id="43453_0" index="0" disallow="bus truck rail_fast" speed="36.11" length="17.76" width="2.71" customShape="1" shape="-27.27,13.83 -22.59,13.79"/>
    </edge>
    <edge id="43455" from="14" to="19" priority="1" spreadType="center" length="11.72">
        <lane id="43455_0" index="0" disallow="bus truck rail_fast" speed="36.11" length="11.72" width="2.82" customShape="1" shape="-1.21,-6.67 -1.10,-6.51"/>
    </edge>
    <edge id="43457" from="19" to="20" priority="1" spreadType="center" length="12.65">
        <lane id="43457_0" index="0" disallow="rail_fast" speed="36.11" length="12.65" width="4.18" customShape="1" shape="0.74,-4.73 6.35,-4.76 12.68,-4.78"/>
    </edge>
    <edge id="43459" from="21" to="22" priority="1" spreadType="center" length="12.46">
        <lane id="43459_0" index="0" disallow="rail_fast" speed="36.11" length="12.46" width="4.54" customShape="1" shape="12.47,-0.37 6.24,-0.37 0.95,-0.37"/>
    </edge>
    <edge id="43461" from="22" to="15" priority="1" spreadType="center" length="7.96">
        <lane id="43461_0" index="0" disallow="bus truck rail_fast" speed="36.11" length="7.96" width="2.84" customShape="1" shape="0.05,-0.38 -0.15,-0.35"/>
    </edge>
    <edge id="43463" from="12" to="23" priority="1" spreadType="center" length="9.85">
        <lane id="43463_0" index="0" disallow="bus truck rail_fast" speed="36.11" length="9.85" width="2.85" customShape="1" shape="-0.32,-45.96 -0.12,-45.95"/>
    </edge>
    <edge id="43465" from="23" to="24" priority="1" spreadType="center" length="5.07">
        <lane id="43465_0" index="0" disallow="rail_fast" speed="36.11" length="5.07" width="5.78" customShape="1" shape="1.84,-45.98 3.04,-46.02 5.58,-46.13"/>
    </edge>
    <edge id="43467" from="25" to="26" priority="1" spreadType="center" length="5.01">
        <lane id="43467_0" index="0" disallow="rail_fast" speed="36.11" length="5.01" width="5.17" customShape="1" shape="5.69,-40.62 3.18,-40.52 2.94,-40.51"/>
    </edge>
    <edge id="43469" from="26" to="13" priority="1" spreadType="center" length="18.55">
        <lane id="43469_0" index="0" disallow="bus truck rail_fast" speed="36.11" length="18.55" width="2.80" customShape="1" shape="-1.56,-40.23 -1.76,-40.21 -3.31,-39.01 -3.86,-37.40 -4.33,-34.91 -4.43,-30.86 2.45,-40.55"/>
    </edge>
    <edge id="43471" from="27" to="28" priority="1" spreadType="center" length="8.41">
        <lane id="43471_0" index="0" disallow="bus truck rail_fast" speed="36.11" length="8.41" width="2.70" customShape="1" shape="-32.47,34.35 -27.76,34.39 -25.75,34.37"/>
    </edge>
    <edge id="43473" from="29" to="30" priority="1" spreadType="center" length="8.41">
        <lane id="43473_0" index="0" disallow="bus truck rail_fast" speed="36.11" length="8.41" width="2.47" customShape="1" shape="-25.98,36.98 -27.80,37.00 -32.50,36.96"/>
    </edge>
    <edge id="43475" from="31" to="32" priority="1" spreadType="center" length="32.71">
        <lane id="43475_0" index="0" disallow="rail_fast" speed="36.11" length="32.71" width="2.96" customShape="1" shape="0.96,34.13 10.85,34.12 19.03,34.12 27.21,34.12 35.39,34.13"/>
    </edge>
    <edge id="43477" from="33" to="34" priority="1" spreadType="center" length="32.71">
        <lane id="43477_0" index="0" disallow="rail_fast" speed="36.11" length="32.71" width="2.73" customShape="1" shape="35.37,36.99 27.19,36.99 19.02,36.99 10.84,36.99 0.21,37.00"/>
    </edge>