<routes>
	<vehicle depart="0.1" departLane="0" departPos="31.132251854426745" departSpeed="11.332821" id="31" type="passenger">
		<route edges=":75_3 41134 41131"/>
	</vehicle>
	<vehicle depart="0.1" departLane="0" departPos="15.318071131374518" departSpeed="5.4699962" id="312" type="passenger">
		<route edges=":75_2 41138 41141"/>
	</vehicle>
	<vehicle depart="0.1" departLane="0" departPos="50.86735369147036" departSpeed="2.8975394" id="320" type="passenger">
		<route edges="41117 41134"/>
	</vehicle>
	<vehicle depart="0.1" departLane="0" departPos="36.41736786213214" departSpeed="2.8901646" id="338" type="passenger">
		<route edges="41117 41134"/>
	</vehicle>
	<vehicle depart="0.1" departLane="0" departPos="12.80669108743864" departSpeed="3.860477" id="353" type="passenger">
		<route edges="41117 41134"/>
	</vehicle>
	<vehicle depart="0.1" departLane="0" departPos="2.5" departSpeed="8.04565" id="360" type="passenger">
		<route edges="41118"/>
	</vehicle>
	<vehicle depart="0.1" departLane="0" departPos="12.898480052664445" departSpeed="1.5044848" id="369" type="passenger">
		<route edges=":72_4 41137"/>
	</vehicle>
	<vehicle depart="0.1" departLane="0" departPos="2.5" departSpeed="0.61211359" id="389" type="passenger">
		<route edges=":72_4 41137"/>
	</vehicle>
	<vehicle depart="0.1" departLane="0" departPos="61.341538819016314" departSpeed="2.9947122" id="322" type="motorcycle">
		<route edges="41117 41134"/>
	</vehicle>
	<vehicle depart="0.1" departLane="0" departPos="25.750210704165262" departSpeed="13.350312" id="326" type="motorcycle">
		<route edges=":74_2 41135 41118"/>
	</vehicle>
</routes>
