<routes>
	<vehicle depart="0.1" departLane="0" departPos="52.24333116222388" departSpeed="0.82153753" id="310" type="bicycle">
		<route edges="40365 40337"/>
	</vehicle>
	<vehicle depart="0.1" departLane="0" departPos="59.89808366909335" departSpeed="0.0" id="32" type="passenger">
		<route edges="40166 40334"/>
	</vehicle>
	<vehicle depart="0.1" departLane="0" departPos="52.449974917412774" departSpeed="0.0" id="35" type="passenger">
		<route edges="40166 40334"/>
	</vehicle>
	<vehicle depart="0.1" departLane="0" departPos="48.34808633124355" departSpeed="0.73552933" id="314" type="passenger">
		<route edges="40365 40337"/>
	</vehicle>
	<vehicle depart="0.1" departLane="0" departPos="32.00536084309928" departSpeed="1.5171387" id="328" type="passenger">
		<route edges="40365 40337"/>
	</vehicle>
	<vehicle depart="0.1" departLane="0" departPos="21.761509650843532" departSpeed="1.0295075" id="338" type="passenger">
		<route edges="40365 40337"/>
	</vehicle>
	<vehicle depart="0.1" departLane="0" departPos="14.000786730134909" departSpeed="0.1807568" id="346" type="passenger">
		<route edges="40365 40337"/>
	</vehicle>
	<vehicle depart="0.1" departLane="0" departPos="60.043082173179606" departSpeed="0.0" id="318" type="motorcycle">
		<route edges="40340 40337"/>
	</vehicle>
	<vehicle depart="0.1" departLane="0" departPos="69.89972848417924" departSpeed="0.0" id="30" type="truck">
		<route edges="40166 40334"/>
	</vehicle>
	<vehicle depart="0.1" departLane="0" departPos="70.03197217149341" departSpeed="0.0" id="316" type="truck">
		<route edges="40340 40337"/>
	</vehicle>
</routes>
