<routes>
	<vehicle depart="0.1" departLane="0" departPos="59.74220996863727" departSpeed="0.56836936" id="330" type="bicycle">
		<route edges="31742 31739"/>
	</vehicle>
	<vehicle depart="0.1" departLane="0" departPos="11.596543015245539" departSpeed="3.0523381" id="328" type="bus">
		<route edges=":33_3 31240"/>
	</vehicle>
	<vehicle depart="0.1" departLane="0" departPos="31.21592571330306" departSpeed="0.63634141" id="32" type="passenger">
		<route edges=":35_3 31241 31743"/>
	</vehicle>
	<vehicle depart="0.1" departLane="0" departPos="6.615999332708494" departSpeed="1.0313294" id="317" type="passenger">
		<route edges=":33_8 31739"/>
	</vehicle>
	<vehicle depart="0.1" departLane="0" departPos="8.627979962287743" departSpeed="13.219985" id="336" type="passenger">
		<route edges="31240 32127"/>
	</vehicle>
	<vehicle depart="0.1" departLane="0" departPos="54.38070690378776" departSpeed="0.092081238" id="337" type="passenger">
		<route edges="31742 31739"/>
	</vehicle>
	<vehicle depart="0.1" departLane="0" departPos="12.814530938296226" departSpeed="9.4471774" id="341" type="passenger">
		<route edges=":33_9 31630"/>
	</vehicle>
	<vehicle depart="0.1" departLane="0" departPos="43.55319195436136" departSpeed="13.079287" id="347" type="passenger">
		<route edges="31740 31743"/>
	</vehicle>
	<vehicle depart="0.1" departLane="0" departPos="30.653094325667986" departSpeed="8.7259806" id="355" type="passenger">
		<route edges="31740 31630"/>
	</vehicle>
	<vehicle depart="0.1" departLane="0" departPos="62.31775117667545" departSpeed="0.30515658" id="332" type="motorcycle">
		<route edges="31742 31739"/>
	</vehicle>
</routes>
