<!-- generated on 2020-12-18 16:45:08.282435 by ipykernel_launcher.py v1_2_0+5214-53edc58fcd
-->
<connections>
	<connection contPos="-4.0" from="627" fromLane="0" keepClear="true" to="701" toLane="0"/>
	<connection contPos="-4.0" from="627" fromLane="1" keepClear="true" to="701" toLane="1"/>
	<connection contPos="-4.0" from="627" fromLane="1" keepClear="true" to="671" toLane="0"/>
	<connection contPos="-4.0" from="630" fromLane="1" keepClear="true" to="673" toLane="1"/>
	<connection contPos="-4.0" from="630" fromLane="0" keepClear="true" to="673" toLane="0"/>
	<connection contPos="-4.0" from="631" fromLane="0" keepClear="true" to="694" toLane="0"/>
	<connection contPos="-4.0" from="631" fromLane="1" keepClear="true" to="694" toLane="1"/>
	<connection contPos="-4.0" from="636" fromLane="0" keepClear="true" to="691" toLane="0"/>
	<connection contPos="-4.0" from="637" fromLane="0" keepClear="true" to="677" toLane="0"/>
	<connection contPos="-4.0" from="637" fromLane="0" keepClear="true" to="680" toLane="0"/>
	<connection contPos="-4.0" from="640" fromLane="1" keepClear="true" to="681" toLane="0"/>
	<connection contPos="-4.0" from="640" fromLane="1" keepClear="true" to="706" toLane="1"/>
	<connection contPos="-4.0" from="640" fromLane="0" keepClear="true" to="706" toLane="0"/>
	<connection contPos="-4.0" from="641" fromLane="0" keepClear="true" to="698" toLane="0"/>
	<connection contPos="-4.0" from="641" fromLane="0" keepClear="true" to="665" toLane="0"/>
	<connection contPos="-4.0" from="641" fromLane="1" keepClear="true" to="665" toLane="1"/>
	<connection contPos="-4.0" from="644" fromLane="1" keepClear="true" to="666" toLane="1"/>
	<connection contPos="-4.0" from="644" fromLane="0" keepClear="true" to="666" toLane="0"/>
	<connection contPos="-4.0" from="644" fromLane="0" keepClear="true" to="696" toLane="0"/>
	<connection contPos="-4.0" from="646" fromLane="0" keepClear="true" to="669" toLane="0"/>
	<connection contPos="-4.0" from="646" fromLane="0" keepClear="true" to="702" toLane="0"/>
	<connection contPos="-4.0" from="648" fromLane="1" keepClear="true" to="668" toLane="1"/>
	<connection contPos="-4.0" from="648" fromLane="1" keepClear="true" to="692" toLane="0"/>
	<connection contPos="-4.0" from="648" fromLane="0" keepClear="true" to="668" toLane="0"/>
	<connection contPos="-4.0" from="649" fromLane="0" keepClear="true" to="690" toLane="0"/>
	<connection contPos="-4.0" from="649" fromLane="0" keepClear="true" to="670" toLane="0"/>
	<connection contPos="-4.0" from="651" fromLane="0" keepClear="true" to="683" toLane="0"/>
	<connection contPos="-4.0" from="651" fromLane="1" keepClear="true" to="705" toLane="0"/>
	<connection contPos="-4.0" from="651" fromLane="1" keepClear="true" to="683" toLane="1"/>
	<connection contPos="-4.0" from="654" fromLane="1" keepClear="true" to="689" toLane="1"/>
	<connection contPos="-4.0" from="654" fromLane="0" keepClear="true" to="682" toLane="0"/>
	<connection contPos="-4.0" from="654" fromLane="0" keepClear="true" to="689" toLane="0"/>
	<connection contPos="-4.0" from="655" fromLane="0" keepClear="true" to="678" toLane="0"/>
	<connection contPos="-4.0" from="655" fromLane="1" keepClear="true" to="678" toLane="1"/>
	<connection contPos="-4.0" from="658" fromLane="1" keepClear="true" to="676" toLane="1"/>
	<connection contPos="-4.0" from="658" fromLane="0" keepClear="true" to="676" toLane="0"/>
	<connection contPos="-4.0" from="662" fromLane="1" keepClear="true" to="699" toLane="1"/>
	<connection contPos="-4.0" from="662" fromLane="1" keepClear="true" to="704" toLane="0"/>
	<connection contPos="-4.0" from="662" fromLane="0" keepClear="true" to="699" toLane="0"/>
	<connection contPos="-4.0" from="664" fromLane="1" keepClear="true" to="685" toLane="1"/>
	<connection contPos="-4.0" from="664" fromLane="0" keepClear="true" to="685" toLane="0"/>
	<connection contPos="-4.0" from="664" fromLane="0" keepClear="true" to="672" toLane="0"/>
	<connection contPos="-4.0" from="665" fromLane="0" keepClear="true" to="659" toLane="0"/>
	<connection contPos="-4.0" from="666" fromLane="0" keepClear="true" to="654" toLane="0"/>
	<connection contPos="-4.0" from="678" fromLane="1" keepClear="true" to="627" toLane="1"/>
	<connection contPos="-4.0" from="668" fromLane="0" keepClear="true" to="627" toLane="0"/>
	<connection contPos="-4.0" from="669" fromLane="0" keepClear="true" to="641" toLane="1"/>
	<connection contPos="-4.0" from="670" fromLane="0" keepClear="true" to="659" toLane="0"/>
	<connection contPos="-4.0" from="671" fromLane="0" keepClear="true" to="638" toLane="0"/>
	<connection contPos="-4.0" from="672" fromLane="0" keepClear="true" to="635" toLane="0"/>
	<connection contPos="-4.0" from="673" fromLane="0" keepClear="true" to="658" toLane="0"/>
	<connection contPos="-4.0" from="706" fromLane="1" keepClear="true" to="634" toLane="1"/>
	<connection contPos="-4.0" from="685" fromLane="1" keepClear="true" to="648" toLane="1"/>
	<connection contPos="-4.0" from="676" fromLane="0" keepClear="true" to="634" toLane="0"/>
	<connection contPos="-4.0" from="677" fromLane="0" keepClear="true" to="651" toLane="1"/>
	<connection contPos="-4.0" from="678" fromLane="0" keepClear="true" to="627" toLane="0"/>
	<connection contPos="-4.0" from="668" fromLane="1" keepClear="true" to="627" toLane="1"/>
	<connection contPos="-4.0" from="680" fromLane="0" keepClear="true" to="630" toLane="0"/>
	<connection contPos="-4.0" from="681" fromLane="0" keepClear="true" to="655" toLane="1"/>
	<connection contPos="-4.0" from="682" fromLane="0" keepClear="true" to="638" toLane="0"/>
	<connection contPos="-4.0" from="683" fromLane="0" keepClear="true" to="641" toLane="0"/>
	<connection contPos="-4.0" from="666" fromLane="1" keepClear="true" to="654" toLane="1"/>
	<connection contPos="-4.0" from="685" fromLane="0" keepClear="true" to="648" toLane="0"/>
	<connection contPos="-4.0" from="699" fromLane="1" keepClear="true" to="644" toLane="1"/>
	<connection contPos="-4.0" from="689" fromLane="1" keepClear="true" to="630" toLane="1"/>
	<connection contPos="-4.0" from="665" fromLane="1" keepClear="true" to="659" toLane="1"/>
	<connection contPos="-4.0" from="689" fromLane="0" keepClear="true" to="630" toLane="0"/>
	<connection contPos="-4.0" from="690" fromLane="0" keepClear="true" to="644" toLane="1"/>
	<connection contPos="-4.0" from="691" fromLane="0" keepClear="true" to="648" toLane="0"/>
	<connection contPos="-4.0" from="692" fromLane="0" keepClear="true" to="658" toLane="1"/>
	<connection contPos="-4.0" from="694" fromLane="1" keepClear="true" to="655" toLane="1"/>
	<connection contPos="-4.0" from="694" fromLane="0" keepClear="true" to="655" toLane="0"/>
	<connection contPos="-4.0" from="673" fromLane="1" keepClear="true" to="658" toLane="1"/>
	<connection contPos="-4.0" from="696" fromLane="0" keepClear="true" to="645" toLane="0"/>
	<connection contPos="-4.0" from="676" fromLane="1" keepClear="true" to="634" toLane="1"/>
	<connection contPos="-4.0" from="698" fromLane="0" keepClear="true" to="650" toLane="0"/>
	<connection contPos="-4.0" from="699" fromLane="0" keepClear="true" to="644" toLane="0"/>
	<connection contPos="-4.0" from="683" fromLane="1" keepClear="true" to="641" toLane="1"/>
	<connection contPos="-4.0" from="701" fromLane="0" keepClear="true" to="651" toLane="0"/>
	<connection contPos="-4.0" from="702" fromLane="0" keepClear="true" to="654" toLane="0"/>
	<connection contPos="-4.0" from="701" fromLane="1" keepClear="true" to="651" toLane="1"/>
	<connection contPos="-4.0" from="704" fromLane="0" keepClear="true" to="650" toLane="0"/>
	<connection contPos="-4.0" from="705" fromLane="0" keepClear="true" to="645" toLane="0"/>
	<connection contPos="-4.0" from="706" fromLane="0" keepClear="true" to="634" toLane="0"/>
</connections>
