<!-- generated on 2020-12-18 16:45:08.368941 by ipykernel_launcher.py v1_2_0+5214-53edc58fcd
-->
<tlLogics/>
