<routes>
	<vehicle depart="0.1" departLane="0" departPos="14.977660955478338" departSpeed="2.8454529" id="338" type="passenger">
		<route edges=":29_9 8142"/>
	</vehicle>
	<vehicle depart="0.1" departLane="0" departPos="2.5" departSpeed="9.0903453" id="345" type="passenger">
		<route edges="8897 8106"/>
	</vehicle>
</routes>
