<!-- generated on 2020-12-18 15:58:01.111913 by ipykernel_launcher.py v1_2_0+5214-53edc58fcd
-->
<edges>
	<edge from="1" function="normal" id="3498" length="9.586095898357156" numLanes="1" priority="1" speed="36.11111111111111" spreadType="center" to="2">
		<lane allow="moped bicycle pedestrian custom1 trailer evehicle rail_urban ship private truck vip custom2 authority delivery rail_electric taxi tram army hov coach motorcycle passenger bus rail emergency" index="0" length="9.586095898357156" shape="88.90865,125.19900000000001 79.3279,125.51910000000001" speed="36.11111111111111" width="4.771086938004798"/>
	</edge>
	<edge from="2" function="normal" id="3716" length="18.68014790163227" numLanes="1" priority="1" speed="36.11111111111111" spreadType="center" to="3">
		<lane allow="moped bicycle pedestrian custom1 trailer evehicle rail_urban ship private vip custom2 authority delivery rail_electric taxi tram army hov coach motorcycle passenger rail emergency" index="0" length="18.68014790163227" shape="79.3279,125.51910000000001 75.34405000000001,126.9605 72.48845,129.46314999999998 71.43695,131.85325 70.73429999999999,133.88150000000002 70.8793,137.0265 71.87045,139.58145" speed="36.11111111111111" width="3.353872355949167"/>
	</edge>
	<edge from="4" function="normal" id="3509" length="15.632980848532549" numLanes="3" priority="1" speed="36.11111111111111" spreadType="center" to="5">
		<lane allow="moped bicycle pedestrian custom1 trailer evehicle rail_urban ship private truck vip custom2 authority delivery rail_electric taxi tram army hov coach motorcycle passenger bus rail emergency" index="0" length="15.632980848532549" shape="-21.8844,60.17965 -17.4882,57.9988 -7.87775,53.21525" speed="36.11111111111111" width="3.2317602711216056"/>
		<lane allow="moped bicycle pedestrian custom1 trailer evehicle rail_urban ship private truck vip custom2 authority delivery rail_electric taxi tram army hov coach motorcycle passenger bus rail emergency" index="1" length="15.632980848532549" shape="-20.49485,62.9807 -16.057450000000003,60.779399999999995 -6.446949999999999,55.995850000000004" speed="36.11111111111111" width="3.02179241676194"/>
		<lane allow="moped bicycle pedestrian custom1 trailer evehicle rail_urban ship private truck vip custom2 authority delivery rail_electric taxi tram army hov coach motorcycle passenger bus rail emergency" index="2" length="15.632980848532549" shape="-19.1437,65.70435 -14.6511,63.475699999999996 -5.1402,58.7551" speed="36.11111111111111" width="3.058956104621318"/>
	</edge>
	<edge from="5" function="normal" id="3672" length="43.42964317851892" numLanes="1" priority="1" speed="36.11111111111111" spreadType="center" to="6">
		<lane allow="moped bicycle pedestrian custom1 trailer evehicle rail_urban ship private vip custom2 authority delivery rail_electric taxi tram army hov coach motorcycle passenger rail emergency" index="0" length="43.42964317851892" shape="-5.1402,58.7551 0.01699999999999996,56.214749999999995 3.5998,54.73025 7.44565,53.3716 10.22635,52.4013 12.712299999999999,51.90445 14.94715,51.69205 17.28335,51.80905 18.92785,51.94345 20.037300000000002,52.1997 20.97705,52.7827 21.8963,54.1329 23.052,56.06125 25.719450000000002,60.2987 27.2932,63.350449999999995 28.76495,66.46260000000001" speed="36.11111111111111" width="2.9171821763475787"/>
	</edge>
	<edge from="6" function="normal" id="3456" length="24.710920579823163" numLanes="3" priority="1" speed="36.11111111111111" spreadType="center" to="7">
		<lane allow="moped bicycle pedestrian custom1 trailer evehicle rail_urban ship private truck vip custom2 authority delivery rail_electric taxi tram army hov coach motorcycle passenger bus rail emergency" index="0" length="24.710920579823163" shape="34.2916,63.7029 37.8874,70.8965 41.74075,78.81360000000001 45.1034,85.922" speed="36.11111111111111" width="3.0476685974692197"/>
		<lane allow="moped bicycle pedestrian custom1 trailer evehicle rail_urban ship private truck vip custom2 authority delivery rail_electric taxi tram army hov coach motorcycle passenger bus rail emergency" index="1" length="24.710920579823163" shape="31.46275,65.09715 35.32285,72.66405 39.0011,80.22964999999999 42.439949999999996,87.2601" speed="36.11111111111111" width="2.9148241130469597"/>
		<lane allow="moped bicycle pedestrian custom1 trailer evehicle rail_urban ship private truck vip custom2 authority delivery rail_electric taxi tram army hov coach motorcycle passenger bus rail emergency" index="2" length="24.710920579823163" shape="28.76495,66.46260000000001 32.69345,74.2248 36.481899999999996,81.92734999999999 39.853449999999995,88.57395" speed="36.11111111111111" width="2.888004380190589"/>
	</edge>
	<edge from="7" function="normal" id="3462" length="8.466645302154818" numLanes="3" priority="1" speed="36.11111111111111" spreadType="center" to="8">
		<lane allow="moped bicycle pedestrian custom1 trailer evehicle rail_urban ship private truck vip custom2 authority delivery rail_electric taxi tram army hov coach motorcycle passenger bus rail emergency" index="0" length="8.466645302154818" shape="45.1034,85.922 48.982699999999994,93.48475" speed="36.11111111111111" width="3.0476685974692197"/>
		<lane allow="moped bicycle pedestrian custom1 trailer evehicle rail_urban ship private truck vip custom2 authority delivery rail_electric taxi tram army hov coach motorcycle passenger bus rail emergency" index="1" length="8.466645302154818" shape="42.439949999999996,87.2601 46.25805,94.8698" speed="36.11111111111111" width="2.9148241130469597"/>
		<lane allow="moped bicycle pedestrian custom1 trailer evehicle rail_urban ship private truck vip custom2 authority delivery rail_electric taxi tram army hov coach motorcycle passenger bus rail emergency" index="2" length="8.466645302154818" shape="39.853449999999995,88.57395 43.5941,96.16945000000001" speed="36.11111111111111" width="2.888004380190589"/>
	</edge>
	<edge from="8" function="normal" id="3468" length="22.23819662728308" numLanes="3" priority="1" speed="36.11111111111111" spreadType="center" to="9">
		<lane allow="moped bicycle pedestrian custom1 trailer evehicle rail_urban ship private truck vip custom2 authority delivery rail_electric taxi tram army hov coach motorcycle passenger bus rail emergency" index="0" length="22.23819662728308" shape="48.982699999999994,93.48475 53.582049999999995,102.77629999999999 58.9587,113.4573" speed="36.11111111111111" width="3.0326639856733277"/>
		<lane allow="moped bicycle pedestrian custom1 trailer evehicle rail_urban ship private truck vip custom2 authority delivery rail_electric taxi tram army hov coach motorcycle passenger bus rail emergency" index="1" length="22.23819662728308" shape="46.25805,94.8698 50.9043,104.19155 56.15615,114.79735" speed="36.11111111111111" width="2.998011102381041"/>
		<lane allow="moped bicycle pedestrian custom1 trailer evehicle rail_urban ship private truck vip custom2 authority delivery rail_electric taxi tram army hov coach motorcycle passenger bus rail emergency" index="2" length="22.23819662728308" shape="43.5941,96.16945000000001 48.21045,105.5685 53.3998,116.12905" speed="36.11111111111111" width="2.9350875710956243"/>
	</edge>
	<edge from="9" function="normal" id="3713" length="29.142816807837438" numLanes="3" priority="1" speed="36.11111111111111" spreadType="center" to="10">
		<lane allow="moped bicycle pedestrian custom1 trailer evehicle rail_urban ship private truck vip custom2 authority delivery rail_electric taxi tram army hov coach motorcycle passenger bus rail emergency" index="0" length="29.142816807837438" shape="58.9587,113.4573 62.874849999999995,121.45045 66.82145,129.397 70.57755,137.00765 71.7509,139.6402" speed="36.11111111111111" width="3.157633506282828"/>
		<lane allow="moped bicycle pedestrian custom1 trailer evehicle rail_urban ship private truck vip custom2 authority delivery rail_electric taxi tram army hov coach motorcycle passenger rail emergency" index="1" length="29.142816807837438" shape="56.15615,114.79735 59.59365,121.73535000000001 63.54015,129.68195 67.7108,138.17925000000002 68.9958,140.99360000000001" speed="36.11111111111111" width="2.9348672269797813"/>
		<lane allow="moped bicycle pedestrian custom1 trailer evehicle rail_urban ship private truck vip custom2 authority delivery rail_electric taxi tram army hov coach motorcycle passenger bus rail emergency" index="2" length="29.142816807837438" shape="53.3998,116.12905 56.2324,121.82910000000001 60.06715,129.531 64.9057,139.34235 66.29185000000001,142.32184999999998" speed="36.11111111111111" width="3.0673220453679066"/>
	</edge>
	<edge from="5" function="normal" id="3636" length="10.13044496320374" numLanes="2" priority="1" speed="36.11111111111111" spreadType="center" to="11">
		<lane allow="moped bicycle pedestrian custom1 trailer evehicle rail_urban ship private truck vip custom2 authority delivery rail_electric taxi tram army hov coach motorcycle passenger bus rail emergency" index="0" length="10.13044496320374" shape="-7.87775,53.21525 1.13335,48.5299" speed="36.11111111111111" width="3.2321866189934014"/>
		<lane allow="moped bicycle pedestrian custom1 trailer evehicle rail_urban ship private truck vip custom2 authority delivery rail_electric taxi tram army hov coach motorcycle passenger bus rail emergency" index="1" length="10.13044496320374" shape="-6.446949999999999,55.995850000000004 2.57775,51.3936" speed="36.11111111111111" width="3.025465626973806"/>
	</edge>
	<edge from="11" function="normal" id="3658" length="24.83401336288984" numLanes="2" priority="1" speed="36.11111111111111" spreadType="center" to="12">
		<lane allow="moped bicycle pedestrian custom1 trailer evehicle rail_urban ship private truck vip custom2 authority delivery rail_electric taxi tram army hov coach motorcycle passenger bus rail emergency" index="0" length="24.83401336288984" shape="1.13335,48.5299 4.02915,47.024 6.6846499999999995,45.64325 9.401599999999998,44.230549999999994 12.3899,42.676649999999995 15.09155,41.27175 17.73625,39.8966 20.4518,38.4846 23.22355,37.043350000000004" speed="36.11111111111111" width="3.308908788407441"/>
		<lane allow="moped bicycle pedestrian custom1 trailer evehicle rail_urban ship private truck vip custom2 authority delivery rail_electric taxi tram army hov coach motorcycle passenger bus rail emergency" index="1" length="24.83401336288984" shape="2.57775,51.3936 5.44575,49.931 8.11675,48.56895 10.855049999999999,47.1726 13.81965,45.660849999999996 16.5301,44.2786 19.18005,42.927350000000004 21.9145,41.53305 24.7013,40.111900000000006" speed="36.11111111111111" width="3.1057834261261648"/>
	</edge>
	<edge from="12" function="normal" id="3676" length="16.15592838945517" numLanes="2" priority="1" speed="36.11111111111111" spreadType="center" to="13">
		<lane allow="moped bicycle pedestrian custom1 trailer evehicle rail_urban ship private truck vip custom2 authority delivery rail_electric taxi tram army hov coach motorcycle passenger bus rail emergency" index="0" length="16.15592838945517" shape="23.22355,37.043350000000004 29.24325,34.037099999999995 37.6773,29.8251" speed="36.11111111111111" width="3.5034549033775226"/>
		<lane allow="moped bicycle pedestrian custom1 trailer evehicle rail_urban ship private truck vip custom2 authority delivery rail_electric taxi tram army hov coach motorcycle passenger bus rail emergency" index="1" length="16.15592838945517" shape="24.7013,40.111900000000006 30.725949999999997,37.126599999999996 39.22215,32.9167" speed="36.11111111111111" width="3.308224526842158"/>
	</edge>
	<edge from="13" function="normal" id="3525" length="17.280435272672808" numLanes="3" priority="1" speed="36.11111111111111" spreadType="center" to="14">
		<lane allow="moped bicycle pedestrian custom1 trailer evehicle rail_urban ship private truck vip custom2 authority delivery rail_electric taxi tram army hov coach motorcycle passenger bus rail emergency" index="0" length="17.280435272672808" shape="36.054249999999996,26.497 44.781549999999996,22.20195 51.56985,18.86115" speed="36.11111111111111" width="3.873902747875843"/>
		<lane allow="moped bicycle pedestrian custom1 trailer evehicle rail_urban ship private truck vip custom2 authority delivery rail_electric taxi tram army hov coach motorcycle passenger bus rail emergency" index="1" length="17.280435272672808" shape="37.6773,29.8251 46.40445,25.53155 53.2037,22.1865" speed="36.11111111111111" width="3.511789538113014"/>
		<lane allow="moped bicycle pedestrian custom1 trailer evehicle rail_urban ship private truck vip custom2 authority delivery rail_electric taxi tram army hov coach motorcycle passenger bus rail emergency" index="2" length="17.280435272672808" shape="39.22215,32.9167 47.90095,28.6481 54.7285,25.29" speed="36.11111111111111" width="3.3794967495175947"/>
	</edge>
	<edge from="5" function="normal" id="3600" length="24.19746751136553" numLanes="1" priority="1" speed="36.11111111111111" spreadType="center" to="15">
		<lane allow="moped bicycle pedestrian custom1 trailer evehicle rail_urban ship private vip custom2 authority delivery rail_electric taxi tram army hov coach motorcycle passenger rail emergency" index="0" length="24.19746751136553" shape="-7.87775,53.21525 -3.38945,50.8203 -1.3964500000000002,49.6302 0.20660000000000006,48.7196 0.9497000000000001,48.23965 1.3738,47.65205 1.4096,46.8451 1.0024,45.4335 0.2015,43.46735 -0.77895,41.369 -3.5718500000000004,35.36705" speed="36.11111111111111" width="3.2321866189934014"/>
	</edge>
	<edge from="15" function="normal" id="3542" length="74.2461753523541" numLanes="3" priority="1" speed="36.11111111111111" spreadType="center" to="16">
		<lane allow="moped bicycle pedestrian custom1 trailer evehicle rail_urban ship private truck vip custom2 authority delivery rail_electric taxi tram army hov coach motorcycle passenger bus rail emergency" index="0" length="74.2461753523541" shape="-3.5718500000000004,35.36705 -7.73315,26.82835 -11.7864,17.89835 -15.55845,9.17985 -19.1832,-0.06409999999999999 -22.8982,-9.12195 -26.58185,-18.149549999999998 -30.265900000000002,-27.208 -32.55295,-33.004000000000005" speed="36.11111111111111" width="2.823597457145759"/>
		<lane allow="moped bicycle pedestrian custom1 trailer evehicle rail_urban ship private truck vip custom2 authority delivery rail_electric taxi tram army hov coach motorcycle passenger bus rail emergency" index="1" length="74.2461753523541" shape="-0.7282000000000001,33.874399999999994 -4.9716000000000005,25.3196 -9.05375,16.5362 -12.7944,7.848000000000001 -16.4484,-1.2723 -20.1015,-10.331150000000001 -23.75295,-19.2668 -27.344250000000002,-28.3266 -29.735500000000002,-34.4503" speed="36.11111111111111" width="2.969358961122755"/>
		<lane allow="moped bicycle pedestrian custom1 trailer evehicle rail_urban ship private truck vip custom2 authority delivery rail_electric taxi tram army hov coach motorcycle passenger bus rail emergency" index="2" length="74.2461753523541" shape="1.9198499999999998,32.484449999999995 -2.30295,23.8045 -6.3533,15.0822 -10.124849999999999,6.3944 -13.6197,-2.40495 -17.275199999999998,-11.63305 -20.92705,-20.59955 -24.39385,-29.59945 -26.905,-35.90335" speed="36.11111111111111" width="2.9622015478356643"/>
	</edge>
	<edge from="17" function="normal" id="3532" length="13.634900230131372" numLanes="2" priority="1" speed="36.11111111111111" spreadType="center" to="18">
		<lane allow="moped bicycle pedestrian custom1 trailer evehicle rail_urban ship private truck vip custom2 authority delivery rail_electric taxi tram army hov coach motorcycle passenger bus rail emergency" index="0" length="13.634900230131372" shape="59.2742,34.54185 52.34155,37.9307 46.997150000000005,40.54325" speed="36.11111111111111" width="3.607231317783765"/>
		<lane allow="moped bicycle pedestrian custom1 trailer evehicle rail_urban ship private truck vip custom2 authority delivery rail_electric taxi tram army hov coach motorcycle passenger bus rail emergency" index="1" length="13.634900230131372" shape="57.66955,31.2759 50.811049999999994,34.6291 45.4202,37.26455" speed="36.11111111111111" width="3.623546501702441"/>
	</edge>
	<edge from="18" function="normal" id="3534" length="6.5755773961303206" numLanes="3" priority="1" speed="36.11111111111111" spreadType="center" to="19">
		<lane allow="moped bicycle pedestrian custom1 trailer evehicle rail_urban ship private truck vip custom2 authority delivery rail_electric taxi tram army hov coach motorcycle passenger bus rail emergency" index="0" length="6.5755773961303206" shape="46.997150000000005,40.54325 42.574299999999994,46.5651" speed="36.11111111111111" width="3.24573724136751"/>
		<lane allow="moped bicycle pedestrian custom1 trailer evehicle rail_urban ship private truck vip custom2 authority delivery rail_electric taxi tram army hov coach motorcycle passenger bus rail emergency" index="1" length="6.5755773961303206" shape="46.997150000000005,40.54325 41.08515,43.48325" speed="36.11111111111111" width="3.6024336135451565"/>
		<lane allow="moped bicycle pedestrian custom1 trailer evehicle rail_urban ship private truck vip custom2 authority delivery rail_electric taxi tram army hov coach motorcycle passenger bus rail emergency" index="2" length="6.5755773961303206" shape="45.4202,37.26455 39.53215,40.19185" speed="36.11111111111111" width="3.6713079753679083"/>
	</edge>
	<edge from="19" function="normal" id="3536" length="6.608363657139335" numLanes="3" priority="1" speed="36.11111111111111" spreadType="center" to="20">
		<lane allow="moped bicycle pedestrian custom1 trailer evehicle rail_urban ship private truck vip custom2 authority delivery rail_electric taxi tram army hov coach motorcycle passenger bus rail emergency" index="0" length="6.608363657139335" shape="42.574299999999994,46.5651 36.59475,49.45455" speed="36.11111111111111" width="3.190167196245363"/>
		<lane allow="moped bicycle pedestrian custom1 trailer evehicle rail_urban ship private truck vip custom2 authority delivery rail_electric taxi tram army hov coach motorcycle passenger bus rail emergency" index="1" length="6.608363657139335" shape="41.08515,43.48325 35.144999999999996,46.428" speed="36.11111111111111" width="3.5215687697388494"/>
		<lane allow="moped bicycle pedestrian custom1 trailer evehicle rail_urban ship private truck vip custom2 authority delivery rail_electric taxi tram army hov coach motorcycle passenger bus rail emergency" index="2" length="6.608363657139335" shape="39.53215,40.19185 33.6221,43.1485" speed="36.11111111111111" width="3.677371487897301"/>
	</edge>
	<edge from="20" function="normal" id="3620" length="6.669397413559936" numLanes="2" priority="1" speed="36.11111111111111" spreadType="center" to="21">
		<lane allow="moped bicycle pedestrian custom1 trailer evehicle rail_urban ship private truck vip custom2 authority delivery rail_electric taxi tram army hov coach motorcycle passenger bus rail emergency" index="0" length="6.669397413559936" shape="35.144999999999996,46.428 29.1675,49.3861" speed="36.11111111111111" width="3.4558219456447685"/>
		<lane allow="moped bicycle pedestrian custom1 trailer evehicle rail_urban ship private truck vip custom2 authority delivery rail_electric taxi tram army hov coach motorcycle passenger bus rail emergency" index="1" length="6.669397413559936" shape="33.6221,43.1485 27.614649999999997,46.1616" speed="36.11111111111111" width="3.7020390124902858"/>
	</edge>
	<edge from="21" function="normal" id="3662" length="24.644895567957" numLanes="2" priority="1" speed="36.11111111111111" spreadType="center" to="22">
		<lane allow="moped bicycle pedestrian custom1 trailer evehicle rail_urban ship private truck vip custom2 authority delivery rail_electric taxi tram army hov coach motorcycle passenger bus rail emergency" index="0" length="24.644895567957" shape="29.1675,49.3861 26.350949999999997,50.77995 23.57415,52.1541 20.92475,53.4653 18.20265,54.81245 15.33095,56.23365 12.54215,57.6138 9.8401,58.951 7.0794999999999995,60.3173" speed="36.11111111111111" width="3.2133408160355486"/>
		<lane allow="moped bicycle pedestrian custom1 trailer evehicle rail_urban ship private truck vip custom2 authority delivery rail_electric taxi tram army hov coach motorcycle passenger bus rail emergency" index="1" length="24.644895567957" shape="27.614649999999997,46.1616 24.81015,47.568299999999994 22.049599999999998,48.95215 19.40155,50.2808 16.68485,51.642250000000004 13.78305,53.09985 11.0143,54.48995 8.324449999999999,55.839150000000004 5.5279,57.2422" speed="36.11111111111111" width="3.675404375031404"/>
	</edge>
	<edge from="22" function="normal" id="3640" length="10.509859510002979" numLanes="2" priority="1" speed="36.11111111111111" spreadType="center" to="23">
		<lane allow="moped bicycle pedestrian custom1 trailer evehicle rail_urban ship private truck vip custom2 authority delivery rail_electric taxi tram army hov coach motorcycle passenger bus rail emergency" index="0" length="10.509859510002979" shape="7.0794999999999995,60.3173 -2.754,65.1387" speed="36.11111111111111" width="3.1673785817296918"/>
		<lane allow="moped bicycle pedestrian custom1 trailer evehicle rail_urban ship private truck vip custom2 authority delivery rail_electric taxi tram army hov coach motorcycle passenger bus rail emergency" index="1" length="10.509859510002979" shape="5.5279,57.2422 -3.8897,61.9076" speed="36.11111111111111" width="3.675404375031404"/>
	</edge>
	<edge from="23" function="normal" id="3517" length="14.49675390495733" numLanes="3" priority="1" speed="36.11111111111111" spreadType="center" to="24">
		<lane allow="moped bicycle pedestrian custom1 trailer evehicle rail_urban ship private truck vip custom2 authority delivery rail_electric taxi tram army hov coach motorcycle passenger bus rail emergency" index="0" length="14.49675390495733" shape="-1.0367,69.59264999999999 -10.2502,74.03205 -13.9987,76.07589999999999" speed="36.11111111111111" width="5.13090683992606"/>
		<lane allow="moped bicycle pedestrian custom1 trailer evehicle rail_urban ship private truck vip custom2 authority delivery rail_electric taxi tram army hov coach motorcycle passenger bus rail emergency" index="1" length="14.49675390495733" shape="-2.754,65.1387 -12.144449999999999,70.18075 -15.82995,72.38445" speed="36.11111111111111" width="3.1105201397836897"/>
		<lane allow="moped bicycle pedestrian custom1 trailer evehicle rail_urban ship private truck vip custom2 authority delivery rail_electric taxi tram army hov coach motorcycle passenger bus rail emergency" index="2" length="14.49675390495733" shape="-3.8897,61.9076 -13.6714,67.15525 -17.3368,69.3469" speed="36.11111111111111" width="3.664585112942523"/>
	</edge>
	<edge from="20" function="normal" id="3668" length="38.24329000786906" numLanes="1" priority="1" speed="36.11111111111111" spreadType="center" to="15">
		<lane allow="moped bicycle pedestrian custom1 trailer evehicle rail_urban ship private vip custom2 authority delivery rail_electric taxi tram army hov coach motorcycle passenger rail emergency" index="0" length="38.24329000786906" shape="33.6221,43.1485 30.28505,44.2572 27.3509,45.064049999999995 24.855249999999998,45.81165 22.4399,46.1152 20.23805,46.20015 18.70185,46.071799999999996 16.7316,45.865 15.127500000000001,45.58765 13.1797,45.2743 11.371,44.5173 9.8351,43.2672 8.39545,41.357600000000005 5.69515,37.67985 1.9198499999999998,32.484449999999995" speed="36.11111111111111" width="3.011988648716988"/>
	</edge>
	<edge from="20" function="normal" id="3602" length="16.407319351256643" numLanes="1" priority="1" speed="36.11111111111111" spreadType="center" to="6">
		<lane allow="moped bicycle pedestrian custom1 trailer evehicle rail_urban ship private vip custom2 authority delivery rail_electric taxi tram army hov coach motorcycle passenger rail emergency" index="0" length="16.407319351256643" shape="36.59475,49.45455 34.742149999999995,50.7387 33.5921,51.9554 32.6644,53.5844 32.08695,55.393100000000004 32.02905,56.76355 32.3915,58.889799999999994 33.242599999999996,61.26505 34.2916,63.7029" speed="36.11111111111111" width="2.9347200002725966"/>
	</edge>
	<edge from="9" function="normal" id="3718" length="22.831237741532018" numLanes="1" priority="1" speed="36.11111111111111" spreadType="center" to="25">
		<lane allow="moped bicycle pedestrian custom1 trailer evehicle rail_urban ship private vip custom2 authority delivery rail_electric taxi tram army hov coach motorcycle passenger rail emergency" index="0" length="22.831237741532018" shape="58.9587,113.4573 61.5804,116.82900000000001 63.64515,118.7442 66.23895,119.9179 70.86725,120.3218 79.1172,120.45904999999999" speed="36.11111111111111" width="3.157633506282828"/>
	</edge>
	<edge from="25" function="normal" id="3500" length="9.586145870473711" numLanes="1" priority="1" speed="36.11111111111111" spreadType="center" to="26">
		<lane allow="moped bicycle pedestrian custom1 trailer evehicle rail_urban ship private truck vip custom2 authority delivery rail_electric taxi tram army hov coach motorcycle passenger bus rail emergency" index="0" length="9.586145870473711" shape="79.1172,120.45904999999999 88.69800000000001,120.13895" speed="36.11111111111111" width="5.358070392408081"/>
	</edge>
	<edge from="27" function="normal" id="3555" length="8.74730251348951" numLanes="4" priority="1" speed="36.11111111111111" spreadType="center" to="28">
		<lane allow="moped bicycle pedestrian custom1 trailer evehicle rail_urban ship private truck vip custom2 authority delivery rail_electric taxi tram army hov coach motorcycle passenger bus rail emergency" index="0" length="8.74730251348951" shape="-14.2335,-42.4083 -10.2573,-34.61695" speed="36.11111111111111" width="3.5111446353005737"/>
		<lane allow="moped bicycle pedestrian custom1 trailer evehicle rail_urban ship private truck vip custom2 authority delivery rail_electric taxi tram army hov coach motorcycle passenger bus rail emergency" index="1" length="8.74730251348951" shape="-17.1773,-40.8971 -13.1469,-33.015150000000006" speed="36.11111111111111" width="2.9942633818687376"/>
		<lane allow="moped bicycle pedestrian custom1 trailer evehicle rail_urban ship private truck vip custom2 authority delivery rail_electric taxi tram army hov coach motorcycle passenger bus rail emergency" index="2" length="8.74730251348951" shape="-19.8768,-39.51135 -15.7886,-31.478" speed="36.11111111111111" width="3.012211639310892"/>
		<lane allow="moped bicycle pedestrian custom1 trailer evehicle rail_urban ship private truck vip custom2 authority delivery rail_electric taxi tram army hov coach motorcycle passenger bus rail emergency" index="3" length="8.74730251348951" shape="-22.65475,-38.08525 -18.4738,-30.0396" speed="36.11111111111111" width="3.0805742451692346"/>
	</edge>
	<edge from="28" function="normal" id="3559" length="17.69293538209547" numLanes="5" priority="1" speed="36.11111111111111" spreadType="center" to="29">
		<lane allow="moped bicycle pedestrian custom1 trailer evehicle rail_urban ship private truck vip custom2 authority delivery rail_electric taxi tram army hov coach motorcycle passenger bus rail emergency" index="0" length="17.69293538209547" shape="-10.2573,-34.61695 -6.9116,-27.6493 -2.40255,-18.5705" speed="36.11111111111111" width="3.5111446353005737"/>
		<lane allow="moped bicycle pedestrian custom1 trailer evehicle rail_urban ship private truck vip custom2 authority delivery rail_electric taxi tram army hov coach motorcycle passenger bus rail emergency" index="1" length="17.69293538209547" shape="-13.1469,-33.015150000000006 -9.7521,-26.09 -5.1918,-16.97945" speed="36.11111111111111" width="2.8911201583469333"/>
		<lane allow="moped bicycle pedestrian custom1 trailer evehicle rail_urban ship private truck vip custom2 authority delivery rail_electric taxi tram army hov coach motorcycle passenger bus rail emergency" index="2" length="17.69293538209547" shape="-15.7886,-31.478 -12.4421,-24.690649999999998 -7.8818,-15.58015" speed="36.11111111111111" width="3.012211639310892"/>
		<lane allow="moped bicycle pedestrian custom1 trailer evehicle rail_urban ship private truck vip custom2 authority delivery rail_electric taxi tram army hov coach motorcycle passenger bus rail emergency" index="3" length="17.69293538209547" shape="-18.4738,-30.0396 -15.11295,-23.32945 -10.5526,-14.2189" speed="36.11111111111111" width="2.8198292501497324"/>
		<lane allow="moped bicycle pedestrian custom1 trailer evehicle rail_urban ship private truck vip custom2 authority delivery rail_electric taxi tram army hov coach motorcycle passenger rail emergency" index="4" length="17.69293538209547" shape="-18.4738,-30.0396 -16.641199999999998,-22.30445 -13.160350000000001,-12.76615" speed="36.11111111111111" width="2.9068515975192115"/>
	</edge>
	<edge from="29" function="normal" id="3568" length="47.08668512312134" numLanes="5" priority="1" speed="36.11111111111111" spreadType="center" to="30">
		<lane allow="moped bicycle pedestrian custom1 trailer evehicle rail_urban ship private truck vip custom2 authority delivery rail_electric taxi tram army hov coach motorcycle passenger bus rail emergency" index="0" length="47.08668512312134" shape="-2.40255,-18.5705 1.7964499999999999,-10.1155 6.0541,-1.54095 10.492550000000001,7.3950499999999995 14.791150000000002,15.856000000000002 18.97665,23.5051" speed="36.11111111111111" width="3.3461488699697743"/>
		<lane allow="moped bicycle pedestrian custom1 trailer evehicle rail_urban ship private truck vip custom2 authority delivery rail_electric taxi tram army hov coach motorcycle passenger bus rail emergency" index="1" length="47.08668512312134" shape="-5.1918,-16.97945 -0.9718,-8.5487 3.2205000000000004,-0.1733 7.758800000000001,8.8934 11.97685,17.320300000000003 15.84835,25.1449" speed="36.11111111111111" width="2.8910846286471794"/>