<routes>
	<vehicle depart="0.1" departLane="0" departPos="12.808233577485197" departSpeed="0.0" id="31" type="passenger">
		<route edges="10078 10144"/>
	</vehicle>
	<vehicle depart="0.1" departLane="0" departPos="70.26141221378609" departSpeed="0.11174515" id="38" type="passenger">
		<route edges="10143 10075"/>
	</vehicle>
	<vehicle depart="0.1" departLane="0" departPos="5.306735150345437" departSpeed="0.00050267134" id="321" type="passenger">
		<route edges="10078 10144"/>
	</vehicle>
	<vehicle depart="0.1" departLane="0" departPos="11.217696447665016" departSpeed="0.0" id="327" type="passenger">
		<route edges="10178 10082"/>
	</vehicle>
	<vehicle depart="0.1" departLane="0" departPos="7.662835887393786" departSpeed="8.8055332" id="335" type="passenger">
		<route edges="10079 10082 10085"/>
	</vehicle>
	<vehicle depart="0.1" departLane="0" departPos="8.062311098314229" departSpeed="10.192445" id="336" type="passenger">
		<route edges=":38_5 10079 10179"/>
	</vehicle>
	<vehicle depart="0.1" departLane="0" departPos="5.907065865299444" departSpeed="10.373479" id="343" type="passenger">
		<route edges=":39_2 10076 10144"/>
	</vehicle>
	<vehicle depart="0.1" departLane="0" departPos="4.261664306903719" departSpeed="0.0" id="332" type="motorcycle">
		<route edges="10178 10082"/>
	</vehicle>
	<vehicle depart="0.1" departLane="0" departPos="29.789791550520444" departSpeed="0.14703229" id="30" type="truck">
		<route edges=":38_0 10075"/>
	</vehicle>
</routes>
