<routes>
	<vehicle depart="0.1" departLane="0" departPos="13.0" departSpeed="4.5" id="2" type="passenger">
		<route edges="4"/>
	</vehicle>
</routes>
