<routes>
	<vehicle depart="0.1" departLane="0" departPos="28.704020278594925" departSpeed="6.7128347" id="39" type="bicycle">
		<route edges=":63_4 19829 20335"/>
	</vehicle>
	<vehicle depart="0.1" departLane="0" departPos="69.91601401003079" departSpeed="0.0" id="36" type="passenger">
		<route edges="20336 19828"/>
	</vehicle>
	<vehicle depart="0.1" departLane="0" departPos="62.41495327666552" departSpeed="0.0" id="326" type="passenger">
		<route edges="20336 19828"/>
	</vehicle>
	<vehicle depart="0.1" departLane="0" departPos="22.318406552446103" departSpeed="12.899957" id="340" type="passenger">
		<route edges=":57_5 20335"/>
	</vehicle>
	<vehicle depart="0.1" departLane="0" departPos="15.99188779757994" departSpeed="3.9922824" id="346" type="passenger">
		<route edges="19828 19708"/>
	</vehicle>
	<vehicle depart="0.1" departLane="0" departPos="4.513618521447382" departSpeed="2.8493708" id="355" type="passenger">
		<route edges=":59_3 19831 19828"/>
	</vehicle>
	<vehicle depart="0.1" departLane="0" departPos="32.861974092963905" departSpeed="4.8203184" id="356" type="passenger">
		<route edges="19829 20335"/>
	</vehicle>
	<vehicle depart="0.1" departLane="0" departPos="6.8910309425352265" departSpeed="6.4707669" id="366" type="passenger">
		<route edges=":59_0 19831 20335"/>
	</vehicle>
</routes>
