<!-- generated on Tue Feb  9 22:04:42 2021 by Eclipse SUMO netconvert Version 1.8.0
<configuration xmlns:xsi="http://www.w3.org/2001/XMLSchema-instance" xsi:noNamespaceSchemaLocation="http://sumo.dlr.de/xsd/netconvertConfiguration.xsd">

    <input>
        <node-files value="./converted_scenarios/scenario-factory/DEU_Guetersloh-1_4_I-1-1/DEU_Guetersloh-1_4_I-1-1.nod.xml"/>
        <edge-files value="./converted_scenarios/scenario-factory/DEU_Guetersloh-1_4_I-1-1/DEU_Guetersloh-1_4_I-1-1.edg.xml"/>
        <connection-files value="./converted_scenarios/scenario-factory/DEU_Guetersloh-1_4_I-1-1/DEU_Guetersloh-1_4_I-1-1.con.xml"/>
        <tllogic-files value="./converted_scenarios/scenario-factory/DEU_Guetersloh-1_4_I-1-1/DEU_Guetersloh-1_4_I-1-1.tll.xml"/>
        <type-files value="/home/zen/commonroad-interactive-benchmarks/install/commonroad-map-tool/crmapconverter/sumo_map/templates/DEU.typ.xml"/>
    </input>

    <output>
        <output-file value="./converted_scenarios/scenario-factory/DEU_Guetersloh-1_4_I-1-1/DEU_Guetersloh-1_4_I-1-1.net.xml"/>
    </output>

    <processing>
        <geometry.remove.keep-edges.explicit value="true"/>
        <geometry.avoid-overlap value="true"/>
        <offset.disable-normalization value="true"/>
    </processing>

    <junctions>
        <no-turnarounds value="true"/>
        <junctions.internal-link-detail value="20"/>
    </junctions>

    <report>
        <aggregate-warnings value="5"/>
    </report>

    <random_number>
        <seed value="1234"/>
    </random_number>

</configuration>
--><net xmlns:xsi="http://www.w3.org/2001/XMLSchema-instance" version="1.6" junctionCornerDetail="5" junctionLinkDetail="20" limitTurnSpeed="5.50" xsi:noNamespaceSchemaLocation="http://sumo.dlr.de/xsd/net_file.xsd">

    <location netOffset="0.00,0.00" convBoundary="-146.98,-106.10,32.13,52.69" origBoundary="-147.77,-107.90,32.88,53.60" projParameter="!"/>

    <type id="highway.bridleway" priority="1" speed="2.78" allow="pedestrian" oneway="1" width="2.00"/>
    <type id="highway.bus_guideway" priority="1" speed="27.78" allow="bus" oneway="1"/>
    <type id="highway.cycleway" priority="1" speed="8.33" allow="bicycle" oneway="0" width="1.00"/>
    <type id="highway.footway" priority="1" speed="2.78" allow="pedestrian" oneway="1" width="2.00"/>
    <type id="highway.ford" priority="1" speed="2.78" allow="army" oneway="0"/>
    <type id="highway.living_street" priority="2" speed="2.78" disallow="tram rail_urban rail rail_electric rail_fast ship" oneway="0"/>
    <type id="highway.motorway" priority="14" speed="39.44" allow="private emergency authority army vip passenger hov taxi bus coach delivery truck trailer motorcycle evehicle custom1 custom2" oneway="1"/>
    <type id="highway.motorway_link" priority="9" speed="22.22" allow="private emergency authority army vip passenger hov taxi bus coach delivery truck trailer motorcycle evehicle custom1 custom2" oneway="1"/>
    <type id="highway.path" priority="1" speed="2.78" allow="pedestrian bicycle" oneway="0" width="2.00"/>
    <type id="highway.pedestrian" priority="1" speed="2.78" allow="pedestrian" oneway="1" width="2.00"/>
    <type id="highway.primary" priority="12" speed="27.78" disallow="pedestrian tram rail_urban rail rail_electric rail_fast ship" oneway="0"/>
    <type id="highway.primary_link" priority="7" speed="22.22" disallow="pedestrian tram rail_urban rail rail_electric rail_fast ship" oneway="0"/>
    <type id="highway.raceway" priority="15" speed="83.33" allow="vip" oneway="0"/>
    <type id="highway.residential" priority="3" speed="13.89" disallow="pedestrian tram rail_urban rail rail_electric rail_fast ship" oneway="0"/>
    <type id="highway.secondary" priority="11" speed="27.78" disallow="pedestrian tram rail_urban rail rail_electric rail_fast ship" oneway="0"/>
    <type id="highway.secondary_link" priority="6" speed="22.22" disallow="pedestrian tram rail_urban rail rail_electric rail_fast ship" oneway="0"/>
    <type id="highway.service" priority="1" speed="5.56" allow="pedestrian delivery bicycle" oneway="0"/>
    <type id="highway.stairs" priority="1" speed="1.39" allow="pedestrian" oneway="1" width="2.00"/>
    <type id="highway.step" priority="1" speed="1.39" allow="pedestrian" oneway="1" width="2.00"/>
    <type id="highway.steps" priority="1" speed="1.39" allow="pedestrian" oneway="1" width="2.00"/>
    <type id="highway.tertiary" priority="10" speed="22.22" disallow="pedestrian tram rail_urban rail rail_electric rail_fast ship" oneway="0"/>
    <type id="highway.tertiary_link" priority="5" speed="22.22" disallow="pedestrian tram rail_urban rail rail_electric rail_fast ship" oneway="0"/>
    <type id="highway.track" priority="1" speed="5.56" allow="pedestrian motorcycle moped bicycle" oneway="0"/>
    <type id="highway.trunk" priority="13" speed="27.78" disallow="pedestrian bicycle tram rail_urban rail rail_electric rail_fast ship" oneway="0"/>
    <type id="highway.trunk_link" priority="8" speed="22.22" disallow="pedestrian bicycle tram rail_urban rail rail_electric rail_fast ship" oneway="0"/>
    <type id="highway.unclassified" priority="4" speed="13.89" disallow="pedestrian tram rail_urban rail rail_electric rail_fast ship" oneway="0"/>
    <type id="highway.unsurfaced" priority="1" speed="8.33" disallow="tram rail_urban rail rail_electric rail_fast ship" oneway="0"/>
    <type id="railway.highspeed" priority="21" speed="69.44" allow="rail_fast" oneway="1"/>
    <type id="railway.light_rail" priority="19" speed="27.78" allow="rail_urban" oneway="1"/>
    <type id="railway.preserved" priority="16" speed="27.78" allow="rail" oneway="1"/>
    <type id="railway.rail" priority="20" speed="44.44" allow="rail" oneway="1"/>
    <type id="railway.subway" priority="18" speed="27.78" allow="rail_urban" oneway="1"/>
    <type id="railway.tram" priority="17" speed="13.89" allow="tram" oneway="1"/>

    <edge id=":1_0" function="internal">
        <lane id=":1_0_0" index="0" disallow="pedestrian tram rail_urban rail rail_electric rail_fast ship" speed="36.11" length="2.99" width="3.50" shape="-81.16,-17.26 -83.85,-15.95"/>
    </edge>
    <edge id=":12_0" function="internal">
        <lane id=":12_0_0" index="0" disallow="pedestrian tram rail_urban rail rail_electric rail_fast ship" speed="36.11" length="3.00" width="3.50" shape="-28.95,-42.73 -31.66,-41.44"/>
        <lane id=":12_0_1" index="1" disallow="pedestrian tram rail_urban rail rail_electric rail_fast ship" speed="36.11" length="3.00" width="3.50" shape="-30.46,-45.89 -33.17,-44.60"/>
    </edge>
    <edge id=":15_0" function="internal">
        <lane id=":15_0_0" index="0" disallow="pedestrian tram rail_urban rail rail_electric rail_fast ship" speed="36.11" length="3.00" width="3.49" shape="-86.91,-22.25 -84.21,-23.56"/>
        <lane id=":15_0_1" index="1" disallow="pedestrian tram rail_urban rail rail_electric rail_fast ship" speed="36.11" length="3.00" width="3.50" shape="-85.38,-19.10 -82.68,-20.41"/>
    </edge>
    <edge id=":18_0" function="internal">
        <lane id=":18_0_0" index="0" disallow="pedestrian tram rail_urban rail rail_electric rail_fast ship" speed="36.11" length="3.01" width="3.50" shape="-44.40,-4.86 -45.96,-7.44"/>
        <lane id=":18_0_1" index="1" disallow="pedestrian tram rail_urban rail rail_electric rail_fast ship" speed="36.11" length="3.01" width="3.50" shape="-41.41,-6.68 -42.97,-9.25"/>
    </edge>
    <edge id=":25_0" function="internal">
        <lane id=":25_0_0" index="0" disallow="pedestrian tram rail_urban rail rail_electric rail_fast ship" speed="7.88" length="12.87" width="3.50" shape="-55.21,-22.87 -57.03,-25.80 -57.98,-26.61 -58.54,-26.88 -59.15,-27.04 -60.39,-27.03 -61.60,-26.70 -65.60,-24.80"/>
    </edge>
    <edge id=":25_1" function="internal">
        <lane id=":25_1_0" index="0" disallow="pedestrian tram rail_urban rail rail_electric rail_fast ship" speed="36.11" length="19.41" width="3.49" shape="-55.21,-22.87 -58.01,-27.36 -63.22,-33.76 -66.33,-38.73"/>
    </edge>
    <edge id=":25_2" function="internal">
        <lane id=":25_2_0" index="0" disallow="pedestrian tram rail_urban rail rail_electric rail_fast ship" speed="9.30" length="20.44" width="3.49" shape="-52.17,-24.61 -54.57,-29.12 -55.34,-31.33 -55.65,-33.05 -55.61,-34.80 -55.32,-35.93 -54.79,-36.97 -54.05,-37.87 -52.67,-38.94 -48.87,-40.83"/>
    </edge>
    <edge id=":25_3" function="internal">
        <lane id=":25_3_0" index="0" disallow="pedestrian tram rail_urban rail rail_electric rail_fast ship" speed="7.15" length="11.56" width="3.50" shape="-45.62,-34.63 -50.01,-32.28 -50.43,-31.81 -50.73,-31.25 -50.87,-30.64 -50.86,-30.01 -50.51,-28.80 -49.14,-26.36"/>
    </edge>
    <edge id=":25_4" function="internal">
        <lane id=":25_4_0" index="0" disallow="pedestrian tram rail_urban rail rail_electric rail_fast ship" speed="36.11" length="22.27" width="3.50" shape="-45.62,-34.63 -55.57,-29.72 -65.60,-24.80"/>
    </edge>
    <edge id=":25_5" function="internal">
        <lane id=":25_5_0" index="0" disallow="pedestrian tram rail_urban rail rail_electric rail_fast ship" speed="10.23" length="22.41" width="3.49" shape="-47.24,-37.73 -53.67,-34.68 -56.38,-33.79 -58.62,-33.39 -60.32,-33.39 -61.44,-33.59 -62.51,-33.99 -63.47,-34.60 -64.28,-35.40 -66.33,-38.73"/>
    </edge>
    <edge id=":25_6" function="internal">
        <lane id=":25_6_0" index="0" disallow="pedestrian tram rail_urban rail rail_electric rail_fast ship" speed="7.43" length="11.31" width="3.49" shape="-57.27,-44.03 -54.79,-40.09 -53.88,-39.30 -53.32,-39.07 -52.73,-39.04 -48.87,-40.83"/>
    </edge>
    <edge id=":25_7" function="internal">
        <lane id=":25_7_0" index="0" disallow="pedestrian tram rail_urban rail rail_electric rail_fast ship" speed="36.11" length="19.47" width="3.50" shape="-60.29,-42.27 -57.14,-37.24 -51.92,-30.83 -49.14,-26.36"/>
    </edge>
    <edge id=":25_8" function="internal">
        <lane id=":25_8_0" index="0" disallow="pedestrian tram rail_urban rail rail_electric rail_fast ship" speed="9.13" length="19.85" width="3.50" shape="-63.31,-40.50 -60.52,-35.39 -59.71,-33.12 -59.39,-31.34 -59.41,-30.14 -59.70,-28.97 -60.29,-27.92 -61.14,-27.08 -65.60,-24.80"/>
    </edge>
    <edge id=":25_9" function="internal">
        <lane id=":25_9_0" index="0" disallow="pedestrian tram rail_urban rail rail_electric rail_fast ship" speed="6.87" length="10.70" width="3.49" shape="-68.66,-31.09 -64.65,-33.16 -64.30,-33.74 -64.23,-34.42 -64.36,-35.09 -66.33,-38.73"/>
    </edge>
    <edge id=":25_10" function="internal">
        <lane id=":25_10_0" index="0" disallow="pedestrian tram rail_urban rail rail_electric rail_fast ship" speed="36.11" length="22.06" width="3.49" shape="-68.66,-31.09 -58.68,-35.99 -48.87,-40.83"/>
    </edge>
    <edge id=":25_11" function="internal">
        <lane id=":25_11_0" index="0" disallow="pedestrian tram rail_urban rail rail_electric rail_fast ship" speed="9.93" length="21.09" width="3.50" shape="-67.13,-27.94 -61.01,-30.74 -58.78,-31.39 -57.06,-31.66 -55.32,-31.66 -53.62,-31.27 -52.58,-30.76 -51.65,-30.06 -50.53,-28.74 -49.14,-26.36"/>
    </edge>
    <edge id=":3_0" function="internal">
        <lane id=":3_0_0" index="0" disallow="pedestrian tram rail_urban rail rail_electric rail_fast ship" speed="36.11" length="2.99" width="3.50" shape="-39.98,-11.07 -38.43,-8.51"/>
    </edge>
    <edge id=":5_0" function="internal">
        <lane id=":5_0_0" index="0" disallow="pedestrian tram rail_urban rail rail_electric rail_fast ship" speed="36.11" length="3.00" width="3.50" shape="-34.67,-47.76 -31.96,-49.05"/>
    </edge>
    <edge id=":7_0" function="internal">
        <lane id=":7_0_0" index="0" disallow="pedestrian tram rail_urban rail rail_electric rail_fast ship" speed="36.11" length="3.00" width="3.50" shape="-77.56,-57.83 -79.08,-60.42"/>
    </edge>
    <edge id=":9_0" function="internal">
        <lane id=":9_0_0" index="0" disallow="pedestrian tram rail_urban rail rail_electric rail_fast ship" speed="36.11" length="3.02" width="3.50" shape="-70.06,-65.78 -68.52,-63.18"/>
        <lane id=":9_0_1" index="1" disallow="pedestrian tram rail_urban rail rail_electric rail_fast ship" speed="36.11" length="3.02" width="3.50" shape="-73.06,-63.99 -71.53,-61.39"/>
        <lane id=":9_0_2" index="2" disallow="pedestrian tram rail_urban rail rail_electric rail_fast ship" speed="36.11" length="3.01" width="3.50" shape="-76.07,-62.20 -74.54,-59.61"/>
    </edge>

    <edge id="55905" from="1" to="2" priority="3" type="highway.residential" spreadType="center" length="67.69">
        <lane id="55905_0" index="0" disallow="pedestrian tram rail_urban rail rail_electric rail_fast ship" speed="36.11" length="67.69" width="3.50" customShape="1" shape="-83.85,-15.95 -128.82,5.94 -144.65,13.80"/>
    </edge>
    <edge id="55907" from="17" to="15" priority="3" type="highway.residential" spreadType="center" length="67.71">
        <lane id="55907_0" index="0" disallow="pedestrian tram rail_urban rail rail_electric rail_fast ship" speed="36.11" length="67.76" width="3.50" customShape="1" shape="-147.77,7.53 -131.91,-0.33 -86.91,-22.25"/>
        <lane id="55907_1" index="1" disallow="pedestrian tram rail_urban rail rail_electric rail_fast ship" speed="36.11" length="67.71" width="3.50" customShape="1" shape="-146.20,10.66 -130.37,2.81 -85.38,-19.10"/>
    </edge>
    <edge id="55911" from="15" to="25" priority="3" type="highway.residential" spreadType="center" length="17.28" shape="-84.80,-21.33 -58.49,-35.92">
        <lane id="55911_0" index="0" disallow="pedestrian tram rail_urban rail rail_electric rail_fast ship" speed="36.11" length="17.28" width="3.49" customShape="1" shape="-84.21,-23.56 -75.50,-27.78 -68.66,-31.09"/>
        <lane id="55911_1" index="1" disallow="pedestrian tram rail_urban rail rail_electric rail_fast ship" speed="36.11" length="17.28" width="3.50" customShape="1" shape="-82.68,-20.41 -73.97,-24.63 -67.13,-27.94"/>
    </edge>
    <edge id="56001" from="9" to="25" priority="3" type="highway.residential" spreadType="center" length="22.17" shape="-72.30,-62.70 -52.48,-35.04">
        <lane id="56001_0" index="0" disallow="pedestrian tram rail_urban rail rail_electric rail_fast ship" speed="36.11" length="22.21" width="3.50" customShape="1" shape="-68.52,-63.18 -62.62,-53.14 -57.27,-44.03"/>
        <lane id="56001_1" index="1" disallow="pedestrian tram rail_urban rail rail_electric rail_fast ship" speed="36.11" length="22.18" width="3.50" customShape="1" shape="-71.53,-61.39 -65.64,-51.38 -60.29,-42.27"/>
        <lane id="56001_2" index="2" disallow="pedestrian tram rail_urban rail rail_electric rail_fast ship" speed="36.11" length="22.17" width="3.50" customShape="1" shape="-74.54,-59.61 -68.66,-49.61 -63.31,-40.50"/>
    </edge>
    <edge id="56006" from="11" to="9" priority="3" type="highway.residential" spreadType="center" length="49.01">
        <lane id="56006_0" index="0" disallow="pedestrian tram rail_urban rail rail_electric rail_fast ship" speed="36.11" length="49.02" width="3.50" customShape="1" shape="-95.13,-107.90 -82.21,-86.20 -70.06,-65.78"/>
        <lane id="56006_1" index="1" disallow="pedestrian tram rail_urban rail rail_electric rail_fast ship" speed="36.11" length="49.01" width="3.50" customShape="1" shape="-98.13,-106.10 -85.21,-84.41 -73.06,-63.99"/>
        <lane id="56006_2" index="2" disallow="pedestrian tram rail_urban rail rail_electric rail_fast ship" speed="36.11" length="49.02" width="3.50" customShape="1" shape="-101.14,-104.32 -88.22,-82.62 -76.07,-62.20"/>
    </edge>
    <edge id="56009" from="7" to="8" priority="3" type="highway.residential" spreadType="center" length="49.03">
        <lane id="56009_0" index="0" disallow="pedestrian tram rail_urban rail rail_electric rail_fast ship" speed="36.11" length="49.03" width="3.50" customShape="1" shape="-79.08,-60.42 -91.23,-80.83 -104.16,-102.55"/>
    </edge>
    <edge id="56231" from="5" to="6" priority="3" type="highway.residential" spreadType="center" length="68.50">
        <lane id="56231_0" index="0" disallow="pedestrian tram rail_urban rail rail_electric rail_fast ship" speed="36.11" length="68.50" width="3.50" customShape="1" shape="-31.96,-49.05 2.61,-65.53 29.87,-78.53"/>
    </edge>
    <edge id="56233" from="14" to="12" priority="3" type="highway.residential" spreadType="center" length="68.50">
        <lane id="56233_0" index="0" disallow="pedestrian tram rail_urban rail rail_electric rail_fast ship" speed="36.11" length="68.50" width="3.50" customShape="1" shape="32.88,-72.21 5.62,-59.21 -28.95,-42.73"/>
        <lane id="56233_1" index="1" disallow="pedestrian tram rail_urban rail rail_electric rail_fast ship" speed="36.11" length="68.51" width="3.50" customShape="1" shape="31.38,-75.37 4.12,-62.37 -30.46,-45.89"/>
    </edge>
    <edge id="56237" from="12" to="25" priority="3" type="highway.residential" spreadType="center" length="15.53" shape="-31.06,-43.67 -55.81,-29.46">
        <lane id="56237_0" index="0" disallow="pedestrian tram rail_urban rail rail_electric rail_fast ship" speed="36.11" length="15.53" width="3.50" customShape="1" shape="-31.66,-41.44 -34.42,-40.12 -45.62,-34.63"/>
        <lane id="56237_1" index="1" disallow="pedestrian tram rail_urban rail rail_electric rail_fast ship" speed="36.11" length="15.66" width="3.50" customShape="1" shape="-33.17,-44.60 -35.95,-43.27 -47.24,-37.73"/>
    </edge>
    <edge id="56328" from="3" to="4" priority="3" type="highway.residential" spreadType="center" length="68.51">
        <lane id="56328_0" index="0" disallow="pedestrian tram rail_urban rail rail_electric rail_fast ship" speed="36.11" length="68.51" width="3.50" customShape="1" shape="-38.43,-8.51 -9.79,38.41 -2.73,49.96"/>
    </edge>
    <edge id="56330" from="20" to="18" priority="3" type="highway.residential" spreadType="center" length="68.50">
        <lane id="56330_0" index="0" disallow="pedestrian tram rail_urban rail rail_electric rail_fast ship" speed="36.11" length="68.50" width="3.50" customShape="1" shape="-8.71,53.61 -15.76,42.05 -44.40,-4.86"/>
        <lane id="56330_1" index="1" disallow="pedestrian tram rail_urban rail rail_electric rail_fast ship" speed="36.11" length="68.50" width="3.50" customShape="1" shape="-5.72,51.79 -12.77,40.23 -41.41,-6.68"/>
    </edge>
    <edge id="56334" from="18" to="25" priority="3" type="highway.residential" spreadType="center" length="17.90" shape="-43.69,-7.05 -60.26,-31.05">
        <lane id="56334_0" index="0" disallow="pedestrian tram rail_urban rail rail_electric rail_fast ship" speed="36.11" length="17.99" width="3.50" customShape="1" shape="-45.96,-7.44 -54.99,-22.49 -55.21,-22.87"/>
        <lane id="56334_1" index="1" disallow="pedestrian tram rail_urban rail rail_electric rail_fast ship" speed="36.11" length="17.90" width="3.50" customShape="1" shape="-42.97,-9.25 -51.96,-24.24 -52.17,-24.61"/>
    </edge>
    <edge id="56656" from="25" to="1" priority="3" type="highway.residential" spreadType="center" length="17.29" shape="-56.23,-31.21 -82.51,-16.61">
        <lane id="56656_0" index="0" disallow="pedestrian tram rail_urban rail rail_electric rail_fast ship" speed="36.11" length="17.29" width="3.50" customShape="1" shape="-65.60,-24.80 -72.45,-21.48 -81.16,-17.26"/>
    </edge>
    <edge id="56724" from="25" to="3" priority="3" type="highway.residential" spreadType="center" length="17.82" shape="-55.79,-33.76 -39.21,-9.79">
        <lane id="56724_0" index="0" disallow="pedestrian tram rail_urban rail rail_electric rail_fast ship" speed="36.11" length="17.82" width="3.50" customShape="1" shape="-49.14,-26.36 -48.93,-25.99 -39.98,-11.07"/>
    </edge>
    <edge id="56865" from="25" to="5" priority="3" type="highway.residential" spreadType="center" length="15.80" shape="-58.13,-34.14 -33.32,-48.40">
        <lane id="56865_0" index="0" disallow="pedestrian tram rail_urban rail rail_electric rail_fast ship" speed="36.11" length="15.80" width="3.49" customShape="1" shape="-48.87,-40.83 -37.47,-46.42 -34.67,-47.76"/>
    </edge>
    <edge id="57018" from="25" to="7" priority="3" type="highway.residential" spreadType="center" length="22.16" shape="-58.53,-31.59 -78.32,-59.13">
        <lane id="57018_0" index="0" disallow="pedestrian tram rail_urban rail rail_electric rail_fast ship" speed="36.11" length="22.16" width="3.49" customShape="1" shape="-66.33,-38.73 -71.68,-47.84 -77.56,-57.83"/>
    </edge>

    <junction id="1" type="priority" x="-82.51" y="-16.61" incLanes="56656_0" intLanes=":1_0_0" shape="-80.39,-15.69 -81.92,-18.84 -84.62,-17.53 -83.09,-14.38" rightOfWay="edgePriority">
        <request index="0" response="0" foes="0" cont="0"/>
    </junction>
    <junction id="11" type="dead_end" x="-98.13" y="-106.10" incLanes="" intLanes="" shape="-102.64,-103.42 -93.62,-108.79" rightOfWay="edgePriority"/>
    <junction id="12" type="priority" x="-31.06" y="-43.67" incLanes="56233_0 56233_1" intLanes=":12_0_0 :12_0_1" shape="-28.20,-41.15 -31.21,-47.47 -33.92,-46.18 -30.91,-39.86" rightOfWay="edgePriority">
        <request index="0" response="00" foes="00" cont="0"/>
        <request index="1" response="00" foes="00" cont="0"/>
    </junction>
    <junction id="14" type="dead_end" x="32.13" y="-73.79" incLanes="" intLanes="" shape="30.62,-76.95 33.63,-70.63" rightOfWay="edgePriority"/>
    <junction id="15" type="priority" x="-84.80" y="-21.33" incLanes="55907_0 55907_1" intLanes=":15_0_0 :15_0_1" shape="-81.92,-18.84 -84.97,-25.13 -87.68,-23.82 -84.62,-17.53" rightOfWay="edgePriority">
        <request index="0" response="00" foes="00" cont="0"/>
        <request index="1" response="00" foes="00" cont="0"/>
    </junction>
    <junction id="17" type="dead_end" x="-146.98" y="9.09" incLanes="" intLanes="" shape="-145.42,12.23 -148.53,5.96" rightOfWay="edgePriority"/>
    <junction id="18" type="priority" x="-43.69" y="-7.05" incLanes="56330_0 56330_1" intLanes=":18_0_0 :18_0_1" shape="-45.90,-3.95 -39.92,-7.59 -41.47,-10.16 -47.46,-6.54" rightOfWay="edgePriority">
        <request index="0" response="00" foes="00" cont="0"/>
        <request index="1" response="00" foes="00" cont="0"/>
    </junction>
    <junction id="2" type="dead_end" x="-144.65" y="13.80" incLanes="55905_0" intLanes="" shape="-143.87,15.37 -145.43,12.23" rightOfWay="edgePriority"/>
    <junction id="20" type="dead_end" x="-7.22" y="52.69" incLanes="" intLanes="" shape="-4.23,50.87 -10.20,54.52" rightOfWay="edgePriority"/>
    <junction id="25" type="priority" x="-57.17" y="-32.68" incLanes="56334_0 56334_1 56237_0 56237_1 56001_0 56001_1 56001_2 55911_0 55911_1" intLanes=":25_0_0 :25_1_0 :25_2_0 :25_3_0 :25_4_0 :25_5_0 :25_6_0 :25_7_0 :25_8_0 :25_9_0 :25_10_0 :25_11_0" shape="-56.72,-22.00 -47.62,-27.23 -48.20,-29.43 -47.92,-30.44 -47.26,-31.38 -46.22,-32.27 -44.80,-33.08 -49.68,-42.38 -51.94,-41.88 -52.98,-42.14 -53.96,-42.73 -54.89,-43.66 -55.76,-44.92 -67.84,-37.85 -67.12,-35.74 -67.22,-34.83 -67.64,-34.01 -68.37,-33.29 -69.42,-32.66 -64.83,-23.22 -61.36,-24.33 -59.91,-24.32 -58.65,-23.93 -57.59,-23.15">
        <request index="0" response="000000000000" foes="000100010000" cont="0"/>
        <request index="1" response="000000000000" foes="111100110000" cont="0"/>
        <request index="2" response="000011000000" foes="110011110000" cont="0"/>
        <request index="3" response="000010000000" foes="100010000000" cont="0"/>
        <request index="4" response="000110000111" foes="100110000111" cont="0"/>
        <request index="5" response="011110000110" foes="011110000110" cont="0"/>
        <request index="6" response="000000000000" foes="010000000100" cont="0"/>
        <request index="7" response="000000000000" foes="110000111100" cont="0"/>
        <request index="8" response="000000000011" foes="110000110011" cont="0"/>
        <request index="9" response="000000000010" foes="000000100010" cont="0"/>
        <request index="10" response="000111000110" foes="000111100110" cont="0"/>
        <request index="11" response="000110011110" foes="000110011110" cont="0"/>
    </junction>
    <junction id="3" type="priority" x="-39.21" y="-9.79" incLanes="56724_0" intLanes=":3_0_0" shape="-39.92,-7.60 -36.93,-9.42 -38.48,-11.97 -41.48,-10.17" rightOfWay="edgePriority">
        <request index="0" response="0" foes="0" cont="0"/>
    </junction>
    <junction id="4" type="dead_end" x="-2.73" y="49.96" incLanes="56328_0" intLanes="" shape="-1.24,49.05 -4.23,50.87" rightOfWay="edgePriority"/>
    <junction id="5" type="priority" x="-33.32" y="-48.40" incLanes="56865_0" intLanes=":5_0_0" shape="-31.21,-47.47 -32.72,-50.63 -35.42,-49.33 -33.92,-46.18" rightOfWay="edgePriority">
        <request index="0" response="0" foes="0" cont="0"/>
    </junction>
    <junction id="6" type="dead_end" x="29.87" y="-78.53" incLanes="56231_0" intLanes="" shape="29.12,-80.11 30.62,-76.95" rightOfWay="edgePriority"/>
    <junction id="7" type="priority" x="-78.32" y="-59.13" incLanes="57018_0" intLanes=":7_0_0" shape="-79.06,-56.95 -76.05,-58.72 -77.58,-61.31 -80.59,-59.52" rightOfWay="edgePriority">
        <request index="0" response="0" foes="0" cont="0"/>
    </junction>
    <junction id="8" type="dead_end" x="-104.16" y="-102.55" incLanes="56009_0" intLanes="" shape="-105.66,-101.65 -102.65,-103.44" rightOfWay="edgePriority"/>
    <junction id="9" type="priority" x="-72.30" y="-62.70" incLanes="56006_0 56006_1 56006_2" intLanes=":9_0_0 :9_0_1 :9_0_2" shape="-76.04,-58.72 -67.01,-64.07 -68.55,-66.68 -77.58,-61.31" rightOfWay="edgePriority">
        <request index="0" response="000" foes="000" cont="0"/>
        <request index="1" response="000" foes="000" cont="0"/>
        <request index="2" response="000" foes="000" cont="0"/>
    </junction>

    <connection from="55907" to="55911" fromLane="0" toLane="0" contPos="-4.00" via=":15_0_0" dir="s" state="M"/>
    <connection from="55907" to="55911" fromLane="1" toLane="1" contPos="-4.00" via=":15_0_1" dir="s" state="M"/>
    <connection from="55911" to="57018" fromLane="0" toLane="0" contPos="-4.00" shape="-65.21,-32.75 -64.65,-33.16 -64.30,-33.74 -64.23,-34.42 -64.36,-35.09 -64.93,-36.34" via=":25_9_0" dir="r" state="m"/>
    <connection from="55911" to="56865" fromLane="0" toLane="0" contPos="-4.00" shape="-65.21,-32.75 -58.68,-35.99 -52.14,-39.23" via=":25_10_0" dir="s" state="m"/>
    <connection from="55911" to="56724" fromLane="1" toLane="0" contPos="-4.00" shape="-63.67,-29.62 -61.01,-30.74 -58.78,-31.39 -57.06,-31.66 -55.32,-31.66 -53.62,-31.27 -52.58,-30.76 -51.65,-30.06 -50.53,-28.74 -50.22,-28.24" via=":25_11_0" dir="l" state="m"/>
    <connection from="56001" to="56865" fromLane="0" toLane="0" contPos="-4.00" shape="-55.84,-41.60 -54.79,-40.09 -53.88,-39.30 -53.32,-39.07 -52.73,-39.04 -52.14,-39.23" via=":25_6_0" dir="r" state="M"/>
    <connection from="56001" to="56724" fromLane="1" toLane="0" contPos="-4.00" shape="-58.84,-39.80 -57.14,-37.24 -51.92,-30.83 -50.22,-28.24" via=":25_7_0" dir="s" state="M"/>
    <connection from="56001" to="56656" fromLane="2" toLane="0" contPos="-4.00" shape="-61.89,-38.07 -60.52,-35.39 -59.71,-33.12 -59.39,-31.34 -59.41,-30.14 -59.70,-28.97 -60.29,-27.92 -61.14,-27.08 -62.18,-26.45" via=":25_8_0" dir="l" state="m"/>
    <connection from="56006" to="56001" fromLane="0" toLane="0" contPos="-4.00" via=":9_0_0" dir="s" state="M"/>
    <connection from="56006" to="56001" fromLane="1" toLane="1" contPos="-4.00" via=":9_0_1" dir="s" state="M"/>
    <connection from="56006" to="56001" fromLane="2" toLane="2" contPos="-4.00" via=":9_0_2" dir="s" state="M"/>
    <connection from="56233" to="56237" fromLane="0" toLane="0" contPos="-4.00" via=":12_0_0" dir="s" state="M"/>
    <connection from="56233" to="56237" fromLane="1" toLane="1" contPos="-4.00" via=":12_0_1" dir="s" state="M"/>
    <connection from="56237" to="56724" fromLane="0" toLane="0" contPos="-4.00" shape="-48.97,-32.99 -50.01,-32.28 -50.43,-31.81 -50.73,-31.25 -50.87,-30.64 -50.86,-30.01 -50.51,-28.80 -50.22,-28.24" via=":25_3_0" dir="r" state="m"/>
    <connection from="56237" to="56656" fromLane="0" toLane="0" contPos="-4.00" shape="-48.97,-32.99 -55.57,-29.72 -62.18,-26.45" via=":25_4_0" dir="s" state="m"/>
    <connection from="56237" to="57018" fromLane="1" toLane="0" contPos="-4.00" shape="-50.60,-36.08 -53.67,-34.68 -56.38,-33.79 -58.62,-33.39 -60.32,-33.39 -61.44,-33.59 -62.51,-33.99 -63.47,-34.60 -64.28,-35.40 -64.93,-36.34" via=":25_5_0" dir="l" state="m"/>
    <connection from="56330" to="56334" fromLane="0" toLane="0" contPos="-4.00" via=":18_0_0" dir="s" state="M"/>
    <connection from="56330" to="56334" fromLane="1" toLane="1" contPos="-4.00" via=":18_0_1" dir="s" state="M"/>
    <connection from="56334" to="56656" fromLane="0" toLane="0" contPos="-4.00" shape="-56.30,-24.77 -57.03,-25.80 -57.98,-26.61 -58.54,-26.88 -59.15,-27.04 -60.39,-27.03 -61.60,-26.70 -62.18,-26.45" via=":25_0_0" dir="r" state="M"/>
    <connection from="56334" to="57018" fromLane="0" toLane="0" contPos="-4.00" shape="-56.30,-24.77 -58.01,-27.36 -63.22,-33.76 -64.93,-36.34" via=":25_1_0" dir="s" state="M"/>
    <connection from="56334" to="56865" fromLane="1" toLane="0" contPos="-4.00" shape="-53.27,-26.53 -54.57,-29.12 -55.34,-31.33 -55.65,-33.05 -55.61,-34.80 -55.32,-35.93 -54.79,-36.97 -54.05,-37.87 -52.67,-38.94 -52.14,-39.23" via=":25_2_0" dir="l" state="m"/>
    <connection from="56656" to="55905" fromLane="0" toLane="0" contPos="-4.00" via=":1_0_0" dir="s" state="M"/>
    <connection from="56724" to="56328" fromLane="0" toLane="0" contPos="-4.00" via=":3_0_0" dir="s" state="M"/>
    <connection from="56865" to="56231" fromLane="0" toLane="0" contPos="-4.00" via=":5_0_0" dir="s" state="M"/>
    <connection from="57018" to="56009" fromLane="0" toLane="0" contPos="-4.00" via=":7_0_0" dir="s" state="M"/>

    <connection from=":1_0" to="55905" fromLane="0" toLane="0" dir="s" state="M"/>