<routes>
	<vehicle depart="0.1" departLane="0" departPos="24.43514527642024" departSpeed="7.983406" id="313" type="bicycle">
		<route edges="57018 56009"/>
	</vehicle>
	<vehicle depart="0.1" departLane="2" departPos="7.109785294999618" departSpeed="0.35576173" id="32" type="passenger">
		<route edges="56001 56656"/>
	</vehicle>
	<vehicle depart="0.1" departLane="0" departPos="11.674691372295134" departSpeed="0.57283088" id="321" type="passenger">
		<route edges=":25_8 56656 55905"/>
	</vehicle>
	<vehicle depart="0.1" departLane="1" departPos="17.570422006759124" departSpeed="2.9799248" id="322" type="passenger">
		<route edges="56237 57018"/>
	</vehicle>
	<vehicle depart="0.1" departLane="2" departPos="53.015635260919886" departSpeed="0.020213066" id="336" type="passenger">
		<route edges="56006 56001 56656"/>
	</vehicle>
	<vehicle depart="0.1" departLane="2" departPos="26.816413045456336" departSpeed="0.46596254" id="334" type="motorcycle">
		<route edges="56001 56656"/>
	</vehicle>
	<vehicle depart="0.1" departLane="0" departPos="11.390215487912023" departSpeed="12.321903" id="339" type="motorcycle">
		<route edges=":25_1 57018 56009"/>
	</vehicle>
	<vehicle depart="0.1" departLane="2" departPos="32.905000941749606" departSpeed="0.97063022" id="340" type="motorcycle">
		<route edges="56006 56001"/>
	</vehicle>
	<vehicle depart="0.1" departLane="1" departPos="46.729404749486164" departSpeed="0.59095305" id="30" type="truck">
		<route edges="56006 56001"/>
	</vehicle>
</routes>
