<routes>
	<vehicle depart="0.1" departLane="0" departPos="11.278336297187384" departSpeed="1.1014441" id="339" type="passenger">
		<route edges=":65_4 41844"/>
	</vehicle>
	<vehicle depart="0.1" departLane="0" departPos="21.130955288335475" departSpeed="2.3914459" id="340" type="passenger">
		<route edges=":67_5 41750"/>
	</vehicle>
	<vehicle depart="0.1" departLane="0" departPos="23.859875767944718" departSpeed="9.6828995" id="354" type="passenger">
		<route edges=":65_5 41747 41625 41724"/>
	</vehicle>
	<vehicle depart="0.1" departLane="0" departPos="32.360005722906" departSpeed="3.081047" id="365" type="passenger">
		<route edges=":65_3 41781 41778"/>
	</vehicle>
	<vehicle depart="0.1" departLane="0" departPos="28.89117651003859" departSpeed="0.0069979504" id="372" type="passenger">
		<route edges="41845 41747"/>
	</vehicle>
	<vehicle depart="0.1" departLane="0" departPos="55.79447654766859" departSpeed="3.0869593" id="373" type="passenger">
		<route edges="41749 41625"/>
	</vehicle>
	<vehicle depart="0.1" departLane="0" departPos="21.375494456857048" departSpeed="0.026030928" id="378" type="passenger">
		<route edges="41845 41747"/>
	</vehicle>
	<vehicle depart="0.1" departLane="0" departPos="14.028258483909676" departSpeed="0.048783063" id="387" type="passenger">
		<route edges="41845 41747"/>
	</vehicle>
	<vehicle depart="0.1" departLane="0" departPos="6.654248363048026" departSpeed="0.070442345" id="397" type="passenger">
		<route edges="41845 41747"/>
	</vehicle>
	<vehicle depart="0.1" departLane="0" departPos="35.88395447190781" departSpeed="2.0858443" id="366" type="truck">
		<route edges=":67_1 41746 41844"/>
	</vehicle>
</routes>
