<!-- generated on Tue Feb  9 22:02:36 2021 by Eclipse SUMO netconvert Version 1.8.0
<configuration xmlns:xsi="http://www.w3.org/2001/XMLSchema-instance" xsi:noNamespaceSchemaLocation="http://sumo.dlr.de/xsd/netconvertConfiguration.xsd">

    <input>
        <node-files value="./converted_scenarios/scenario-factory/ITA_CarpiCentro-1_1_I-1-1/ITA_CarpiCentro-1_1_I-1-1.nod.xml"/>
        <edge-files value="./converted_scenarios/scenario-factory/ITA_CarpiCentro-1_1_I-1-1/ITA_CarpiCentro-1_1_I-1-1.edg.xml"/>
        <connection-files value="./converted_scenarios/scenario-factory/ITA_CarpiCentro-1_1_I-1-1/ITA_CarpiCentro-1_1_I-1-1.con.xml"/>
        <tllogic-files value="./converted_scenarios/scenario-factory/ITA_CarpiCentro-1_1_I-1-1/ITA_CarpiCentro-1_1_I-1-1.tll.xml"/>
        <type-files value="/home/zen/commonroad-interactive-benchmarks/install/commonroad-map-tool/crmapconverter/sumo_map/templates/DEU.typ.xml"/>
    </input>

    <output>
        <output-file value="./converted_scenarios/scenario-factory/ITA_CarpiCentro-1_1_I-1-1/ITA_CarpiCentro-1_1_I-1-1.net.xml"/>
    </output>

    <processing>
        <geometry.remove.keep-edges.explicit value="true"/>
        <geometry.avoid-overlap value="true"/>
        <offset.disable-normalization value="true"/>
    </processing>

    <junctions>
        <no-turnarounds value="true"/>
        <junctions.internal-link-detail value="20"/>
    </junctions>

    <report>
        <aggregate-warnings value="5"/>
    </report>

    <random_number>
        <seed value="1234"/>
    </random_number>

</configuration>
--><net xmlns:xsi="http://www.w3.org/2001/XMLSchema-instance" version="1.6" junctionCornerDetail="5" junctionLinkDetail="20" limitTurnSpeed="5.50" xsi:noNamespaceSchemaLocation="http://sumo.dlr.de/xsd/net_file.xsd">

    <location netOffset="0.00,0.00" convBoundary="-817.13,350.23,-523.37,563.58" origBoundary="-817.13,350.23,-523.37,563.58" projParameter="!"/>

    <type id="highway.bridleway" priority="1" speed="2.78" allow="pedestrian" oneway="1" width="2.00"/>
    <type id="highway.bus_guideway" priority="1" speed="27.78" allow="bus" oneway="1"/>
    <type id="highway.cycleway" priority="1" speed="8.33" allow="bicycle" oneway="0" width="1.00"/>
    <type id="highway.footway" priority="1" speed="2.78" allow="pedestrian" oneway="1" width="2.00"/>
    <type id="highway.ford" priority="1" speed="2.78" allow="army" oneway="0"/>
    <type id="highway.living_street" priority="2" speed="2.78" disallow="tram rail_urban rail rail_electric rail_fast ship" oneway="0"/>
    <type id="highway.motorway" priority="14" speed="39.44" allow="private emergency authority army vip passenger hov taxi bus coach delivery truck trailer motorcycle evehicle custom1 custom2" oneway="1"/>
    <type id="highway.motorway_link" priority="9" speed="22.22" allow="private emergency authority army vip passenger hov taxi bus coach delivery truck trailer motorcycle evehicle custom1 custom2" oneway="1"/>
    <type id="highway.path" priority="1" speed="2.78" allow="pedestrian bicycle" oneway="0" width="2.00"/>
    <type id="highway.pedestrian" priority="1" speed="2.78" allow="pedestrian" oneway="1" width="2.00"/>
    <type id="highway.primary" priority="12" speed="27.78" disallow="pedestrian tram rail_urban rail rail_electric rail_fast ship" oneway="0"/>
    <type id="highway.primary_link" priority="7" speed="22.22" disallow="pedestrian tram rail_urban rail rail_electric rail_fast ship" oneway="0"/>
    <type id="highway.raceway" priority="15" speed="83.33" allow="vip" oneway="0"/>
    <type id="highway.residential" priority="3" speed="13.89" disallow="pedestrian tram rail_urban rail rail_electric rail_fast ship" oneway="0"/>
    <type id="highway.secondary" priority="11" speed="27.78" disallow="pedestrian tram rail_urban rail rail_electric rail_fast ship" oneway="0"/>
    <type id="highway.secondary_link" priority="6" speed="22.22" disallow="pedestrian tram rail_urban rail rail_electric rail_fast ship" oneway="0"/>
    <type id="highway.service" priority="1" speed="5.56" allow="pedestrian delivery bicycle" oneway="0"/>
    <type id="highway.stairs" priority="1" speed="1.39" allow="pedestrian" oneway="1" width="2.00"/>
    <type id="highway.step" priority="1" speed="1.39" allow="pedestrian" oneway="1" width="2.00"/>
    <type id="highway.steps" priority="1" speed="1.39" allow="pedestrian" oneway="1" width="2.00"/>
    <type id="highway.tertiary" priority="10" speed="22.22" disallow="pedestrian tram rail_urban rail rail_electric rail_fast ship" oneway="0"/>
    <type id="highway.tertiary_link" priority="5" speed="22.22" disallow="pedestrian tram rail_urban rail rail_electric rail_fast ship" oneway="0"/>
    <type id="highway.track" priority="1" speed="5.56" allow="pedestrian motorcycle moped bicycle" oneway="0"/>
    <type id="highway.trunk" priority="13" speed="27.78" disallow="pedestrian bicycle tram rail_urban rail rail_electric rail_fast ship" oneway="0"/>
    <type id="highway.trunk_link" priority="8" speed="22.22" disallow="pedestrian bicycle tram rail_urban rail rail_electric rail_fast ship" oneway="0"/>
    <type id="highway.unclassified" priority="4" speed="13.89" disallow="pedestrian tram rail_urban rail rail_electric rail_fast ship" oneway="0"/>
    <type id="highway.unsurfaced" priority="1" speed="8.33" disallow="tram rail_urban rail rail_electric rail_fast ship" oneway="0"/>
    <type id="railway.highspeed" priority="21" speed="69.44" allow="rail_fast" oneway="1"/>
    <type id="railway.light_rail" priority="19" speed="27.78" allow="rail_urban" oneway="1"/>
    <type id="railway.preserved" priority="16" speed="27.78" allow="rail" oneway="1"/>
    <type id="railway.rail" priority="20" speed="44.44" allow="rail" oneway="1"/>
    <type id="railway.subway" priority="18" speed="27.78" allow="rail_urban" oneway="1"/>
    <type id="railway.tram" priority="17" speed="13.89" allow="tram" oneway="1"/>

    <edge id=":56_0" function="internal">
        <lane id=":56_0_0" index="0" disallow="pedestrian tram rail_urban rail rail_electric rail_fast ship" speed="36.11" length="3.00" width="3.50" shape="-746.25,378.47 -747.26,375.64"/>
    </edge>
    <edge id=":59_0" function="internal">
        <lane id=":59_0_0" index="0" disallow="pedestrian tram rail_urban rail rail_electric rail_fast ship" speed="36.11" length="3.00" width="3.50" shape="-743.97,374.46 -742.95,377.28"/>
    </edge>
    <edge id=":63_0" function="internal">
        <lane id=":63_0_0" index="0" disallow="pedestrian tram rail_urban rail rail_electric rail_fast ship" speed="36.11" length="39.01" width="3.50" shape="-693.59,454.16 -695.48,454.97 -729.53,469.33"/>
    </edge>
    <edge id=":63_1" function="internal">
        <lane id=":63_1_0" index="0" disallow="pedestrian tram rail_urban rail rail_electric rail_fast ship" speed="12.17" length="34.16" width="3.50" shape="-693.59,454.16 -697.17,455.47 -699.69,456.11 -702.29,456.48 -704.91,456.52 -706.29,456.39 -707.62,456.15 -708.93,455.79 -710.22,455.32 -711.45,454.74 -712.62,454.06 -713.73,453.28 -714.79,452.41 -716.62,450.53 -718.20,448.46 -719.56,446.25 -721.21,442.86"/>
    </edge>
    <edge id=":63_2" function="internal">
        <lane id=":63_2_0" index="0" disallow="pedestrian tram rail_urban rail rail_electric rail_fast ship" speed="11.16" length="28.57" width="3.50" shape="-717.99,441.49 -716.56,444.43 -715.41,446.30 -714.08,448.05 -712.54,449.63 -711.69,450.33 -710.79,450.96 -709.84,451.52 -708.85,451.99 -707.82,452.37 -706.75,452.65 -705.67,452.85 -704.58,452.96 -702.38,452.93 -700.20,452.62 -698.06,452.08 -694.97,450.94"/>
    </edge>
    <edge id=":63_3" function="internal">
        <lane id=":63_3_0" index="0" disallow="pedestrian tram rail_urban rail rail_electric rail_fast ship" speed="12.21" length="34.52" width="3.50" shape="-717.99,441.49 -716.69,445.08 -716.05,447.63 -715.68,450.26 -715.65,452.92 -715.78,454.30 -716.03,455.65 -716.39,456.98 -716.87,458.28 -717.46,459.52 -718.15,460.71 -718.94,461.82 -719.83,462.89 -721.74,464.73 -723.85,466.33 -726.09,467.69 -729.53,469.33"/>
    </edge>
    <edge id=":63_4" function="internal">
        <lane id=":63_4_0" index="0" disallow="pedestrian tram rail_urban rail rail_electric rail_fast ship" speed="11.21" length="28.94" width="3.50" shape="-730.91,466.11 -727.89,464.67 -725.98,463.52 -724.20,462.18 -722.60,460.63 -721.89,459.77 -721.24,458.86 -720.68,457.90 -720.20,456.89 -719.81,455.85 -719.52,454.77 -719.32,453.68 -719.21,452.57 -719.24,450.34 -719.55,448.13 -720.09,445.97 -721.21,442.86"/>
    </edge>
    <edge id=":63_5" function="internal">
        <lane id=":63_5_0" index="0" disallow="pedestrian tram rail_urban rail rail_electric rail_fast ship" speed="36.11" length="39.01" width="3.50" shape="-730.91,466.11 -696.85,451.75 -694.97,450.94"/>
    </edge>
    <edge id=":64_0" function="internal">
        <lane id=":64_0_0" index="0" disallow="pedestrian tram rail_urban rail rail_electric rail_fast ship" speed="36.11" length="38.03" width="3.50" shape="-606.29,417.19 -617.71,421.84 -641.41,431.79"/>
    </edge>
    <edge id=":64_1" function="internal">
        <lane id=":64_1_0" index="0" disallow="pedestrian tram rail_urban rail rail_electric rail_fast ship" speed="12.11" length="34.31" width="3.50" shape="-606.29,417.19 -607.50,417.65 -609.93,418.43 -612.46,419.00 -615.08,419.30 -617.72,419.25 -619.09,419.06 -620.42,418.76 -621.73,418.34 -622.99,417.79 -624.19,417.14 -625.33,416.38 -626.39,415.53 -627.39,414.59 -629.09,412.59 -630.54,410.41 -631.75,408.12 -633.20,404.61"/>
    </edge>
    <edge id=":64_2" function="internal">
        <lane id=":64_2_0" index="0" disallow="pedestrian tram rail_urban rail rail_electric rail_fast ship" speed="11.10" length="28.64" width="3.50" shape="-629.93,403.37 -628.65,406.48 -627.62,408.43 -626.41,410.26 -624.99,411.93 -624.19,412.69 -623.33,413.38 -622.42,413.99 -621.46,414.52 -620.45,414.95 -619.40,415.30 -618.33,415.54 -617.25,415.69 -615.05,415.74 -612.87,415.50 -610.72,415.01 -608.63,414.34 -607.60,413.95"/>
    </edge>
    <edge id=":64_3" function="internal">
        <lane id=":64_3_0" index="0" disallow="pedestrian tram rail_urban rail rail_electric rail_fast ship" speed="12.46" length="34.67" width="3.50" shape="-629.92,403.37 -628.79,407.11 -628.26,409.62 -627.96,412.17 -627.92,414.73 -628.20,417.28 -628.83,419.76 -629.29,420.96 -629.84,422.11 -631.19,424.28 -632.86,426.23 -634.77,427.94 -636.86,429.42 -639.08,430.70 -641.41,431.79"/>
    </edge>
    <edge id=":64_4" function="internal">
        <lane id=":64_4_0" index="0" disallow="pedestrian tram rail_urban rail rail_electric rail_fast ship" speed="11.49" length="29.27" width="3.50" shape="-642.80,428.58 -640.76,427.62 -638.85,426.53 -637.07,425.26 -635.48,423.83 -634.11,422.22 -632.99,420.41 -632.56,419.49 -632.20,418.55 -631.68,416.47 -631.46,414.35 -631.49,412.19 -631.76,410.01 -632.21,407.84 -633.20,404.61"/>
    </edge>
    <edge id=":64_5" function="internal">
        <lane id=":64_5_0" index="0" disallow="pedestrian tram rail_urban rail rail_electric rail_fast ship" speed="36.11" length="38.12" width="3.50" shape="-642.80,428.58 -619.05,418.61 -607.60,413.95"/>
    </edge>
    <edge id=":65_0" function="internal">
        <lane id=":65_0_0" index="0" disallow="pedestrian tram rail_urban rail rail_electric rail_fast ship" speed="10.96" length="24.88" width="3.50" shape="-572.16,415.76 -573.30,414.02 -573.97,413.23 -574.71,412.51 -575.52,411.86 -576.39,411.29 -577.31,410.82 -578.28,410.43 -579.27,410.13 -580.29,409.92 -582.36,409.72 -584.43,409.78 -586.49,410.05 -589.53,410.73 -592.50,411.67 -594.41,412.40"/>
    </edge>
    <edge id=":65_1" function="internal">
        <lane id=":65_1_0" index="0" disallow="pedestrian tram rail_urban rail rail_electric rail_fast ship" speed="36.11" length="33.31" width="3.50" shape="-572.16,415.76 -577.57,405.67 -581.71,397.27 -584.21,391.54 -585.67,387.64 -586.29,385.65"/>
    </edge>
    <edge id=":65_2" function="internal">
        <lane id=":65_2_0" index="0" disallow="pedestrian tram rail_urban rail rail_electric rail_fast ship" speed="36.11" length="32.46" width="3.50" shape="-582.92,384.71 -582.34,386.57 -580.93,390.33 -578.48,395.91 -574.42,404.14 -569.11,414.03"/>
    </edge>
    <edge id=":65_3" function="internal">
        <lane id=":65_3_0" index="0" disallow="pedestrian tram rail_urban rail rail_electric rail_fast ship" speed="12.65" length="33.50" width="3.50" shape="-582.92,384.71 -582.31,387.13 -581.67,390.80 -581.48,393.34 -581.54,395.91 -581.89,398.48 -582.58,401.01 -583.63,403.41 -584.32,404.58 -585.08,405.67 -585.95,406.72 -587.81,408.52 -589.90,410.07 -592.12,411.36 -594.41,412.40"/>
    </edge>
    <edge id=":65_4" function="internal">
        <lane id=":65_4_0" index="0" disallow="pedestrian tram rail_urban rail rail_electric rail_fast ship" speed="11.68" length="28.35" width="3.50" shape="-595.73,409.16 -593.76,408.26 -591.87,407.17 -590.13,405.86 -588.58,404.33 -587.89,403.48 -587.27,402.58 -586.73,401.63 -585.87,399.63 -585.32,397.52 -585.05,395.35 -585.01,393.17 -585.18,391.00 -585.75,387.77 -586.29,385.65"/>
    </edge>
    <edge id=":65_5" function="internal">
        <lane id=":65_5_0" index="0" disallow="pedestrian tram rail_urban rail rail_electric rail_fast ship" speed="12.04" length="29.96" width="3.50" shape="-595.73,409.16 -593.52,408.32 -590.11,407.26 -586.59,406.51 -584.13,406.24 -581.64,406.23 -579.16,406.54 -577.88,406.84 -576.65,407.26 -575.45,407.78 -574.31,408.42 -573.23,409.16 -572.23,410.01 -571.31,410.93 -570.47,411.95 -569.11,414.03"/>
    </edge>
    <edge id=":66_0" function="internal">
        <lane id=":66_0_0" index="0" disallow="pedestrian tram rail_urban rail rail_electric rail_fast ship" speed="10.47" length="30.65" width="3.50" shape="-603.67,469.57 -604.23,465.86 -604.82,463.50 -605.65,461.22 -606.15,460.19 -606.74,459.20 -607.40,458.28 -608.13,457.46 -608.95,456.74 -609.84,456.14 -610.81,455.65 -611.84,455.29 -612.92,455.05 -614.04,454.93 -615.19,454.91 -616.34,454.97 -618.73,455.36 -621.08,455.99 -624.62,457.32"/>
    </edge>
    <edge id=":66_1" function="internal">
        <lane id=":66_1_0" index="0" disallow="pedestrian tram rail_urban rail rail_electric rail_fast ship" speed="14.38" length="37.03" width="3.50" shape="-603.67,469.57 -603.97,464.94 -603.93,461.43 -603.60,457.92 -602.92,454.44 -602.23,452.13 -601.33,449.89 -600.20,447.74 -598.85,445.72 -597.27,443.85 -595.50,442.17 -593.56,440.71 -591.49,439.46 -589.34,438.42"/>
    </edge>
    <edge id=":66_2" function="internal">
        <lane id=":66_2_0" index="0" disallow="pedestrian tram rail_urban rail rail_electric rail_fast ship" speed="13.51" length="32.58" width="3.50" shape="-587.94,441.63 -589.83,442.54 -591.63,443.64 -593.30,444.91 -594.81,446.37 -596.15,447.99 -597.29,449.75 -598.24,451.63 -599.00,453.59 -599.59,455.61 -600.17,458.71 -600.44,461.85 -600.47,465.00 -600.19,469.20"/>
    </edge>
    <edge id=":66_3" function="internal">
        <lane id=":66_3_0" index="0" disallow="pedestrian tram rail_urban rail rail_electric rail_fast ship" speed="36.11" length="39.89" width="3.50" shape="-587.94,441.63 -606.26,449.47 -624.62,457.32"/>
    </edge>
    <edge id=":66_4" function="internal">
        <lane id=":66_4_0" index="0" disallow="pedestrian tram rail_urban rail rail_electric rail_fast ship" speed="36.11" length="39.86" width="3.50" shape="-625.99,454.10 -607.64,446.25 -589.34,438.42"/>
    </edge>
    <edge id=":66_5" function="internal">
        <lane id=":66_5_0" index="0" disallow="pedestrian tram rail_urban rail rail_electric rail_fast ship" speed="11.52" length="37.43" width="3.50" shape="-625.99,454.10 -621.92,452.58 -619.14,451.83 -616.30,451.37 -614.87,451.28 -613.43,451.31 -612.00,451.48 -610.60,451.79 -609.24,452.27 -607.95,452.91 -606.76,453.71 -605.68,454.66 -604.72,455.73 -603.88,456.90 -603.15,458.14 -602.52,459.44 -601.54,462.14 -600.84,464.93 -600.19,469.20"/>
    </edge>
    <edge id=":67_0" function="internal">
        <lane id=":67_0_0" index="0" disallow="pedestrian tram rail_urban rail rail_electric rail_fast ship" speed="11.48" length="29.37" width="3.50" shape="-556.39,446.76 -556.88,445.75 -557.99,443.80 -559.24,441.99 -560.66,440.36 -562.25,438.94 -564.04,437.77 -564.95,437.32 -565.92,436.94 -566.89,436.64 -569.00,436.25 -571.14,436.17 -573.30,436.36 -575.47,436.77 -577.61,437.37 -580.80,438.57"/>
    </edge>
    <edge id=":67_1" function="internal">
        <lane id=":67_1_0" index="0" disallow="pedestrian tram rail_urban rail rail_electric rail_fast ship" speed="36.11" length="34.54" width="3.50" shape="-556.39,446.76 -559.55,440.14 -566.12,427.04 -572.04,415.97"/>
    </edge>
    <edge id=":67_2" function="internal">
        <lane id=":67_2_0" index="0" disallow="pedestrian tram rail_urban rail rail_electric rail_fast ship" speed="36.11" length="34.75" width="3.50" shape="-568.98,414.28 -563.01,425.42 -556.41,438.60 -553.23,445.25"/>
    </edge>
    <edge id=":67_3" function="internal">
        <lane id=":67_3_0" index="0" disallow="pedestrian tram rail_urban rail rail_electric rail_fast ship" speed="11.33" length="31.52" width="3.50" shape="-568.98,414.28 -567.81,416.71 -566.96,419.28 -566.68,420.70 -566.54,422.11 -566.55,423.55 -566.73,424.98 -567.08,426.39 -567.59,427.74 -568.24,429.02 -569.02,430.21 -569.88,431.30 -570.84,432.33 -572.85,434.08 -575.03,435.60 -577.31,436.91 -580.80,438.57"/>
    </edge>
    <edge id=":67_4" function="internal">
        <lane id=":67_4_0" index="0" disallow="pedestrian tram rail_urban rail rail_electric rail_fast ship" speed="10.22" length="25.56" width="3.50" shape="-582.18,435.36 -579.16,433.93 -577.23,432.83 -575.40,431.58 -573.70,430.14 -572.93,429.34 -572.22,428.49 -571.59,427.57 -571.05,426.60 -570.63,425.57 -570.33,424.50 -570.16,423.41 -570.12,422.30 -570.21,421.19 -570.40,420.10 -571.07,417.98 -572.04,415.97"/>
    </edge>
    <edge id=":67_5" function="internal">
        <lane id=":67_5_0" index="0" disallow="pedestrian tram rail_urban rail rail_electric rail_fast ship" speed="12.46" length="34.80" width="3.50" shape="-582.18,435.36 -578.56,434.00 -576.07,433.30 -573.54,432.83 -570.97,432.62 -568.40,432.72 -565.87,433.20 -564.64,433.58 -563.44,434.06 -562.29,434.64 -560.14,436.06 -558.22,437.78 -556.54,439.73 -555.07,441.85 -553.80,444.10 -553.23,445.25"/>
    </edge>
    <edge id=":68_0" function="internal">
        <lane id=":68_0_0" index="0" disallow="pedestrian tram rail_urban rail rail_electric rail_fast ship" speed="10.75" length="29.42" width="3.50" shape="-664.73,495.62 -665.73,492.12 -666.56,489.94 -667.58,487.86 -668.82,485.94 -669.51,485.11 -670.26,484.32 -671.08,483.62 -671.95,483.01 -672.88,482.51 -673.85,482.10 -674.87,481.81 -675.92,481.62 -677.00,481.53 -678.11,481.53 -679.19,481.61 -681.47,482.02 -683.70,482.68 -685.92,483.53"/>
    </edge>
    <edge id=":68_1" function="internal">
        <lane id=":68_1_0" index="0" disallow="pedestrian tram rail_urban rail rail_electric rail_fast ship" speed="13.40" length="36.77" width="3.50" shape="-664.73,495.62 -665.44,492.07 -665.86,488.50 -665.90,484.89 -665.68,482.44 -665.21,480.02 -664.48,477.64 -663.46,475.36 -662.16,473.21 -660.61,471.25 -658.84,469.50 -656.90,467.98 -654.82,466.65 -651.60,465.05"/>
    </edge>
    <edge id=":68_2" function="internal">
        <lane id=":68_2_0" index="0" disallow="pedestrian tram rail_urban rail rail_electric rail_fast ship" speed="12.48" length="31.78" width="3.50" shape="-650.20,468.25 -653.04,469.67 -654.83,470.82 -656.49,472.14 -657.99,473.63 -659.29,475.30 -660.37,477.13 -661.22,479.07 -661.83,481.10 -662.21,483.19 -662.39,485.30 -662.34,488.48 -661.97,491.64 -661.34,494.74"/>
    </edge>
    <edge id=":68_3" function="internal">
        <lane id=":68_3_0" index="0" disallow="pedestrian tram rail_urban rail rail_electric rail_fast ship" speed="36.11" length="38.85" width="3.50" shape="-650.20,468.25 -668.05,475.89 -685.92,483.53"/>
    </edge>
    <edge id=":68_4" function="internal">
        <lane id=":68_4_0" index="0" disallow="pedestrian tram rail_urban rail rail_electric rail_fast ship" speed="36.11" length="38.82" width="3.50" shape="-687.29,480.32 -669.42,472.67 -651.60,465.05"/>
    </edge>
    <edge id=":68_5" function="internal">
        <lane id=":68_5_0" index="0" disallow="pedestrian tram rail_urban rail rail_electric rail_fast ship" speed="11.79" length="35.60" width="3.50" shape="-687.29,480.32 -684.72,479.32 -682.09,478.55 -679.40,478.06 -678.03,477.94 -676.67,477.93 -675.30,478.04 -673.95,478.28 -672.64,478.65 -671.37,479.16 -670.16,479.81 -669.03,480.58 -667.99,481.47 -667.03,482.45 -666.16,483.50 -664.67,485.80 -663.45,488.25 -662.47,490.80 -661.34,494.74"/>
    </edge>
    <edge id=":69_0" function="internal">
        <lane id=":69_0_0" index="0" disallow="pedestrian tram rail_urban rail rail_electric rail_fast ship" speed="11.46" length="28.60" width="3.50" shape="-726.61,430.14 -727.07,429.11 -728.11,427.09 -729.30,425.20 -730.67,423.48 -732.21,421.97 -733.97,420.70 -734.87,420.20 -735.84,419.77 -736.83,419.41 -737.83,419.13 -739.99,418.80 -742.17,418.76 -744.38,418.97 -746.58,419.39 -749.87,420.36"/>
    </edge>
    <edge id=":69_1" function="internal">
        <lane id=":69_1_0" index="0" disallow="pedestrian tram rail_urban rail rail_electric rail_fast ship" speed="36.11" length="38.22" width="3.50" shape="-726.61,430.14 -732.49,415.80 -738.02,401.33 -740.49,394.53"/>
    </edge>
    <edge id=":69_2" function="internal">
        <lane id=":69_2_0" index="0" disallow="pedestrian tram rail_urban rail rail_electric rail_fast ship" speed="36.11" length="38.02" width="3.50" shape="-737.20,393.35 -734.74,400.11 -729.24,414.51 -723.39,428.77"/>
    </edge>
    <edge id=":69_3" function="internal">
        <lane id=":69_3_0" index="0" disallow="pedestrian tram rail_urban rail rail_electric rail_fast ship" speed="12.15" length="34.19" width="3.50" shape="-737.20,393.35 -736.42,395.77 -735.82,398.26 -735.45,400.83 -735.36,403.46 -735.62,406.08 -735.91,407.43 -736.31,408.73 -736.82,410.00 -737.45,411.21 -738.18,412.36 -739.00,413.44 -739.92,414.46 -741.88,416.20 -744.05,417.68 -746.34,418.91 -749.87,420.36"/>
    </edge>
    <edge id=":69_4" function="internal">
        <lane id=":69_4_0" index="0" disallow="pedestrian tram rail_urban rail rail_electric rail_fast ship" speed="11.14" length="28.57" width="3.50" shape="-751.02,417.05 -747.97,415.80 -746.03,414.76 -744.22,413.53 -742.58,412.06 -741.84,411.25 -741.18,410.37 -740.59,409.44 -740.09,408.46 -739.67,407.44 -739.35,406.39 -739.12,405.32 -738.90,403.13 -738.98,400.94 -739.30,398.76 -739.82,396.63 -740.49,394.53"/>
    </edge>
    <edge id=":69_5" function="internal">
        <lane id=":69_5_0" index="0" disallow="pedestrian tram rail_urban rail rail_electric rail_fast ship" speed="12.45" length="33.92" width="3.50" shape="-751.02,417.05 -747.26,415.95 -744.70,415.46 -742.10,415.22 -739.49,415.27 -736.92,415.68 -735.66,416.02 -734.43,416.47 -733.25,417.01 -732.11,417.65 -730.00,419.18 -728.13,421.00 -726.51,423.05 -725.12,425.25 -723.92,427.57 -723.39,428.77"/>
    </edge>

    <edge id="41624" from="66" to="67" priority="3" type="highway.residential" spreadType="center" length="7.79" shape="-606.20,453.55 -569.79,431.18">
        <lane id="41624_0" index="0" disallow="pedestrian tram rail_urban rail rail_electric rail_fast ship" speed="36.11" length="7.79" width="3.50" customShape="1" shape="-589.34,438.42 -585.75,436.88 -582.18,435.36"/>
    </edge>
    <edge id="41625" from="67" to="66" priority="3" type="highway.residential" spreadType="center" length="7.79" shape="-567.96,434.16 -604.37,456.53">
        <lane id="41625_0" index="0" disallow="pedestrian tram rail_urban rail rail_electric rail_fast ship" speed="36.11" length="7.79" width="3.50" customShape="1" shape="-580.80,438.57 -584.37,440.10 -587.96,441.64"/>
    </edge>
    <edge id="41627" from="68" to="66" priority="3" type="highway.residential" spreadType="center" length="27.88" shape="-667.57,479.65 -605.97,453.43">
        <lane id="41627_0" index="0" disallow="pedestrian tram rail_urban rail rail_electric rail_fast ship" speed="36.11" length="27.88" width="3.50" customShape="1" shape="-651.60,465.05 -638.77,459.56 -625.97,454.09"/>
    </edge>
    <edge id="41628" from="66" to="68" priority="3" type="highway.residential" spreadType="center" length="27.85" shape="-604.60,456.65 -666.20,482.87">
        <lane id="41628_0" index="0" disallow="pedestrian tram rail_urban rail rail_electric rail_fast ship" speed="36.11" length="27.85" width="3.50" customShape="1" shape="-624.62,457.32 -637.39,462.78 -650.23,468.27"/>
    </edge>
    <edge id="41630" from="46" to="68" priority="3" type="highway.residential" spreadType="center" length="70.00" shape="-751.63,507.85 -667.37,479.57">
        <lane id="41630_0" index="0" disallow="pedestrian tram rail_urban rail rail_electric rail_fast ship" speed="36.11" length="70.00" width="3.50" customShape="1" shape="-751.63,507.85 -728.11,497.78 -687.27,480.31"/>
    </edge>
    <edge id="41631" from="68" to="27" priority="3" type="highway.residential" spreadType="center" length="70.00" shape="-666.26,482.89 -750.27,511.07">
        <lane id="41631_0" index="0" disallow="pedestrian tram rail_urban rail rail_electric rail_fast ship" speed="36.11" length="70.00" width="3.50" customShape="1" shape="-685.92,483.53 -726.73,501.00 -750.27,511.07"/>
    </edge>
    <edge id="41636" from="61" to="69" priority="3" type="highway.residential" spreadType="center" length="70.00" shape="-817.13,440.07 -738.64,412.38">
        <lane id="41636_0" index="0" disallow="pedestrian tram rail_urban rail rail_electric rail_fast ship" speed="36.11" length="70.00" width="3.50" customShape="1" shape="-817.13,440.07 -799.46,433.92 -751.02,417.05"/>
    </edge>
    <edge id="41637" from="69" to="54" priority="3" type="highway.residential" spreadType="center" length="69.99" shape="-737.48,415.68 -815.97,443.37">
        <lane id="41637_0" index="0" disallow="pedestrian tram rail_urban rail rail_electric rail_fast ship" speed="36.11" length="69.99" width="3.50" customShape="1" shape="-749.87,420.36 -798.31,437.22 -815.97,443.37"/>
    </edge>
    <edge id="41723" from="33" to="66" priority="3" type="highway.residential" spreadType="center" length="70.01" shape="-596.43,539.19 -607.03,455.22">
        <lane id="41723_0" index="0" disallow="pedestrian tram rail_urban rail rail_electric rail_fast ship" speed="36.11" length="70.01" width="3.50" customShape="1" shape="-596.43,539.19 -598.25,521.73 -603.67,469.56"/>
    </edge>
    <edge id="41724" from="66" to="17" priority="3" type="highway.residential" spreadType="center" length="70.00" shape="-603.56,454.78 -592.95,538.82">
        <lane id="41724_0" index="0" disallow="pedestrian tram rail_urban rail rail_electric rail_fast ship" speed="36.11" length="70.00" width="3.50" customShape="1" shape="-600.19,469.20 -594.76,521.37 -592.95,538.82"/>
    </edge>
    <edge id="41746" from="67" to="65" priority="3" type="highway.residential" spreadType="center" length="0.24" shape="-570.45,433.57 -585.00,404.40">
        <lane id="41746_0" index="0" disallow="pedestrian tram rail_urban rail rail_electric rail_fast ship" speed="36.11" length="0.24" width="3.50" customShape="1" shape="-572.04,415.97 -572.10,415.87 -572.16,415.76"/>
    </edge>
    <edge id="41747" from="65" to="67" priority="3" type="highway.residential" spreadType="center" length="0.32" shape="-581.87,402.84 -567.33,432.01">
        <lane id="41747_0" index="0" disallow="pedestrian tram rail_urban rail rail_electric rail_fast ship" speed="36.11" length="0.32" width="3.50" customShape="1" shape="-569.11,414.03 -569.03,414.17 -568.96,414.31"/>
    </edge>
    <edge id="41749" from="57" to="67" priority="3" type="highway.residential" spreadType="center" length="70.02" shape="-526.53,510.07 -570.47,433.55">
        <lane id="41749_0" index="0" disallow="pedestrian tram rail_urban rail rail_electric rail_fast ship" speed="36.11" length="70.02" width="3.50" customShape="1" shape="-526.53,510.07 -534.50,493.18 -556.40,446.74"/>
    </edge>
    <edge id="41750" from="67" to="45" priority="3" type="highway.residential" spreadType="center" length="70.00" shape="-567.43,431.80 -523.37,508.56">
        <lane id="41750_0" index="0" disallow="pedestrian tram rail_urban rail rail_electric rail_fast ship" speed="36.11" length="70.00" width="3.50" customShape="1" shape="-553.23,445.25 -531.33,491.69 -523.37,508.56"/>
    </edge>
    <edge id="41775" from="63" to="35" priority="3" type="highway.residential" spreadType="center" length="70.00" shape="-713.89,455.70 -794.17,496.20">
        <lane id="41775_0" index="0" disallow="pedestrian tram rail_urban rail rail_electric rail_fast ship" speed="36.11" length="70.00" width="3.50" customShape="1" shape="-729.53,469.33 -794.17,496.20"/>
    </edge>
    <edge id="41776" from="58" to="63" priority="3" type="highway.residential" spreadType="center" length="70.03" shape="-795.55,492.98 -715.46,452.57">
        <lane id="41776_0" index="0" disallow="pedestrian tram rail_urban rail rail_electric rail_fast ship" speed="36.11" length="70.03" width="3.50" customShape="1" shape="-795.55,492.98 -730.88,466.10"/>
    </edge>
    <edge id="41778" from="64" to="63" priority="3" type="highway.residential" spreadType="center" length="56.80" shape="-626.15,418.19 -714.02,455.76">
        <lane id="41778_0" index="0" disallow="pedestrian tram rail_urban rail rail_electric rail_fast ship" speed="36.11" length="56.80" width="3.50" customShape="1" shape="-641.41,431.79 -667.49,442.98 -693.62,454.17"/>
    </edge>
    <edge id="41779" from="63" to="64" priority="3" type="highway.residential" spreadType="center" length="56.77" shape="-715.39,452.54 -627.53,414.97">