<routes>
	<vehicle depart="0.1" departLane="0" departPos="20.288845365064685" departSpeed="6.2908384" id="39" type="bicycle">
		<route edges=":44_4 4550 3656"/>
	</vehicle>
	<vehicle depart="0.1" departLane="0" departPos="69.9970218231971" departSpeed="0.0" id="337" type="bus">
		<route edges="3785 4553"/>
	</vehicle>
	<vehicle depart="0.1" departLane="0" departPos="2.5" departSpeed="2.811394" id="32" type="passenger">
		<route edges=":44_3 4159 7004"/>
	</vehicle>
	<vehicle depart="0.1" departLane="0" departPos="33.25873695296752" departSpeed="0.08240859" id="34" type="passenger">
		<route edges="4153 4560"/>
	</vehicle>
	<vehicle depart="0.1" departLane="0" departPos="23.223635110781697" departSpeed="0.082671229" id="36" type="passenger">
		<route edges="4153 4560"/>
	</vehicle>
	<vehicle depart="0.1" departLane="0" departPos="8.61155662632964" departSpeed="0.26210515" id="310" type="passenger">
		<route edges=":43_5 3786"/>
	</vehicle>
	<vehicle depart="0.1" departLane="0" departPos="33.90579520802192" departSpeed="2.5692573" id="313" type="passenger">
		<route edges="4160 4550"/>
	</vehicle>
	<vehicle depart="0.1" departLane="0" departPos="13.866926936912893" departSpeed="0.070765179" id="329" type="passenger">
		<route edges=":46_4 4556"/>
	</vehicle>
	<vehicle depart="0.1" departLane="0" departPos="6.1914961277218" departSpeed="3.3576727" id="334" type="passenger">
		<route edges=":44_4 4550"/>
	</vehicle>
	<vehicle depart="0.1" departLane="0" departPos="31.014741573127875" departSpeed="1.4456392" id="339" type="passenger">
		<route edges="6973 4160 4550"/>
	</vehicle>
</routes>
