<routes>
	<vehicle depart="0.1" departLane="1" departPos="92.55263394677527" departSpeed="13.405535" id="1" type="passenger">
		<route edges="26 26 27 24"/>
	</vehicle>
	<vehicle depart="0.1" departLane="0" departPos="0" departSpeed="13.637568" id="2" type="passenger">
		<route edges="26 27 24"/>
	</vehicle>
	<vehicle depart="0.1" departLane="0" departPos="0" departSpeed="13.405535" id="3" type="passenger">
		<route edges="26 27 24"/>
	</vehicle>
</routes>
