<routes>
	<vehicle depart="0.1" departLane="2" departPos="5.572164347294622" departSpeed="19.899881" id="361" type="passenger">
		<route edges=":5_0 125685"/>
	</vehicle>
</routes>
