<routes>
	<vehicle depart="0.1" departLane="0" departPos="25.73762766118002" departSpeed="5.2869235" id="37" type="bicycle">
		<route edges=":66_1 66307 66304"/>
	</vehicle>
	<vehicle depart="0.1" departLane="0" departPos="18.193487906184508" departSpeed="8.1230182" id="354" type="bicycle">
		<route edges=":67_0 66233 66307"/>
	</vehicle>
	<vehicle depart="0.1" departLane="0" departPos="2.5" departSpeed="2.726905" id="315" type="passenger">
		<route edges=":62_0 66308"/>
	</vehicle>
	<vehicle depart="0.1" departLane="0" departPos="7.9004160238165655" departSpeed="9.9095395" id="329" type="passenger">
		<route edges="66234 66341"/>
	</vehicle>
	<vehicle depart="0.1" departLane="0" departPos="15.291960307192147" departSpeed="0.68959279" id="330" type="passenger">
		<route edges=":66_5 66234"/>
	</vehicle>
	<vehicle depart="0.1" departLane="0" departPos="2.5" departSpeed="0.029552948" id="334" type="passenger">
		<route edges=":66_5 66234"/>
	</vehicle>
	<vehicle depart="0.1" departLane="0" departPos="53.08218414596338" departSpeed="0.27673545" id="340" type="passenger">
		<route edges="66310 66307"/>
	</vehicle>
	<vehicle depart="0.1" departLane="0" departPos="15.750396301110174" departSpeed="5.9350422" id="341" type="passenger">
		<route edges=":66_0 66311"/>
	</vehicle>
	<vehicle depart="0.1" departLane="0" departPos="17.10021037013545" departSpeed="4.8230267" id="349" type="passenger">
		<route edges="66233 66307 66379"/>
	</vehicle>
	<vehicle depart="0.1" departLane="0" departPos="3.9912778990694657" departSpeed="1.904779" id="322" type="motorcycle">
		<route edges=":66_1 66307 66379"/>
	</vehicle>
</routes>
