<routes>
	<vehicle depart="0.1" departLane="0" departPos="9.460389486666214" departSpeed="5.7350876" id="38" type="bicycle">
		<route edges="110110 108713"/>
	</vehicle>
	<vehicle depart="0.1" departLane="0" departPos="13.136178161853602" departSpeed="0.97507197" id="39" type="passenger">
		<route edges=":27_5 108343"/>
	</vehicle>
	<vehicle depart="0.1" departLane="0" departPos="13.533495483898315" departSpeed="2.1286465" id="310" type="passenger">
		<route edges=":28_5 109825 108346"/>
	</vehicle>
	<vehicle depart="0.1" departLane="0" departPos="2.5" departSpeed="2.0342466" id="314" type="passenger">
		<route edges="108346 107070"/>
	</vehicle>
	<vehicle depart="0.1" departLane="0" departPos="2.5" departSpeed="0.00040602161" id="322" type="passenger">
		<route edges="108353 110246"/>
	</vehicle>
	<vehicle depart="0.1" departLane="0" departPos="30.345898688439593" departSpeed="1.8955943" id="329" type="passenger">
		<route edges=":27_1 108347"/>
	</vehicle>
	<vehicle depart="0.1" departLane="0" departPos="15.729530812017861" departSpeed="0.90893942" id="332" type="passenger">
		<route edges=":27_0 107070"/>
	</vehicle>
	<vehicle depart="0.1" departLane="0" departPos="54.129366069231004" departSpeed="0.25252804" id="336" type="passenger">
		<route edges="108344 107070"/>
	</vehicle>
	<vehicle depart="0.1" departLane="0" departPos="9.065055891396991" departSpeed="0.0" id="33" type="motorcycle">
		<route edges="108353 110110"/>
	</vehicle>
	<vehicle depart="0.1" departLane="0" departPos="6.355599787049741" departSpeed="0.23784644" id="30" type="truck">
		<route edges="108347 108353"/>
	</vehicle>
</routes>
