<routes>
	<vehicle depart="0.1" departLane="0" departPos="34.02245553794616" departSpeed="0.0" id="39" type="bicycle">
		<route edges="51888 52097"/>
	</vehicle>
	<vehicle depart="0.1" departLane="0" departPos="9.58554240843702" departSpeed="3.6142167" id="312" type="bicycle">
		<route edges=":57_2 52101"/>
	</vehicle>
	<vehicle depart="0.1" departLane="0" departPos="42.78267898844358" departSpeed="0.0" id="311" type="passenger">
		<route edges="52007 52094"/>
	</vehicle>
	<vehicle depart="0.1" departLane="0" departPos="35.321314531273146" departSpeed="0.0" id="314" type="passenger">
		<route edges="52007 52094"/>
	</vehicle>
	<vehicle depart="0.1" departLane="0" departPos="18.970187271574527" departSpeed="12.843283" id="329" type="passenger">
		<route edges=":57_4 51889 51766"/>
	</vehicle>
	<vehicle depart="0.1" departLane="0" departPos="22.207232067787384" departSpeed="11.863367" id="351" type="passenger">
		<route edges=":56_3 52008 52011"/>
	</vehicle>
	<vehicle depart="0.1" departLane="0" departPos="2.5" departSpeed="8.5167293" id="358" type="passenger">
		<route edges=":56_3 52008"/>
	</vehicle>
	<vehicle depart="0.1" departLane="0" departPos="21.640708449464487" departSpeed="7.32843" id="380" type="passenger">
		<route edges="52095 52008"/>
	</vehicle>
	<vehicle depart="0.1" departLane="0" departPos="31.50936004121278" departSpeed="11.508973" id="348" type="motorcycle">
		<route edges=":56_5 52098 52101 52493 51907 51813"/>
	</vehicle>
	<vehicle depart="0.1" departLane="0" departPos="59.10569703673084" departSpeed="8.6311916" id="376" type="truck">
		<route edges="52095 52098"/>
	</vehicle>
</routes>
