<routes>
	<vehicle depart="0.1" departLane="0" departPos="24.98762302360911" departSpeed="0.0" id="34" type="passenger">
		<route edges="3337 3901"/>
	</vehicle>
	<vehicle depart="0.1" departLane="0" departPos="2.5" departSpeed="0.50886114" id="317" type="passenger">
		<route edges=":70_0 3901 3898"/>
	</vehicle>
	<vehicle depart="0.1" departLane="0" departPos="23.631111525645064" departSpeed="4.5601332" id="324" type="passenger">
		<route edges=":70_11 3793 3575"/>
	</vehicle>
	<vehicle depart="0.1" departLane="0" departPos="10.484404401312535" departSpeed="5.0966008" id="344" type="passenger">
		<route edges=":71_4 3902"/>
	</vehicle>
	<vehicle depart="0.1" departLane="0" departPos="9.323883516891202" departSpeed="3.449735" id="345" type="passenger">
		<route edges=":70_10 3629"/>
	</vehicle>
	<vehicle depart="0.1" departLane="0" departPos="10.019745712762823" departSpeed="4.6547113" id="349" type="passenger">
		<route edges="3902 3793"/>
	</vehicle>
	<vehicle depart="0.1" departLane="0" departPos="19.326100835466296" departSpeed="5.5346275" id="380" type="passenger">
		<route edges="3901 3898"/>
	</vehicle>
	<vehicle depart="0.1" departLane="0" departPos="50.46501425003064" departSpeed="9.7605895" id="398" type="passenger">
		<route edges="3628 3901"/>
	</vehicle>
	<vehicle depart="0.1" departLane="0" departPos="34.98901279652456" departSpeed="0.0" id="350" type="truck">
		<route edges="3337 3901"/>
	</vehicle>
	<vehicle depart="0.1" departLane="0" departPos="25.312257056226187" departSpeed="10.540448" id="372" type="truck">
		<route edges=":71_3 3898 3895"/>
	</vehicle>
</routes>
