<!-- generated on Tue Feb  9 22:07:56 2021 by Eclipse SUMO netconvert Version 1.8.0
<configuration xmlns:xsi="http://www.w3.org/2001/XMLSchema-instance" xsi:noNamespaceSchemaLocation="http://sumo.dlr.de/xsd/netconvertConfiguration.xsd">

    <input>
        <node-files value="./converted_scenarios/scenario-factory/FRA_Miramas-3_2_I-1-1/FRA_Miramas-3_2_I-1-1.nod.xml"/>
        <edge-files value="./converted_scenarios/scenario-factory/FRA_Miramas-3_2_I-1-1/FRA_Miramas-3_2_I-1-1.edg.xml"/>
        <connection-files value="./converted_scenarios/scenario-factory/FRA_Miramas-3_2_I-1-1/FRA_Miramas-3_2_I-1-1.con.xml"/>
        <tllogic-files value="./converted_scenarios/scenario-factory/FRA_Miramas-3_2_I-1-1/FRA_Miramas-3_2_I-1-1.tll.xml"/>
        <type-files value="/home/zen/commonroad-interactive-benchmarks/install/commonroad-map-tool/crmapconverter/sumo_map/templates/DEU.typ.xml"/>
    </input>

    <output>
        <output-file value="./converted_scenarios/scenario-factory/FRA_Miramas-3_2_I-1-1/FRA_Miramas-3_2_I-1-1.net.xml"/>
    </output>

    <processing>
        <geometry.remove.keep-edges.explicit value="true"/>
        <geometry.avoid-overlap value="true"/>
        <offset.disable-normalization value="true"/>
    </processing>

    <junctions>
        <no-turnarounds value="true"/>
        <junctions.internal-link-detail value="20"/>
    </junctions>

    <report>
        <aggregate-warnings value="5"/>
    </report>

    <random_number>
        <seed value="1234"/>
    </random_number>

</configuration>
--><net xmlns:xsi="http://www.w3.org/2001/XMLSchema-instance" version="1.6" junctionCornerDetail="5" junctionLinkDetail="20" limitTurnSpeed="5.50" xsi:noNamespaceSchemaLocation="http://sumo.dlr.de/xsd/net_file.xsd">

    <location netOffset="0.00,0.00" convBoundary="-1034.60,433.70,-606.95,763.32" origBoundary="-1034.60,433.70,-606.95,763.32" projParameter="!"/>

    <type id="highway.bridleway" priority="1" speed="2.78" allow="pedestrian" oneway="1" width="2.00"/>
    <type id="highway.bus_guideway" priority="1" speed="27.78" allow="bus" oneway="1"/>
    <type id="highway.cycleway" priority="1" speed="8.33" allow="bicycle" oneway="0" width="1.00"/>
    <type id="highway.footway" priority="1" speed="2.78" allow="pedestrian" oneway="1" width="2.00"/>
    <type id="highway.ford" priority="1" speed="2.78" allow="army" oneway="0"/>
    <type id="highway.living_street" priority="2" speed="2.78" disallow="tram rail_urban rail rail_electric rail_fast ship" oneway="0"/>
    <type id="highway.motorway" priority="14" speed="39.44" allow="private emergency authority army vip passenger hov taxi bus coach delivery truck trailer motorcycle evehicle custom1 custom2" oneway="1"/>
    <type id="highway.motorway_link" priority="9" speed="22.22" allow="private emergency authority army vip passenger hov taxi bus coach delivery truck trailer motorcycle evehicle custom1 custom2" oneway="1"/>
    <type id="highway.path" priority="1" speed="2.78" allow="pedestrian bicycle" oneway="0" width="2.00"/>
    <type id="highway.pedestrian" priority="1" speed="2.78" allow="pedestrian" oneway="1" width="2.00"/>
    <type id="highway.primary" priority="12" speed="27.78" disallow="pedestrian tram rail_urban rail rail_electric rail_fast ship" oneway="0"/>
    <type id="highway.primary_link" priority="7" speed="22.22" disallow="pedestrian tram rail_urban rail rail_electric rail_fast ship" oneway="0"/>
    <type id="highway.raceway" priority="15" speed="83.33" allow="vip" oneway="0"/>
    <type id="highway.residential" priority="3" speed="13.89" disallow="pedestrian tram rail_urban rail rail_electric rail_fast ship" oneway="0"/>
    <type id="highway.secondary" priority="11" speed="27.78" disallow="pedestrian tram rail_urban rail rail_electric rail_fast ship" oneway="0"/>
    <type id="highway.secondary_link" priority="6" speed="22.22" disallow="pedestrian tram rail_urban rail rail_electric rail_fast ship" oneway="0"/>
    <type id="highway.service" priority="1" speed="5.56" allow="pedestrian delivery bicycle" oneway="0"/>
    <type id="highway.stairs" priority="1" speed="1.39" allow="pedestrian" oneway="1" width="2.00"/>
    <type id="highway.step" priority="1" speed="1.39" allow="pedestrian" oneway="1" width="2.00"/>
    <type id="highway.steps" priority="1" speed="1.39" allow="pedestrian" oneway="1" width="2.00"/>
    <type id="highway.tertiary" priority="10" speed="22.22" disallow="pedestrian tram rail_urban rail rail_electric rail_fast ship" oneway="0"/>
    <type id="highway.tertiary_link" priority="5" speed="22.22" disallow="pedestrian tram rail_urban rail rail_electric rail_fast ship" oneway="0"/>
    <type id="highway.track" priority="1" speed="5.56" allow="pedestrian motorcycle moped bicycle" oneway="0"/>
    <type id="highway.trunk" priority="13" speed="27.78" disallow="pedestrian bicycle tram rail_urban rail rail_electric rail_fast ship" oneway="0"/>
    <type id="highway.trunk_link" priority="8" speed="22.22" disallow="pedestrian bicycle tram rail_urban rail rail_electric rail_fast ship" oneway="0"/>
    <type id="highway.unclassified" priority="4" speed="13.89" disallow="pedestrian tram rail_urban rail rail_electric rail_fast ship" oneway="0"/>
    <type id="highway.unsurfaced" priority="1" speed="8.33" disallow="tram rail_urban rail rail_electric rail_fast ship" oneway="0"/>
    <type id="railway.highspeed" priority="21" speed="69.44" allow="rail_fast" oneway="1"/>
    <type id="railway.light_rail" priority="19" speed="27.78" allow="rail_urban" oneway="1"/>
    <type id="railway.preserved" priority="16" speed="27.78" allow="rail" oneway="1"/>
    <type id="railway.rail" priority="20" speed="44.44" allow="rail" oneway="1"/>
    <type id="railway.subway" priority="18" speed="27.78" allow="rail_urban" oneway="1"/>
    <type id="railway.tram" priority="17" speed="13.89" allow="tram" oneway="1"/>

    <edge id=":122_0" function="internal">
        <lane id=":122_0_0" index="0" disallow="pedestrian tram rail_urban rail rail_electric rail_fast ship" speed="36.11" length="2.99" width="3.50" shape="-722.98,693.25 -723.48,690.30"/>
    </edge>
    <edge id=":127_0" function="internal">
        <lane id=":127_0_0" index="0" disallow="pedestrian tram rail_urban rail rail_electric rail_fast ship" speed="10.33" length="24.32" width="3.50" shape="-816.00,637.88 -816.48,636.82 -818.11,633.64 -819.33,631.68 -820.70,629.84 -822.24,628.18 -823.05,627.48 -823.91,626.84 -824.82,626.29 -825.76,625.85 -826.73,625.51 -827.73,625.30 -828.75,625.19 -829.79,625.20 -830.83,625.33 -831.84,625.54 -833.99,626.29"/>
    </edge>
    <edge id=":127_1" function="internal">
        <lane id=":127_1_0" index="0" disallow="pedestrian tram rail_urban rail rail_electric rail_fast ship" speed="12.28" length="34.29" width="3.50" shape="-816.00,637.88 -816.94,635.51 -817.71,633.05 -818.26,630.50 -818.53,627.87 -818.45,625.23 -818.25,623.85 -817.95,622.53 -817.53,621.23 -817.00,619.97 -816.37,618.76 -815.64,617.61 -814.81,616.51 -813.00,614.59 -810.97,612.91 -808.80,611.47 -805.43,609.70"/>
    </edge>
    <edge id=":127_2" function="internal">
        <lane id=":127_2_0" index="0" disallow="pedestrian tram rail_urban rail rail_electric rail_fast ship" speed="11.29" length="28.80" width="3.50" shape="-803.95,612.87 -806.89,614.41 -808.74,615.64 -810.45,617.05 -811.96,618.67 -812.63,619.55 -813.22,620.49 -813.73,621.47 -814.16,622.49 -814.50,623.55 -814.75,624.63 -814.90,625.73 -814.97,627.94 -814.74,630.14 -814.27,632.31 -813.61,634.42 -812.79,636.48"/>
    </edge>
    <edge id=":127_3" function="internal">
        <lane id=":127_3_0" index="0" disallow="pedestrian tram rail_urban rail rail_electric rail_fast ship" speed="36.11" length="32.90" width="3.50" shape="-803.95,612.87 -827.36,623.40 -833.99,626.29"/>
    </edge>
    <edge id=":127_4" function="internal">
        <lane id=":127_4_0" index="0" disallow="pedestrian tram rail_urban rail rail_electric rail_fast ship" speed="36.11" length="32.83" width="3.50" shape="-835.40,623.09 -828.77,620.20 -805.43,609.70"/>
    </edge>
    <edge id=":127_5" function="internal">
        <lane id=":127_5_0" index="0" disallow="pedestrian tram rail_urban rail rail_electric rail_fast ship" speed="11.43" length="29.90" width="3.50" shape="-835.40,623.09 -832.78,622.16 -831.46,621.86 -830.11,621.68 -828.76,621.63 -827.40,621.73 -826.07,621.98 -824.78,622.38 -823.53,622.92 -822.35,623.59 -821.24,624.36 -820.20,625.23 -818.31,627.18 -816.67,629.34 -815.22,631.63 -813.35,635.25 -812.79,636.48"/>
    </edge>
    <edge id=":128_0" function="internal">
        <lane id=":128_0_0" index="0" disallow="pedestrian tram rail_urban rail rail_electric rail_fast ship" speed="10.04" length="23.66" width="3.50" shape="-726.61,671.29 -726.83,670.19 -727.14,669.16 -727.55,668.17 -728.09,667.23 -728.74,666.38 -729.51,665.63 -730.36,664.98 -731.29,664.45 -732.28,664.02 -733.30,663.68 -734.35,663.43 -736.47,663.15 -738.62,663.08 -740.77,663.19 -743.97,663.58 -746.06,663.96"/>
    </edge>
    <edge id=":128_1" function="internal">
        <lane id=":128_1_0" index="0" disallow="pedestrian tram rail_urban rail rail_electric rail_fast ship" speed="36.11" length="32.84" width="3.50" shape="-726.62,671.29 -730.39,647.96 -731.94,638.88"/>
        <lane id=":128_1_1" index="1" disallow="pedestrian tram rail_urban rail rail_electric rail_fast ship" speed="36.11" length="32.84" width="3.50" shape="-726.62,671.29 -730.39,647.96 -731.94,638.88"/>
    </edge>
    <edge id=":128_3" function="internal">
        <lane id=":128_3_0" index="0" disallow="pedestrian tram rail_urban rail rail_electric rail_fast ship" speed="11.78" length="30.36" width="3.50" shape="-726.62,671.30 -726.84,668.61 -726.80,667.30 -726.65,665.99 -726.38,664.70 -725.99,663.44 -725.47,662.23 -724.83,661.08 -724.07,660.00 -723.22,658.99 -722.29,658.06 -720.22,656.43 -717.97,655.07 -715.59,653.94 -711.87,652.59 -708.05,651.58"/>
    </edge>
    <edge id=":128_4" function="internal">
        <lane id=":128_4_0" index="0" disallow="pedestrian tram rail_urban rail rail_electric rail_fast ship" speed="10.67" length="25.01" width="3.50" shape="-707.28,654.99 -710.63,655.88 -713.89,657.03 -715.92,657.97 -717.84,659.09 -719.59,660.42 -720.34,661.12 -721.03,661.91 -721.64,662.74 -722.17,663.62 -722.60,664.54 -722.93,665.50 -723.16,666.50 -723.29,667.53 -723.34,668.54 -723.16,670.72"/>
    </edge>
    <edge id=":128_5" function="internal">
        <lane id=":128_5_0" index="0" disallow="pedestrian tram rail_urban rail rail_electric rail_fast ship" speed="36.11" length="39.81" width="3.50" shape="-707.28,654.99 -737.88,662.23 -746.06,663.96"/>
    </edge>
    <edge id=":128_6" function="internal">
        <lane id=":128_6_0" index="0" disallow="pedestrian tram rail_urban rail rail_electric rail_fast ship" speed="12.00" length="34.11" width="3.50" shape="-707.28,654.99 -711.00,655.64 -713.57,655.84 -716.18,655.77 -718.76,655.38 -720.09,655.03 -721.36,654.58 -722.60,654.01 -723.78,653.32 -724.90,652.53 -725.93,651.64 -726.88,650.67 -727.75,649.60 -729.16,647.39 -730.26,645.01 -731.10,642.56 -731.94,638.88"/>
    </edge>
    <edge id=":128_7" function="internal">
        <lane id=":128_7_0" index="0" disallow="pedestrian tram rail_urban rail rail_electric rail_fast ship" speed="12.00" length="34.11" width="3.50" shape="-707.28,654.99 -711.00,655.64 -713.57,655.84 -716.18,655.77 -718.76,655.38 -720.09,655.03 -721.36,654.58 -722.60,654.01 -723.78,653.32 -724.90,652.53 -725.93,651.64 -726.88,650.67 -727.75,649.60 -729.16,647.39 -730.26,645.01 -731.10,642.56 -731.94,638.88"/>
    </edge>
    <edge id=":128_8" function="internal">
        <lane id=":128_8_0" index="0" disallow="pedestrian tram rail_urban rail rail_electric rail_fast ship" speed="10.95" length="28.33" width="3.50" shape="-728.49,638.28 -727.77,641.45 -727.06,643.52 -726.14,645.49 -724.97,647.33 -724.28,648.17 -723.52,648.95 -722.69,649.66 -721.80,650.29 -720.85,650.84 -719.86,651.29 -718.83,651.65 -717.78,651.93 -715.62,652.26 -713.44,652.31 -711.27,652.14 -708.05,651.58"/>
    </edge>
    <edge id=":128_9" function="internal">
        <lane id=":128_9_0" index="0" disallow="pedestrian tram rail_urban rail rail_electric rail_fast ship" speed="36.11" length="32.88" width="3.50" shape="-728.49,638.28 -726.94,647.38 -723.16,670.72"/>
    </edge>
    <edge id=":128_10" function="internal">
        <lane id=":128_10_0" index="0" disallow="pedestrian tram rail_urban rail rail_electric rail_fast ship" speed="12.53" length="35.38" width="3.50" shape="-728.49,638.28 -728.04,642.05 -727.97,644.64 -728.16,647.24 -728.66,649.83 -729.49,652.34 -730.08,653.59 -730.74,654.77 -731.51,655.89 -732.36,656.94 -733.32,657.94 -735.35,659.63 -737.59,661.03 -739.95,662.15 -742.39,663.03 -746.06,663.96"/>
    </edge>
    <edge id=":128_11" function="internal">
        <lane id=":128_11_0" index="0" disallow="pedestrian tram rail_urban rail rail_electric rail_fast ship" speed="11.52" length="29.91" width="3.50" shape="-746.76,660.53 -743.54,659.71 -741.46,658.96 -739.45,658.01 -737.57,656.84 -735.87,655.42 -735.10,654.62 -734.41,653.76 -733.78,652.84 -733.23,651.88 -732.76,650.87 -732.06,648.77 -731.65,646.59 -731.49,644.38 -731.54,642.16 -731.94,638.88"/>
    </edge>
    <edge id=":128_12" function="internal">
        <lane id=":128_12_0" index="0" disallow="pedestrian tram rail_urban rail rail_electric rail_fast ship" speed="11.52" length="29.91" width="3.50" shape="-746.76,660.53 -743.54,659.71 -741.46,658.96 -739.45,658.01 -737.57,656.84 -735.87,655.42 -735.10,654.62 -734.41,653.76 -733.78,652.84 -733.23,651.88 -732.76,650.87 -732.06,648.77 -731.65,646.59 -731.49,644.38 -731.54,642.16 -731.94,638.88"/>
    </edge>
    <edge id=":128_13" function="internal">
        <lane id=":128_13_0" index="0" disallow="pedestrian tram rail_urban rail rail_electric rail_fast ship" speed="36.11" length="39.73" width="3.50" shape="-746.76,660.53 -738.61,658.80 -708.05,651.58"/>
    </edge>
    <edge id=":128_14" function="internal">
        <lane id=":128_14_0" index="0" disallow="pedestrian tram rail_urban rail rail_electric rail_fast ship" speed="11.18" length="29.34" width="3.50" shape="-746.76,660.53 -744.30,660.09 -740.58,659.66 -738.03,659.57 -735.44,659.71 -732.87,660.14 -731.55,660.51 -730.27,661.00 -729.03,661.62 -727.85,662.39 -726.76,663.31 -725.80,664.36 -724.98,665.52 -724.32,666.77 -723.80,668.06 -723.42,669.38 -723.16,670.72"/>
    </edge>
    <edge id=":129_0" function="internal">
        <lane id=":129_0_0" index="0" disallow="pedestrian tram rail_urban rail rail_electric rail_fast ship" speed="11.18" length="28.75" width="3.50" shape="-852.55,703.73 -853.36,700.53 -854.13,698.46 -855.10,696.47 -856.31,694.62 -857.02,693.76 -857.79,692.97 -858.62,692.24 -859.52,691.59 -860.47,691.02 -861.46,690.54 -862.50,690.14 -864.64,689.60 -866.84,689.35 -869.05,689.35 -871.26,689.56 -873.44,689.94"/>
    </edge>
    <edge id=":129_1" function="internal">
        <lane id=":129_1_0" index="0" disallow="pedestrian tram rail_urban rail rail_electric rail_fast ship" speed="12.18" length="34.03" width="3.50" shape="-852.55,703.73 -852.96,701.25 -853.19,698.71 -853.20,696.12 -852.92,693.52 -852.30,690.97 -851.83,689.67 -851.26,688.44 -850.59,687.27 -849.81,686.15 -848.94,685.11 -847.99,684.15 -846.95,683.25 -844.79,681.78 -842.45,680.59 -840.03,679.66 -836.38,678.70"/>
    </edge>
    <edge id=":129_2" function="internal">
        <lane id=":129_2_0" index="0" disallow="pedestrian tram rail_urban rail rail_electric rail_fast ship" speed="11.18" length="28.49" width="3.50" shape="-835.64,682.12 -838.82,682.96 -840.87,683.74 -842.83,684.74 -844.64,685.98 -845.47,686.69 -846.24,687.47 -846.94,688.32 -847.56,689.22 -848.10,690.18 -848.56,691.17 -848.94,692.20 -849.45,694.34 -849.68,696.52 -849.67,698.71 -849.47,700.90 -849.12,703.03"/>
    </edge>
    <edge id=":129_3" function="internal">
        <lane id=":129_3_0" index="0" disallow="pedestrian tram rail_urban rail rail_electric rail_fast ship" speed="36.11" length="38.60" width="3.50" shape="-835.64,682.12 -854.54,686.03 -873.44,689.94"/>
    </edge>
    <edge id=":129_4" function="internal">
        <lane id=":129_4_0" index="0" disallow="pedestrian tram rail_urban rail rail_electric rail_fast ship" speed="36.11" length="38.57" width="3.50" shape="-874.15,686.51 -855.25,682.60 -836.38,678.70"/>
    </edge>
    <edge id=":129_5" function="internal">
        <lane id=":129_5_0" index="0" disallow="pedestrian tram rail_urban rail rail_electric rail_fast ship" speed="12.19" length="34.35" width="3.50" shape="-874.15,686.51 -871.63,686.08 -869.06,685.83 -866.44,685.83 -863.81,686.13 -861.24,686.78 -859.93,687.28 -858.70,687.88 -857.53,688.58 -856.42,689.39 -855.39,690.29 -854.44,691.26 -853.56,692.33 -852.12,694.54 -850.96,696.90 -850.06,699.35 -849.12,703.03"/>
    </edge>
    <edge id=":130_0" function="internal">
        <lane id=":130_0_0" index="0" disallow="pedestrian tram rail_urban rail rail_electric rail_fast ship" speed="11.53" length="30.73" width="3.50" shape="-796.85,692.26 -797.36,690.06 -798.05,687.94 -798.93,685.92 -800.03,684.06 -801.39,682.37 -802.12,681.66 -802.93,680.99 -803.79,680.39 -804.70,679.86 -805.65,679.40 -806.62,679.03 -808.74,678.46 -810.91,678.16 -813.12,678.08 -816.53,678.31 -819.91,678.87"/>
    </edge>
    <edge id=":130_1" function="internal">
        <lane id=":130_1_0" index="0" disallow="pedestrian tram rail_urban rail rail_electric rail_fast ship" speed="36.11" length="40.53" width="3.50" shape="-796.85,692.26 -798.41,685.15 -800.27,678.12 -802.74,670.18 -805.55,662.36 -808.69,654.66 -809.10,653.71"/>
    </edge>
    <edge id=":130_2" function="internal">
        <lane id=":130_2_0" index="0" disallow="pedestrian tram rail_urban rail rail_electric rail_fast ship" speed="12.21" length="34.25" width="3.50" shape="-796.85,692.26 -797.26,689.74 -797.48,687.18 -797.47,684.58 -797.16,681.96 -796.51,679.41 -796.03,678.11 -795.44,676.88 -794.75,675.71 -793.95,674.60 -793.07,673.56 -792.10,672.61 -791.04,671.72 -788.86,670.27 -786.50,669.10 -784.06,668.19 -780.36,667.25"/>
    </edge>
    <edge id=":130_3" function="internal">
        <lane id=":130_3_0" index="0" disallow="pedestrian tram rail_urban rail rail_electric rail_fast ship" speed="11.21" length="28.67" width="3.50" shape="-779.67,670.68 -782.88,671.50 -784.95,672.26 -786.92,673.24 -788.76,674.47 -789.60,675.18 -790.38,675.95 -791.10,676.79 -791.74,677.69 -792.30,678.64 -792.77,679.64 -793.16,680.67 -793.70,682.81 -793.95,685.00 -793.96,687.21 -793.77,689.40 -793.42,691.57"/>
    </edge>
    <edge id=":130_4" function="internal">
        <lane id=":130_4_0" index="0" disallow="pedestrian tram rail_urban rail rail_electric rail_fast ship" speed="36.11" length="41.06" width="3.50" shape="-779.67,670.68 -799.79,674.77 -819.91,678.87"/>
    </edge>
    <edge id=":130_5" function="internal">
        <lane id=":130_5_0" index="0" disallow="pedestrian tram rail_urban rail rail_electric rail_fast ship" speed="13.86" length="37.32" width="3.50" shape="-779.67,670.68 -783.37,671.21 -785.85,671.33 -788.34,671.22 -790.80,670.86 -793.20,670.22 -795.52,669.31 -797.71,668.13 -799.75,666.71 -801.62,665.07 -803.32,663.25 -805.57,660.28 -807.48,657.07 -809.10,653.71"/>
    </edge>
    <edge id=":130_6" function="internal">
        <lane id=":130_6_0" index="0" disallow="pedestrian tram rail_urban rail rail_electric rail_fast ship" speed="12.97" length="32.53" width="3.50" shape="-805.89,652.31 -804.44,655.33 -802.74,658.18 -800.76,660.83 -799.29,662.40 -797.69,663.82 -795.95,665.05 -794.08,666.06 -792.12,666.85 -790.06,667.40 -787.95,667.71 -785.79,667.82 -783.64,667.72 -780.36,667.25"/>
    </edge>
    <edge id=":130_7" function="internal">
        <lane id=":130_7_0" index="0" disallow="pedestrian tram rail_urban rail rail_electric rail_fast ship" speed="36.11" length="41.27" width="3.50" shape="-805.89,652.31 -805.47,653.29 -802.28,661.12 -799.41,669.08 -796.90,677.17 -795.00,684.34 -793.42,691.57"/>
    </edge>
    <edge id=":130_8" function="internal">
        <lane id=":130_8_0" index="0" disallow="pedestrian tram rail_urban rail rail_electric rail_fast ship" speed="11.68" length="36.24" width="3.50" shape="-805.89,652.31 -804.90,654.79 -804.10,657.37 -803.53,660.05 -803.29,662.79 -803.32,664.24 -803.49,665.67 -803.81,667.09 -804.27,668.48 -804.90,669.82 -805.67,671.08 -806.57,672.23 -807.58,673.27 -808.67,674.20 -809.82,675.02 -811.04,675.76 -813.49,676.94 -816.05,677.87 -819.91,678.87"/>
    </edge>
    <edge id=":130_9" function="internal">
        <lane id=":130_9_0" index="0" disallow="pedestrian tram rail_urban rail rail_electric rail_fast ship" speed="10.63" length="29.84" width="3.50" shape="-820.62,675.44 -817.29,674.58 -815.13,673.80 -813.06,672.80 -812.08,672.21 -811.15,671.54 -810.27,670.80 -809.47,669.98 -808.76,669.07 -808.16,668.10 -807.67,667.06 -807.30,665.97 -807.05,664.85 -806.92,663.71 -806.89,662.56 -807.08,660.28 -807.56,658.03 -808.25,655.84 -809.10,653.71"/>
    </edge>
    <edge id=":130_10" function="internal">
        <lane id=":130_10_0" index="0" disallow="pedestrian tram rail_urban rail rail_electric rail_fast ship" speed="36.11" length="41.08" width="3.50" shape="-820.62,675.44 -800.49,671.34 -780.36,667.25"/>
    </edge>
    <edge id=":130_11" function="internal">
        <lane id=":130_11_0" index="0" disallow="pedestrian tram rail_urban rail rail_electric rail_fast ship" speed="12.50" length="36.33" width="3.50" shape="-820.62,675.44 -816.78,674.81 -812.89,674.55 -810.30,674.66 -807.73,675.03 -805.23,675.72 -804.02,676.19 -802.85,676.76 -801.74,677.42 -800.68,678.17 -799.69,679.01 -798.77,679.93 -797.15,681.96 -795.84,684.20 -794.80,686.58 -794.01,689.05 -793.42,691.57"/>
    </edge>
    <edge id=":131_0" function="internal">
        <lane id=":131_0_0" index="0" disallow="pedestrian tram rail_urban rail rail_electric rail_fast ship" speed="8.31" length="18.38" width="3.50" shape="-741.79,591.08 -742.04,589.87 -742.28,589.35 -742.63,588.90 -743.07,588.54 -744.13,588.11 -745.26,587.97 -746.97,588.07 -749.76,588.67 -753.55,589.96 -757.77,591.75"/>
    </edge>
    <edge id=":131_1" function="internal">
        <lane id=":131_1_0" index="0" disallow="pedestrian tram rail_urban rail rail_electric rail_fast ship" speed="29.17" length="28.15" width="3.50" shape="-741.79,591.08 -742.93,585.44 -744.20,581.04 -745.77,576.74 -747.66,572.56 -749.85,568.54 -752.03,565.10"/>
    </edge>
    <edge id=":131_2" function="internal">
        <lane id=":131_2_0" index="0" disallow="pedestrian tram rail_urban rail rail_electric rail_fast ship" speed="11.06" length="24.22" width="3.50" shape="-738.35,590.44 -738.59,588.54 -738.57,587.23 -738.37,585.93 -737.99,584.68 -737.45,583.48 -736.77,582.36 -735.96,581.32 -735.06,580.37 -733.05,578.69 -730.84,577.26 -727.33,575.49 -723.67,574.04"/>
    </edge>
    <edge id=":131_3" function="internal">
        <lane id=":131_3_0" index="0" disallow="pedestrian tram rail_urban rail rail_electric rail_fast ship" speed="9.91" length="19.26" width="3.50" shape="-722.49,577.33 -725.67,578.58 -728.70,580.07 -730.55,581.21 -732.24,582.55 -732.95,583.25 -733.60,584.01 -734.15,584.81 -734.58,585.65 -734.88,586.51 -735.05,587.41 -735.09,588.32 -734.91,589.80"/>
    </edge>
    <edge id=":131_4" function="internal">
        <lane id=":131_4_0" index="0" disallow="pedestrian tram rail_urban rail rail_electric rail_fast ship" speed="36.11" length="38.12" width="3.50" shape="-722.49,577.33 -723.46,577.68 -734.07,581.66 -745.51,586.34 -757.77,591.75"/>
    </edge>
    <edge id=":131_5" function="internal">
        <lane id=":131_5_0" index="0" disallow="pedestrian tram rail_urban rail rail_electric rail_fast ship" speed="13.75" length="34.81" width="3.50" shape="-722.49,577.33 -723.69,577.73 -726.09,578.34 -728.57,578.71 -731.09,578.81 -733.62,578.59 -736.10,578.06 -738.50,577.23 -740.76,576.13 -742.88,574.80 -744.86,573.28 -747.51,570.77 -749.90,568.01 -752.03,565.10"/>
    </edge>
    <edge id=":131_6" function="internal">
        <lane id=":131_6_0" index="0" disallow="pedestrian tram rail_urban rail rail_electric rail_fast ship" speed="12.84" length="30.22" width="3.50" shape="-749.17,563.09 -747.23,565.74 -745.12,568.19 -742.78,570.43 -741.09,571.75 -739.27,572.92 -737.34,573.88 -735.31,574.61 -733.21,575.08 -731.07,575.28 -728.91,575.22 -726.78,574.90 -724.69,574.37 -723.67,574.04"/>
    </edge>
    <edge id=":131_7" function="internal">
        <lane id=":131_7_0" index="0" disallow="pedestrian tram rail_urban rail rail_electric rail_fast ship" speed="30.33" length="30.45" width="3.50" shape="-749.17,563.09 -743.50,571.75 -739.82,577.94 -737.43,582.51 -736.00,585.81 -735.21,588.26 -734.91,589.80"/>
    </edge>
    <edge id=":131_8" function="internal">
        <lane id=":131_8_0" index="0" disallow="pedestrian tram rail_urban rail rail_electric rail_fast ship" speed="11.71" length="35.88" width="3.50" shape="-749.16,563.09 -747.67,565.46 -746.38,567.90 -745.34,570.45 -744.63,573.11 -744.44,574.48 -744.36,575.85 -744.42,577.23 -744.63,578.59 -744.98,579.92 -745.47,581.21 -746.09,582.44 -746.83,583.60 -747.68,584.69 -749.60,586.66 -751.76,588.37 -754.08,589.85 -757.77,591.75"/>
    </edge>
    <edge id=":131_9" function="internal">
        <lane id=":131_9_0" index="0" disallow="pedestrian tram rail_urban rail rail_electric rail_fast ship" speed="10.68" length="29.59" width="3.50" shape="-759.23,588.57 -756.01,586.92 -754.04,585.65 -752.22,584.23 -750.61,582.59 -749.96,581.74 -749.37,580.82 -748.87,579.86 -748.49,578.87 -748.21,577.84 -748.05,576.78 -748.00,575.71 -748.06,574.62 -748.21,573.55 -748.79,571.34 -749.66,569.20 -750.76,567.11 -752.03,565.10"/>
    </edge>
    <edge id=":131_10" function="internal">
        <lane id=":131_10_0" index="0" disallow="pedestrian tram rail_urban rail rail_electric rail_fast ship" speed="36.11" length="38.43" width="3.50" shape="-759.23,588.57 -746.87,583.11 -735.34,578.40 -724.65,574.39 -723.67,574.04"/>
    </edge>
    <edge id=":131_11" function="internal">
        <lane id=":131_11_0" index="0" disallow="pedestrian tram rail_urban rail rail_electric rail_fast ship" speed="10.22" length="28.50" width="3.50" shape="-759.23,588.57 -753.73,586.26 -749.79,584.91 -746.33,584.04 -743.38,583.65 -741.60,583.64 -739.83,583.89 -738.70,584.25 -737.65,584.80 -736.73,585.55 -736.00,586.49 -735.46,587.55 -734.91,589.80"/>
    </edge>
    <edge id=":132_0" function="internal">
        <lane id=":132_0_0" index="0" disallow="pedestrian tram rail_urban rail rail_electric rail_fast ship" speed="36.11" length="34.34" width="3.50" shape="-834.13,626.35 -847.45,632.34 -864.34,640.42 -865.25,640.86"/>
    </edge>
    <edge id=":132_1" function="internal">
        <lane id=":132_1_0" index="0" disallow="pedestrian tram rail_urban rail rail_electric rail_fast ship" speed="13.98" length="33.14" width="3.50" shape="-834.13,626.36 -835.28,626.79 -836.42,627.11 -837.58,627.33 -838.76,627.44 -841.12,627.37 -843.44,626.95 -845.70,626.24 -847.87,625.31 -850.97,623.59 -853.90,621.59 -857.57,618.62 -861.04,615.40 -862.70,613.72"/>
    </edge>
    <edge id=":132_2" function="internal">
        <lane id=":132_2_0" index="0" disallow="pedestrian tram rail_urban rail rail_electric rail_fast ship" speed="13.08" length="28.87" width="3.50" shape="-860.18,611.29 -858.66,612.82 -855.50,615.79 -852.17,618.52 -849.57,620.34 -846.83,621.93 -844.98,622.77 -843.07,623.43 -841.14,623.84 -839.18,623.95 -838.27,623.89 -837.35,623.73 -836.45,623.49 -835.55,623.15"/>
    </edge>
    <edge id=":132_3" function="internal">
        <lane id=":132_3_0" index="0" disallow="pedestrian tram rail_urban rail rail_electric rail_fast ship" speed="11.44" length="37.45" width="3.50" shape="-860.18,611.29 -857.47,614.37 -855.82,616.64 -854.41,619.06 -853.80,620.40 -853.30,621.78 -852.93,623.22 -852.71,624.72 -852.67,626.25 -852.82,627.78 -853.18,629.28 -853.72,630.72 -854.43,632.06 -855.26,633.30 -856.19,634.44 -857.21,635.50 -859.36,637.31 -861.67,638.89 -865.25,640.86"/>
    </edge>
    <edge id=":132_4" function="internal">
        <lane id=":132_4_0" index="0" disallow="pedestrian tram rail_urban rail rail_electric rail_fast ship" speed="10.39" length="30.63" width="3.50" shape="-866.81,637.73 -863.72,636.03 -861.77,634.70 -859.97,633.18 -859.16,632.33 -858.41,631.42 -857.75,630.44 -857.21,629.40 -856.79,628.30 -856.52,627.15 -856.40,625.98 -856.43,624.80 -856.61,623.64 -856.90,622.50 -857.30,621.39 -857.79,620.31 -858.97,618.28 -860.36,616.37 -862.70,613.72"/>
    </edge>
    <edge id=":132_5" function="internal">
        <lane id=":132_5_0" index="0" disallow="pedestrian tram rail_urban rail rail_electric rail_fast ship" speed="36.11" length="34.50" width="3.50" shape="-866.81,637.73 -865.87,637.27 -848.92,629.16 -835.55,623.15"/>
    </edge>
    <edge id=":133_0" function="internal">
        <lane id=":133_0_0" index="0" disallow="pedestrian tram rail_urban rail rail_electric rail_fast ship" speed="36.11" length="38.80" width="3.50" shape="-879.95,595.90 -893.44,581.96 -906.93,568.02"/>
    </edge>
    <edge id=":133_1" function="internal">
        <lane id=":133_1_0" index="0" disallow="pedestrian tram rail_urban rail rail_electric rail_fast ship" speed="11.77" length="35.07" width="3.50" shape="-879.95,595.90 -881.69,593.98 -883.30,591.91 -884.72,589.68 -885.89,587.28 -886.36,585.96 -886.72,584.62 -886.95,583.24 -887.05,581.83 -887.01,580.42 -886.82,579.02 -886.49,577.65 -886.03,576.33 -885.46,575.06 -884.79,573.86 -884.03,572.71 -882.36,570.65 -880.49,568.78 -877.50,566.32"/>
    </edge>
    <edge id=":133_2" function="internal">