<routes>
	<vehicle depart="0.1" departLane="0" departPos="77.19518765719033" departSpeed="6.9012957" id="314" type="bicycle">
		<route edges="5535 5965"/>
	</vehicle>
	<vehicle depart="0.1" departLane="0" departPos="65.68251264183468" departSpeed="6.9384789" id="336" type="bus">
		<route edges="5535 5965"/>
	</vehicle>
	<vehicle depart="0.1" departLane="0" departPos="24.451632749319824" departSpeed="0.0" id="317" type="passenger">
		<route edges="5968 5538"/>
	</vehicle>
	<vehicle depart="0.1" departLane="0" departPos="42.252768681392254" departSpeed="16.964509" id="331" type="passenger">
		<route edges="5537 5534"/>
	</vehicle>
	<vehicle depart="0.1" departLane="0" departPos="32.37399181292042" departSpeed="19.174995" id="334" type="passenger">
		<route edges="5537 5969"/>
	</vehicle>
	<vehicle depart="0.1" departLane="0" departPos="18.68319908023148" departSpeed="0.21373839" id="344" type="passenger">
		<route edges=":109_0 5534"/>
	</vehicle>
	<vehicle depart="0.1" departLane="0" departPos="16.94973798720713" departSpeed="2.2518068e-05" id="361" type="passenger">
		<route edges="5968 5538"/>
	</vehicle>
</routes>
