<!-- generated on 2020-12-18 15:59:07.717800 by ipykernel_launcher.py v1_2_0+5214-53edc58fcd
-->
<edges>
	<edge from="1" function="normal" id="3498" length="9.586095898357163" numLanes="1" priority="1" speed="36.11111111111111" spreadType="center" to="2">
		<lane allow="moped bicycle pedestrian custom1 trailer evehicle rail_urban ship private truck vip custom2 authority delivery rail_electric taxi tram army hov coach motorcycle passenger bus rail emergency" index="0" length="9.586095898357163" shape="70.40075,45.7772 60.82,46.0973" speed="36.11111111111111" width="4.771086938004798"/>
	</edge>
	<edge from="2" function="normal" id="3716" length="18.680147901632274" numLanes="1" priority="1" speed="36.11111111111111" spreadType="center" to="3">
		<lane allow="moped bicycle pedestrian custom1 trailer evehicle rail_urban ship private vip custom2 authority delivery rail_electric taxi tram army hov coach motorcycle passenger rail emergency" index="0" length="18.680147901632274" shape="60.82,46.0973 56.83615,47.538700000000006 53.98055,50.041349999999994 52.929050000000004,52.43145 52.2264,54.4597 52.3714,57.6047 53.36255,60.15965" speed="36.11111111111111" width="3.353872355949167"/>
	</edge>
	<edge from="4" function="normal" id="3509" length="15.632980848532549" numLanes="3" priority="1" speed="36.11111111111111" spreadType="center" to="5">
		<lane allow="moped bicycle pedestrian custom1 trailer evehicle rail_urban ship private truck vip custom2 authority delivery rail_electric taxi tram army hov coach motorcycle passenger bus rail emergency" index="0" length="15.632980848532549" shape="-40.3923,-19.24215 -35.9961,-21.423000000000002 -26.38565,-26.20655" speed="36.11111111111111" width="3.2317602711216056"/>
		<lane allow="moped bicycle pedestrian custom1 trailer evehicle rail_urban ship private truck vip custom2 authority delivery rail_electric taxi tram army hov coach motorcycle passenger bus rail emergency" index="1" length="15.632980848532549" shape="-39.00275,-16.4411 -34.56535,-18.642400000000002 -24.95485,-23.42595" speed="36.11111111111111" width="3.0217924167619445"/>
		<lane allow="moped bicycle pedestrian custom1 trailer evehicle rail_urban ship private truck vip custom2 authority delivery rail_electric taxi tram army hov coach motorcycle passenger bus rail emergency" index="2" length="15.632980848532549" shape="-37.6516,-13.71745 -33.159000000000006,-15.9461 -23.6481,-20.6667" speed="36.11111111111111" width="3.0589561046213136"/>
	</edge>
	<edge from="5" function="normal" id="3672" length="43.429643178518916" numLanes="1" priority="1" speed="36.11111111111111" spreadType="center" to="6">
		<lane allow="moped bicycle pedestrian custom1 trailer evehicle rail_urban ship private vip custom2 authority delivery rail_electric taxi tram army hov coach motorcycle passenger rail emergency" index="0" length="43.429643178518916" shape="-23.6481,-20.6667 -18.4909,-23.207050000000002 -14.908100000000001,-24.69155 -11.062249999999999,-26.0502 -8.28155,-27.0205 -5.7956,-27.51735 -3.56075,-27.729750000000003 -1.22455,-27.61275 0.41995000000000005,-27.47835 1.5293999999999999,-27.222099999999998 2.46915,-26.6391 3.3884000000000003,-25.288899999999998 4.5441,-23.36055 7.21155,-19.1231 8.7853,-16.071350000000002 10.25705,-12.9592" speed="36.11111111111111" width="2.917182176347579"/>
	</edge>
	<edge from="6" function="normal" id="3456" length="24.710920579823167" numLanes="3" priority="1" speed="36.11111111111111" spreadType="center" to="7">
		<lane allow="moped bicycle pedestrian custom1 trailer evehicle rail_urban ship private truck vip custom2 authority delivery rail_electric taxi tram army hov coach motorcycle passenger bus rail emergency" index="0" length="24.710920579823167" shape="15.7837,-15.718900000000001 19.3795,-8.5253 23.23285,-0.6082 26.5955,6.5001999999999995" speed="36.11111111111111" width="3.047668597469219"/>
		<lane allow="moped bicycle pedestrian custom1 trailer evehicle rail_urban ship private truck vip custom2 authority delivery rail_electric taxi tram army hov coach motorcycle passenger bus rail emergency" index="1" length="24.710920579823167" shape="12.95485,-14.32465 16.81495,-6.75775 20.4932,0.8078500000000001 23.93205,7.8383" speed="36.11111111111111" width="2.9148241130469597"/>
		<lane allow="moped bicycle pedestrian custom1 trailer evehicle rail_urban ship private truck vip custom2 authority delivery rail_electric taxi tram army hov coach motorcycle passenger bus rail emergency" index="2" length="24.710920579823167" shape="10.25705,-12.9592 14.18555,-5.197 17.974,2.50555 21.345550000000003,9.152149999999999" speed="36.11111111111111" width="2.8880043801905835"/>
	</edge>
	<edge from="7" function="normal" id="3462" length="8.466645302154802" numLanes="3" priority="1" speed="36.11111111111111" spreadType="center" to="8">
		<lane allow="moped bicycle pedestrian custom1 trailer evehicle rail_urban ship private truck vip custom2 authority delivery rail_electric taxi tram army hov coach motorcycle passenger bus rail emergency" index="0" length="8.466645302154802" shape="26.5955,6.5001999999999995 30.474800000000002,14.06295" speed="36.11111111111111" width="3.047668597469219"/>
		<lane allow="moped bicycle pedestrian custom1 trailer evehicle rail_urban ship private truck vip custom2 authority delivery rail_electric taxi tram army hov coach motorcycle passenger bus rail emergency" index="1" length="8.466645302154802" shape="23.93205,7.8383 27.750149999999998,15.448" speed="36.11111111111111" width="2.9148241130469597"/>
		<lane allow="moped bicycle pedestrian custom1 trailer evehicle rail_urban ship private truck vip custom2 authority delivery rail_electric taxi tram army hov coach motorcycle passenger bus rail emergency" index="2" length="8.466645302154802" shape="21.345550000000003,9.152149999999999 25.086199999999998,16.74765" speed="36.11111111111111" width="2.8880043801905835"/>
	</edge>
	<edge from="8" function="normal" id="3468" length="22.238196627283088" numLanes="3" priority="1" speed="36.11111111111111" spreadType="center" to="9">
		<lane allow="moped bicycle pedestrian custom1 trailer evehicle rail_urban ship private truck vip custom2 authority delivery rail_electric taxi tram army hov coach motorcycle passenger bus rail emergency" index="0" length="22.238196627283088" shape="30.474800000000002,14.06295 35.07415,23.3545 40.4508,34.0355" speed="36.11111111111111" width="3.032663985673323"/>
		<lane allow="moped bicycle pedestrian custom1 trailer evehicle rail_urban ship private truck vip custom2 authority delivery rail_electric taxi tram army hov coach motorcycle passenger bus rail emergency" index="1" length="22.238196627283088" shape="27.750149999999998,15.448 32.3964,24.769750000000002 37.648250000000004,35.375550000000004" speed="36.11111111111111" width="2.998011102381045"/>
		<lane allow="moped bicycle pedestrian custom1 trailer evehicle rail_urban ship private truck vip custom2 authority delivery rail_electric taxi tram army hov coach motorcycle passenger bus rail emergency" index="2" length="22.238196627283088" shape="25.086199999999998,16.74765 29.702550000000002,26.146700000000003 34.8919,36.70725" speed="36.11111111111111" width="2.9350875710956195"/>
	</edge>
	<edge from="9" function="normal" id="3713" length="29.142816807837445" numLanes="3" priority="1" speed="36.11111111111111" spreadType="center" to="10">
		<lane allow="moped bicycle pedestrian custom1 trailer evehicle rail_urban ship private truck vip custom2 authority delivery rail_electric taxi tram army hov coach motorcycle passenger bus rail emergency" index="0" length="29.142816807837445" shape="40.4508,34.0355 44.36695,42.02865 48.31355,49.9752 52.069649999999996,57.58584999999999 53.242999999999995,60.2184" speed="36.11111111111111" width="3.157633506282828"/>
		<lane allow="moped bicycle pedestrian custom1 trailer evehicle rail_urban ship private truck vip custom2 authority delivery rail_electric taxi tram army hov coach motorcycle passenger rail emergency" index="1" length="29.142816807837445" shape="37.648250000000004,35.375550000000004 41.085750000000004,42.31355 45.03225,50.260149999999996 49.2029,58.75745 50.487899999999996,61.571799999999996" speed="36.11111111111111" width="2.9348672269797844"/>
		<lane allow="moped bicycle pedestrian custom1 trailer evehicle rail_urban ship private truck vip custom2 authority delivery rail_electric taxi tram army hov coach motorcycle passenger bus rail emergency" index="2" length="29.142816807837445" shape="34.8919,36.70725 37.7245,42.4073 41.55925,50.1092 46.397800000000004,59.92055 47.783950000000004,62.90005" speed="36.11111111111111" width="3.0673220453679098"/>
	</edge>
	<edge from="5" function="normal" id="3636" length="10.130444963203738" numLanes="2" priority="1" speed="36.11111111111111" spreadType="center" to="11">
		<lane allow="moped bicycle pedestrian custom1 trailer evehicle rail_urban ship private truck vip custom2 authority delivery rail_electric taxi tram army hov coach motorcycle passenger bus rail emergency" index="0" length="10.130444963203738" shape="-26.38565,-26.20655 -17.37455,-30.8919" speed="36.11111111111111" width="3.232186618993402"/>
		<lane allow="moped bicycle pedestrian custom1 trailer evehicle rail_urban ship private truck vip custom2 authority delivery rail_electric taxi tram army hov coach motorcycle passenger bus rail emergency" index="1" length="10.130444963203738" shape="-24.95485,-23.42595 -15.930150000000001,-28.0282" speed="36.11111111111111" width="3.0254656269738045"/>
	</edge>
	<edge from="11" function="normal" id="3658" length="24.83401336288985" numLanes="2" priority="1" speed="36.11111111111111" spreadType="center" to="12">
		<lane allow="moped bicycle pedestrian custom1 trailer evehicle rail_urban ship private truck vip custom2 authority delivery rail_electric taxi tram army hov coach motorcycle passenger bus rail emergency" index="0" length="24.83401336288985" shape="-17.37455,-30.8919 -14.478750000000002,-32.397800000000004 -11.823250000000002,-33.77855 -9.106300000000001,-35.19125 -6.118,-36.745149999999995 -3.41635,-38.15005 -0.77165,-39.5252 1.9439,-40.9372 4.71565,-42.37845" speed="36.11111111111111" width="3.308908788407443"/>
		<lane allow="moped bicycle pedestrian custom1 trailer evehicle rail_urban ship private truck vip custom2 authority delivery rail_electric taxi tram army hov coach motorcycle passenger bus rail emergency" index="1" length="24.83401336288985" shape="-15.930150000000001,-28.0282 -13.062149999999999,-29.4908 -10.39115,-30.852850000000004 -7.65285,-32.2492 -4.68825,-33.760949999999994 -1.9778000000000002,-35.1432 0.67215,-36.49445 3.4066,-37.88875 6.1934000000000005,-39.3099" speed="36.11111111111111" width="3.105783426126168"/>
	</edge>
	<edge from="12" function="normal" id="3676" length="16.15592838945517" numLanes="2" priority="1" speed="36.11111111111111" spreadType="center" to="13">
		<lane allow="moped bicycle pedestrian custom1 trailer evehicle rail_urban ship private truck vip custom2 authority delivery rail_electric taxi tram army hov coach motorcycle passenger bus rail emergency" index="0" length="16.15592838945517" shape="4.71565,-42.37845 10.73535,-45.3847 19.169400000000003,-49.5967" speed="36.11111111111111" width="3.5034549033775226"/>
		<lane allow="moped bicycle pedestrian custom1 trailer evehicle rail_urban ship private truck vip custom2 authority delivery rail_electric taxi tram army hov coach motorcycle passenger bus rail emergency" index="1" length="16.15592838945517" shape="6.1934000000000005,-39.3099 12.21805,-42.2952 20.71425,-46.5051" speed="36.11111111111111" width="3.3082245268421513"/>
	</edge>
	<edge from="13" function="normal" id="3525" length="17.280435272672808" numLanes="3" priority="1" speed="36.11111111111111" spreadType="center" to="14">
		<lane allow="moped bicycle pedestrian custom1 trailer evehicle rail_urban ship private truck vip custom2 authority delivery rail_electric taxi tram army hov coach motorcycle passenger bus rail emergency" index="0" length="17.280435272672808" shape="17.54635,-52.924800000000005 26.27365,-57.21985 33.061949999999996,-60.56065" speed="36.11111111111111" width="3.873902747875843"/>
		<lane allow="moped bicycle pedestrian custom1 trailer evehicle rail_urban ship private truck vip custom2 authority delivery rail_electric taxi tram army hov coach motorcycle passenger bus rail emergency" index="1" length="17.280435272672808" shape="19.169400000000003,-49.5967 27.89655,-53.89025 34.6958,-57.2353" speed="36.11111111111111" width="3.511789538113012"/>
		<lane allow="moped bicycle pedestrian custom1 trailer evehicle rail_urban ship private truck vip custom2 authority delivery rail_electric taxi tram army hov coach motorcycle passenger bus rail emergency" index="2" length="17.280435272672808" shape="20.71425,-46.5051 29.393050000000002,-50.773700000000005 36.2206,-54.1318" speed="36.11111111111111" width="3.379496749517598"/>
	</edge>
	<edge from="5" function="normal" id="3600" length="24.19746751136553" numLanes="1" priority="1" speed="36.11111111111111" spreadType="center" to="15">
		<lane allow="moped bicycle pedestrian custom1 trailer evehicle rail_urban ship private vip custom2 authority delivery rail_electric taxi tram army hov coach motorcycle passenger rail emergency" index="0" length="24.19746751136553" shape="-26.38565,-26.20655 -21.89735,-28.6015 -19.90435,-29.791600000000003 -18.301299999999998,-30.702199999999998 -17.5582,-31.18215 -17.1341,-31.769750000000002 -17.0983,-32.5767 -17.505499999999998,-33.9883 -18.3064,-35.95445 -19.28685,-38.052800000000005 -22.079749999999997,-44.05475" speed="36.11111111111111" width="3.232186618993402"/>
	</edge>
	<edge from="15" function="normal" id="3542" length="74.2461753523541" numLanes="3" priority="1" speed="36.11111111111111" spreadType="center" to="16">
		<lane allow="moped bicycle pedestrian custom1 trailer evehicle rail_urban ship private truck vip custom2 authority delivery rail_electric taxi tram army hov coach motorcycle passenger bus rail emergency" index="0" length="74.2461753523541" shape="-22.079749999999997,-44.05475 -26.24105,-52.593450000000004 -30.2943,-61.52345 -34.06635,-70.24195 -37.691100000000006,-79.4859 -41.406099999999995,-88.54375 -45.08975,-97.57135 -48.773799999999994,-106.6298 -51.06085,-112.42580000000001" speed="36.11111111111111" width="2.8235974571457607"/>
		<lane allow="moped bicycle pedestrian custom1 trailer evehicle rail_urban ship private truck vip custom2 authority delivery rail_electric taxi tram army hov coach motorcycle passenger bus rail emergency" index="1" length="74.2461753523541" shape="-19.2361,-45.547399999999996 -23.4795,-54.102199999999996 -27.56165,-62.8856 -31.302300000000002,-71.5738 -34.9563,-80.69409999999999 -38.6094,-89.75295 -42.260850000000005,-98.68860000000001 -45.852149999999995,-107.7484 -48.2434,-113.8721" speed="36.11111111111111" width="2.9693589611227527"/>
		<lane allow="moped bicycle pedestrian custom1 trailer evehicle rail_urban ship private truck vip custom2 authority delivery rail_electric taxi tram army hov coach motorcycle passenger bus rail emergency" index="2" length="74.2461753523541" shape="-16.588050000000003,-46.93735 -20.810850000000002,-55.6173 -24.8612,-64.33959999999999 -28.63275,-73.0274 -32.1276,-81.82675 -35.783100000000005,-91.05485 -39.43495,-100.02135000000001 -42.90175,-109.02125000000001 -45.4129,-115.32515000000001" speed="36.11111111111111" width="2.962201547835665"/>
	</edge>
	<edge from="17" function="normal" id="3532" length="13.634900230131366" numLanes="2" priority="1" speed="36.11111111111111" spreadType="center" to="18">
		<lane allow="moped bicycle pedestrian custom1 trailer evehicle rail_urban ship private truck vip custom2 authority delivery rail_electric taxi tram army hov coach motorcycle passenger bus rail emergency" index="0" length="13.634900230131366" shape="40.7663,-44.879949999999994 33.83365,-41.4911 28.48925,-38.87855" speed="36.11111111111111" width="3.6072313177837665"/>
		<lane allow="moped bicycle pedestrian custom1 trailer evehicle rail_urban ship private truck vip custom2 authority delivery rail_electric taxi tram army hov coach motorcycle passenger bus rail emergency" index="1" length="13.634900230131366" shape="39.161649999999995,-48.1459 32.30315,-44.792699999999996 26.912300000000002,-42.15725" speed="36.11111111111111" width="3.623546501702444"/>
	</edge>
	<edge from="18" function="normal" id="3534" length="6.575577396130318" numLanes="3" priority="1" speed="36.11111111111111" spreadType="center" to="19">
		<lane allow="moped bicycle pedestrian custom1 trailer evehicle rail_urban ship private truck vip custom2 authority delivery rail_electric taxi tram army hov coach motorcycle passenger bus rail emergency" index="0" length="6.575577396130318" shape="28.48925,-38.87855 24.0664,-32.856700000000004" speed="36.11111111111111" width="3.2457372413675167"/>
		<lane allow="moped bicycle pedestrian custom1 trailer evehicle rail_urban ship private truck vip custom2 authority delivery rail_electric taxi tram army hov coach motorcycle passenger bus rail emergency" index="1" length="6.575577396130318" shape="28.48925,-38.87855 22.57725,-35.93855" speed="36.11111111111111" width="3.602433613545151"/>
		<lane allow="moped bicycle pedestrian custom1 trailer evehicle rail_urban ship private truck vip custom2 authority delivery rail_electric taxi tram army hov coach motorcycle passenger bus rail emergency" index="2" length="6.575577396130318" shape="26.912300000000002,-42.15725 21.024250000000002,-39.22995" speed="36.11111111111111" width="3.6713079753679065"/>
	</edge>
	<edge from="19" function="normal" id="3536" length="6.608363657139341" numLanes="3" priority="1" speed="36.11111111111111" spreadType="center" to="20">
		<lane allow="moped bicycle pedestrian custom1 trailer evehicle rail_urban ship private truck vip custom2 authority delivery rail_electric taxi tram army hov coach motorcycle passenger bus rail emergency" index="0" length="6.608363657139341" shape="24.0664,-32.856700000000004 18.08685,-29.96725" speed="36.11111111111111" width="3.190167196245363"/>
		<lane allow="moped bicycle pedestrian custom1 trailer evehicle rail_urban ship private truck vip custom2 authority delivery rail_electric taxi tram army hov coach motorcycle passenger bus rail emergency" index="1" length="6.608363657139341" shape="22.57725,-35.93855 16.6371,-32.9938" speed="36.11111111111111" width="3.5215687697388467"/>
		<lane allow="moped bicycle pedestrian custom1 trailer evehicle rail_urban ship private truck vip custom2 authority delivery rail_electric taxi tram army hov coach motorcycle passenger bus rail emergency" index="2" length="6.608363657139341" shape="21.024250000000002,-39.22995 15.1142,-36.2733" speed="36.11111111111111" width="3.677371487897303"/>
	</edge>
	<edge from="20" function="normal" id="3620" length="6.669397413559939" numLanes="2" priority="1" speed="36.11111111111111" spreadType="center" to="21">
		<lane allow="moped bicycle pedestrian custom1 trailer evehicle rail_urban ship private truck vip custom2 authority delivery rail_electric taxi tram army hov coach motorcycle passenger bus rail emergency" index="0" length="6.669397413559939" shape="16.6371,-32.9938 10.659600000000001,-30.0357" speed="36.11111111111111" width="3.4558219456447707"/>
		<lane allow="moped bicycle pedestrian custom1 trailer evehicle rail_urban ship private truck vip custom2 authority delivery rail_electric taxi tram army hov coach motorcycle passenger bus rail emergency" index="1" length="6.669397413559939" shape="15.1142,-36.2733 9.10675,-33.2602" speed="36.11111111111111" width="3.7020390124902796"/>
	</edge>
	<edge from="21" function="normal" id="3662" length="24.644895567956997" numLanes="2" priority="1" speed="36.11111111111111" spreadType="center" to="22">
		<lane allow="moped bicycle pedestrian custom1 trailer evehicle rail_urban ship private truck vip custom2 authority delivery rail_electric taxi tram army hov coach motorcycle passenger bus rail emergency" index="0" length="24.644895567956997" shape="10.659600000000001,-30.0357 7.84305,-28.641849999999998 5.06625,-27.267699999999998 2.41685,-25.9565 -0.30525,-24.60935 -3.1769499999999997,-23.18815 -5.96575,-21.808 -8.6678,-20.470799999999997 -11.4284,-19.1045" speed="36.11111111111111" width="3.2133408160355486"/>
		<lane allow="moped bicycle pedestrian custom1 trailer evehicle rail_urban ship private truck vip custom2 authority delivery rail_electric taxi tram army hov coach motorcycle passenger bus rail emergency" index="1" length="24.644895567956997" shape="9.10675,-33.2602 6.30225,-31.8535 3.5416999999999996,-30.46965 0.89365,-29.141 -1.8230499999999998,-27.77955 -4.72485,-26.32195 -7.493600000000001,-24.931849999999997 -10.18345,-23.58265 -12.98,-22.1796" speed="36.11111111111111" width="3.675404375031404"/>
	</edge>
	<edge from="22" function="normal" id="3640" length="10.509859510002975" numLanes="2" priority="1" speed="36.11111111111111" spreadType="center" to="23">
		<lane allow="moped bicycle pedestrian custom1 trailer evehicle rail_urban ship private truck vip custom2 authority delivery rail_electric taxi tram army hov coach motorcycle passenger bus rail emergency" index="0" length="10.509859510002975" shape="-11.4284,-19.1045 -21.2619,-14.283100000000001" speed="36.11111111111111" width="3.167378581729693"/>
		<lane allow="moped bicycle pedestrian custom1 trailer evehicle rail_urban ship private truck vip custom2 authority delivery rail_electric taxi tram army hov coach motorcycle passenger bus rail emergency" index="1" length="10.509859510002975" shape="-12.98,-22.1796 -22.3976,-17.514200000000002" speed="36.11111111111111" width="3.675404375031404"/>
	</edge>
	<edge from="23" function="normal" id="3517" length="14.49675390495733" numLanes="3" priority="1" speed="36.11111111111111" spreadType="center" to="24">
		<lane allow="moped bicycle pedestrian custom1 trailer evehicle rail_urban ship private truck vip custom2 authority delivery rail_electric taxi tram army hov coach motorcycle passenger bus rail emergency" index="0" length="14.49675390495733" shape="-19.544600000000003,-9.82915 -28.7581,-5.389749999999999 -32.5066,-3.3459" speed="36.11111111111111" width="5.130906839926059"/>
		<lane allow="moped bicycle pedestrian custom1 trailer evehicle rail_urban ship private truck vip custom2 authority delivery rail_electric taxi tram army hov coach motorcycle passenger bus rail emergency" index="1" length="14.49675390495733" shape="-21.2619,-14.283100000000001 -30.65235,-9.24105 -34.33785,-7.03735" speed="36.11111111111111" width="3.110520139783699"/>
		<lane allow="moped bicycle pedestrian custom1 trailer evehicle rail_urban ship private truck vip custom2 authority delivery rail_electric taxi tram army hov coach motorcycle passenger bus rail emergency" index="2" length="14.49675390495733" shape="-22.3976,-17.514200000000002 -32.1793,-12.266549999999999 -35.8447,-10.0749" speed="36.11111111111111" width="3.664585112942528"/>
	</edge>
	<edge from="20" function="normal" id="3668" length="38.24329000786905" numLanes="1" priority="1" speed="36.11111111111111" spreadType="center" to="15">
		<lane allow="moped bicycle pedestrian custom1 trailer evehicle rail_urban ship private vip custom2 authority delivery rail_electric taxi tram army hov coach motorcycle passenger rail emergency" index="0" length="38.24329000786905" shape="15.1142,-36.2733 11.777149999999999,-35.1646 8.843,-34.357749999999996 6.34735,-33.61015 3.932,-33.306599999999996 1.73015,-33.22165 0.19395,-33.35 -1.7763,-33.5568 -3.3804,-33.83415 -5.3282,-34.1475 -7.136900000000001,-34.9045 -8.6728,-36.1546 -10.112449999999999,-38.0642 -12.812750000000001,-41.74195 -16.588050000000003,-46.93735" speed="36.11111111111111" width="3.0119886487169927"/>
	</edge>
	<edge from="20" function="normal" id="3602" length="16.40731935125664" numLanes="1" priority="1" speed="36.11111111111111" spreadType="center" to="6">
		<lane allow="moped bicycle pedestrian custom1 trailer evehicle rail_urban ship private vip custom2 authority delivery rail_electric taxi tram army hov coach motorcycle passenger rail emergency" index="0" length="16.40731935125664" shape="18.08685,-29.96725 16.23425,-28.6831 15.0842,-27.4664 14.1565,-25.837400000000002 13.57905,-24.0287 13.52115,-22.658250000000002 13.883600000000001,-20.532 14.7347,-18.15675 15.7837,-15.718900000000001" speed="36.11111111111111" width="2.934720000272598"/>
	</edge>
	<edge from="9" function="normal" id="3718" length="22.83123774153203" numLanes="1" priority="1" speed="36.11111111111111" spreadType="center" to="25">
		<lane allow="moped bicycle pedestrian custom1 trailer evehicle rail_urban ship private vip custom2 authority delivery rail_electric taxi tram army hov coach motorcycle passenger rail emergency" index="0" length="22.83123774153203" shape="40.4508,34.0355 43.0725,37.4072 45.13725,39.3224 47.731049999999996,40.4961 52.35935,40.9 60.609300000000005,41.03725" speed="36.11111111111111" width="3.157633506282828"/>
	</edge>
	<edge from="25" function="normal" id="3500" length="9.586145870473697" numLanes="1" priority="1" speed="36.11111111111111" spreadType="center" to="26">
		<lane allow="moped bicycle pedestrian custom1 trailer evehicle rail_urban ship private truck vip custom2 authority delivery rail_electric taxi tram army hov coach motorcycle passenger bus rail emergency" index="0" length="9.586145870473697" shape="60.609300000000005,41.03725 70.1901,40.717150000000004" speed="36.11111111111111" width="5.358070392408067"/>
	</edge>
	<edge from="27" function="normal" id="3555" length="8.747302513489522" numLanes="4" priority="1" speed="36.11111111111111" spreadType="center" to="28">
		<lane allow="moped bicycle pedestrian custom1 trailer evehicle rail_urban ship private truck vip custom2 authority delivery rail_electric taxi tram army hov coach motorcycle passenger bus rail emergency" index="0" length="8.747302513489522" shape="-32.7414,-121.8301 -28.7652,-114.03875" speed="36.11111111111111" width="3.5111446353005684"/>
		<lane allow="moped bicycle pedestrian custom1 trailer evehicle rail_urban ship private truck vip custom2 authority delivery rail_electric taxi tram army hov coach motorcycle passenger bus rail emergency" index="1" length="8.747302513489522" shape="-35.685199999999995,-120.3189 -31.6548,-112.43695" speed="36.11111111111111" width="2.9942633818687394"/>
		<lane allow="moped bicycle pedestrian custom1 trailer evehicle rail_urban ship private truck vip custom2 authority delivery rail_electric taxi tram army hov coach motorcycle passenger bus rail emergency" index="2" length="8.747302513489522" shape="-38.384699999999995,-118.93315 -34.2965,-110.8998" speed="36.11111111111111" width="3.0122116393108884"/>
		<lane allow="moped bicycle pedestrian custom1 trailer evehicle rail_urban ship private truck vip custom2 authority delivery rail_electric taxi tram army hov coach motorcycle passenger bus rail emergency" index="3" length="8.747302513489522" shape="-41.16265,-117.50704999999999 -36.981700000000004,-109.4614" speed="36.11111111111111" width="3.0805742451692346"/>
	</edge>
	<edge from="28" function="normal" id="3559" length="17.692935382095456" numLanes="5" priority="1" speed="36.11111111111111" spreadType="center" to="29">
		<lane allow="moped bicycle pedestrian custom1 trailer evehicle rail_urban ship private truck vip custom2 authority delivery rail_electric taxi tram army hov coach motorcycle passenger bus rail emergency" index="0" length="17.692935382095456" shape="-28.7652,-114.03875 -25.4195,-107.0711 -20.910449999999997,-97.9923" speed="36.11111111111111" width="3.5111446353005684"/>
		<lane allow="moped bicycle pedestrian custom1 trailer evehicle rail_urban ship private truck vip custom2 authority delivery rail_electric taxi tram army hov coach motorcycle passenger bus rail emergency" index="1" length="17.692935382095456" shape="-31.6548,-112.43695 -28.259999999999998,-105.5118 -23.6997,-96.40125" speed="36.11111111111111" width="2.891120158346933"/>
		<lane allow="moped bicycle pedestrian custom1 trailer evehicle rail_urban ship private truck vip custom2 authority delivery rail_electric taxi tram army hov coach motorcycle passenger bus rail emergency" index="2" length="17.692935382095456" shape="-34.2965,-110.8998 -30.95,-104.11245 -26.3897,-95.00195" speed="36.11111111111111" width="3.0122116393108884"/>
		<lane allow="moped bicycle pedestrian custom1 trailer evehicle rail_urban ship private truck vip custom2 authority delivery rail_electric taxi tram army hov coach motorcycle passenger bus rail emergency" index="3" length="17.692935382095456" shape="-36.981700000000004,-109.4614 -33.620850000000004,-102.75125 -29.0605,-93.64070000000001" speed="36.11111111111111" width="2.8198292501497306"/>
		<lane allow="moped bicycle pedestrian custom1 trailer evehicle rail_urban ship private truck vip custom2 authority delivery rail_electric taxi tram army hov coach motorcycle passenger rail emergency" index="4" length="17.692935382095456" shape="-36.981700000000004,-109.4614 -35.149100000000004,-101.72625 -31.66825,-92.18795" speed="36.11111111111111" width="2.9068515975192115"/>
	</edge>
	<edge from="29" function="normal" id="3568" length="47.086685123121356" numLanes="5" priority="1" speed="36.11111111111111" spreadType="center" to="30">
		<lane allow="moped bicycle pedestrian custom1 trailer evehicle rail_urban ship private truck vip custom2 authority delivery rail_electric taxi tram army hov coach motorcycle passenger bus rail emergency" index="0" length="47.086685123121356" shape="-20.910449999999997,-97.9923 -16.71145,-89.5373 -12.453800000000001,-80.96275 -8.01535,-72.02674999999999 -3.71675,-63.565799999999996 0.4687500000000001,-55.9167" speed="36.11111111111111" width="3.346148869969779"/>