<!-- generated on 2020-12-18 15:59:07.806168 by ipykernel_launcher.py v1_2_0+5214-53edc58fcd
-->
<nodes>
	<node id="1" type="from" x="70.40075" y="45.7772"/>
	<node id="2" type="to" x="60.82" y="46.0973"/>
	<node id="3" type="to" x="53.36255" y="60.15965"/>
	<node id="4" type="from" x="-39.01555" y="-16.4669"/>
	<node id="5" type="to" x="-24.996199999999998" y="-23.433066666666665"/>
	<node id="6" type="to" x="10.25705" y="-12.9592"/>
	<node id="7" type="to" x="23.957700000000003" y="7.830216666666666"/>
	<node id="8" type="to" x="27.77038333333333" y="15.419533333333334"/>
	<node id="9" type="to" x="37.66365" y="35.37276666666667"/>
	<node id="10" type="to" x="50.50495" y="61.56341666666666"/>
	<node id="11" type="to" x="-16.65235" y="-29.46005"/>
	<node id="12" type="to" x="5.454525" y="-40.844175"/>
	<node id="13" type="to" x="19.941825" y="-48.0509"/>
	<node id="14" type="to" x="34.65944999999999" y="-57.30925"/>
	<node id="15" type="to" x="-22.079749999999997" y="-44.05475"/>
	<node id="16" type="to" x="-48.23905" y="-113.87435"/>
	<node id="17" type="from" x="39.963975" y="-46.512924999999996"/>
	<node id="18" type="to" x="27.700775" y="-40.5179"/>
	<node id="19" type="to" x="22.555966666666666" y="-36.0084"/>
	<node id="20" type="to" x="16.612716666666667" y="-33.078116666666666"/>
	<node id="21" type="to" x="9.883175000000001" y="-31.647949999999998"/>
	<node id="22" type="to" x="-12.2042" y="-20.64205"/>
	<node id="23" type="to" x="-21.82975" y="-15.898650000000002"/>
	<node id="24" type="to" x="-34.22971666666667" y="-6.819383333333334"/>
	<node id="25" type="to" x="60.609300000000005" y="41.03725"/>
	<node id="26" type="to" x="70.1901" y="40.717150000000004"/>
	<node id="27" type="from" x="-36.9934875" y="-119.6473"/>
	<node id="28" type="to" x="-32.924549999999996" y="-111.709225"/>
	<node id="29" type="to" x="-26.34572" y="-95.04483"/>
	<node id="30" type="to" x="-5.290900000000001" y="-52.88006"/>
	<node id="31" type="to" x="-0.1414166666666666" y="-41.806133333333335"/>
	<node id="32" type="to" x="7.2185999999999995" y="-26.430633333333333"/>
	<node id="33" type="from" x="39.629560000000005" y="66.90568"/>
	<node id="34" type="to" x="26.670920000000002" y="40.53076"/>
	<node id="35" type="to" x="16.90935" y="20.85376"/>
	<node id="36" type="to" x="11.735191666666665" y="13.938183333333333"/>
	<node id="37" type="to" x="0.7389749999999998" y="-8.157791666666666"/>
	<node id="38" type="to" x="-6.5931" y="-19.679733333333335"/>
	<node id="39" type="to" x="-13.919400000000001" y="-34.57391666666667"/>
</nodes>
