<?xml version="1.0" encoding="UTF-8"?>

<!-- generated on Fri Dec 18 15:59:08 2020 by Eclipse SUMO netconvert Version 1.8.0
<configuration xmlns:xsi="http://www.w3.org/2001/XMLSchema-instance" xsi:noNamespaceSchemaLocation="http://sumo.dlr.de/xsd/netconvertConfiguration.xsd">

    <input>
        <node-files value="./converted_scenarios/NGSIM/Lankershim/USA_Lanker-2_13_I-1-1/nodes.net.xml"/>
        <edge-files value="./converted_scenarios/NGSIM/Lankershim/USA_Lanker-2_13_I-1-1/edges.net.xml"/>
        <connection-files value="./converted_scenarios/NGSIM/Lankershim/USA_Lanker-2_13_I-1-1/_connections.net.xml"/>
        <tllogic-files value="./converted_scenarios/NGSIM/Lankershim/USA_Lanker-2_13_I-1-1/_tll.net.xml"/>
    </input>

    <output>
        <output-file value="./converted_scenarios/NGSIM/Lankershim/USA_Lanker-2_13_I-1-1/USA_Lanker-2_13_I-1-1.net.xml"/>
    </output>

    <processing>
        <plain.extend-edge-shape value="true"/>
        <geometry.remove.keep-edges.explicit value="true"/>
        <geometry.avoid-overlap value="true"/>
        <offset.disable-normalization value="true"/>
    </processing>

    <junctions>
        <no-turnarounds value="true"/>
        <junctions.internal-link-detail value="20"/>
    </junctions>

    <report>
        <aggregate-warnings value="5"/>
    </report>

    <random_number>
        <seed value="1234"/>
    </random_number>

</configuration>
-->

<net version="1.6" junctionCornerDetail="5" junctionLinkDetail="20" limitTurnSpeed="5.50" xmlns:xsi="http://www.w3.org/2001/XMLSchema-instance" xsi:noNamespaceSchemaLocation="http://sumo.dlr.de/xsd/net_file.xsd">

    <location netOffset="0.00,0.00" convBoundary="-48.24,-119.65,70.40,66.91" origBoundary="-51.06,-121.83,70.40,69.53" projParameter="!"/>

    <edge id=":11_0" function="internal">
        <lane id=":11_0_0" index="0" disallow="rail_fast" speed="36.11" length="0.26" width="3.31" shape="-15.83,-31.69 -16.06,-31.58"/>
        <lane id=":11_0_1" index="1" disallow="rail_fast" speed="36.11" length="0.26" width="3.11" shape="-14.36,-28.83 -14.59,-28.71"/>
    </edge>
    <edge id=":12_0" function="internal">
        <lane id=":12_0_0" index="0" disallow="rail_fast" speed="36.11" length="3.06" width="3.50" shape="3.32,-41.65 6.05,-43.05"/>
        <lane id=":12_0_1" index="1" disallow="rail_fast" speed="36.11" length="3.06" width="3.31" shape="4.83,-38.61 7.55,-39.98"/>
    </edge>
    <edge id=":13_0" function="internal">
        <lane id=":13_0_0" index="0" disallow="bus truck rail_fast" speed="11.02" length="10.30" width="3.87" shape="8.72,-52.01 9.38,-51.85 9.98,-51.71 10.54,-51.58 11.05,-51.48 11.52,-51.41 11.96,-51.35 12.37,-51.32 12.77,-51.31 13.15,-51.33 13.52,-51.37 13.90,-51.44 14.29,-51.54 14.68,-51.66 15.10,-51.81 15.54,-51.99 16.02,-52.20 16.54,-52.44 17.10,-52.71 17.71,-53.01"/>
        <lane id=":13_0_1" index="1" disallow="bus truck rail_fast" speed="12.20" length="10.30" width="3.51" shape="8.60,-48.46 9.39,-48.27 10.12,-48.11 10.78,-47.97 11.39,-47.86 11.95,-47.77 12.48,-47.71 12.97,-47.67 13.45,-47.67 13.90,-47.69 14.35,-47.74 14.80,-47.82 15.26,-47.94 15.73,-48.08 16.23,-48.26 16.76,-48.47 17.33,-48.72 17.94,-49.01 18.61,-49.33 19.35,-49.68"/>
    </edge>
    <edge id=":13_2" function="internal">
        <lane id=":13_2_0" index="0" disallow="bus truck rail_fast" speed="36.11" length="11.23" width="3.51" shape="9.38,-44.44 19.35,-49.68"/>
        <lane id=":13_2_1" index="1" disallow="bus truck rail_fast" speed="36.11" length="11.23" width="3.38" shape="11.12,-41.12 11.81,-41.60 12.43,-42.04 12.99,-42.42 13.50,-42.76 13.98,-43.07 14.42,-43.35 14.83,-43.60 15.24,-43.83 15.63,-44.04 16.02,-44.25 16.42,-44.45 16.84,-44.65 17.28,-44.86 17.75,-45.09 18.26,-45.33 18.82,-45.59 19.44,-45.89 20.12,-46.22 20.87,-46.58"/>
    </edge>
    <edge id=":13_4" function="internal">
        <lane id=":13_4_0" index="0" disallow="rail_fast" speed="36.11" length="13.86" width="3.51" shape="6.94,-43.49 19.35,-49.68"/>
        <lane id=":13_4_1" index="1" disallow="rail_fast" speed="36.11" length="13.86" width="3.38" shape="8.46,-40.43 20.87,-46.58"/>
    </edge>
    <edge id=":15_0" function="internal">
        <lane id=":15_0_0" index="0" disallow="rail_fast" speed="36.11" length="19.07" width="2.82" shape="-15.52,-30.82 -23.96,-47.92"/>
        <lane id=":15_0_1" index="1" disallow="rail_fast" speed="36.11" length="19.07" width="2.97" shape="-12.74,-32.25 -21.13,-49.37"/>
        <lane id=":15_0_2" index="2" disallow="rail_fast" speed="36.11" length="19.07" width="2.96" shape="-10.05,-33.64 -18.44,-50.75"/>
    </edge>
    <edge id=":15_3" function="internal">
        <lane id=":15_3_0" index="0" disallow="bus truck rail_fast" speed="13.68" length="23.17" width="2.96" shape="-3.63,-33.87 -4.38,-34.04 -5.14,-34.28 -5.90,-34.60 -6.67,-35.01 -7.43,-35.49 -8.20,-36.06 -8.97,-36.70 -9.75,-37.43 -10.52,-38.24 -11.30,-39.12 -12.09,-40.09 -12.87,-41.14 -13.66,-42.27 -14.45,-43.48 -15.24,-44.78 -16.04,-46.15 -16.84,-47.60 -17.64,-49.14 -18.44,-50.75"/>
    </edge>
    <edge id=":15_4" function="internal">
        <lane id=":15_4_0" index="0" disallow="bus truck rail_fast" speed="36.11" length="4.30" width="2.82" shape="-22.08,-44.05 -23.96,-47.92"/>
    </edge>
    <edge id=":18_0" function="internal">
        <lane id=":18_0_0" index="0" disallow="rail_fast" speed="14.45" length="8.28" width="3.25" shape="32.14,-40.66 31.60,-40.40 31.11,-40.15 30.66,-39.93 30.26,-39.72 29.90,-39.51 29.57,-39.32 29.27,-39.13 28.99,-38.93 28.73,-38.73 28.48,-38.52 28.24,-38.29 28.00,-38.05 27.76,-37.78 27.51,-37.49 27.26,-37.17 26.98,-36.81 26.68,-36.41 26.35,-35.97 26.00,-35.48"/>
        <lane id=":18_0_1" index="1" disallow="rail_fast" speed="36.11" length="8.28" width="3.60" shape="32.14,-40.66 24.90,-37.10"/>
        <lane id=":18_0_2" index="2" disallow="rail_fast" speed="36.11" length="8.28" width="3.67" shape="30.55,-43.94 22.85,-40.14"/>
    </edge>
    <edge id=":19_0" function="internal">
        <lane id=":19_0_0" index="0" disallow="rail_fast" speed="9.74" length="3.41" width="3.19" shape="24.66,-33.66 24.50,-33.45 24.34,-33.26 24.20,-33.09 24.06,-32.94 23.93,-32.82 23.80,-32.71 23.67,-32.61 23.55,-32.53 23.42,-32.45 23.29,-32.39 23.15,-32.32 23.00,-32.26 22.85,-32.20 22.68,-32.13 22.50,-32.06 22.31,-31.98 22.10,-31.89 21.87,-31.79 21.62,-31.68"/>
        <lane id=":19_0_1" index="1" disallow="rail_fast" speed="36.11" length="3.41" width="3.52" shape="23.18,-36.24 20.15,-34.74"/>
        <lane id=":19_0_2" index="2" disallow="rail_fast" speed="36.11" length="3.41" width="3.68" shape="21.37,-39.40 18.57,-38.00"/>
    </edge>
    <edge id=":2_0" function="internal">
        <lane id=":2_0_0" index="0" disallow="bus truck rail_fast" speed="8.75" length="5.40" width="3.35" shape="61.22,46.08 60.82,46.10 60.47,46.11 60.14,46.13 59.84,46.15 59.57,46.18 59.31,46.21 59.08,46.26 58.86,46.31 58.65,46.37 58.44,46.45 58.24,46.54 58.04,46.65 57.84,46.77 57.63,46.92 57.41,47.08 57.17,47.26 56.92,47.47 56.65,47.70 56.35,47.96"/>
    </edge>
    <edge id=":20_0" function="internal">
        <lane id=":20_0_0" index="0" disallow="bus truck rail_fast" speed="14.27" length="3.68" width="2.93" shape="19.00,-30.41 18.75,-30.29 18.53,-30.19 18.33,-30.09 18.14,-30.01 17.97,-29.93 17.81,-29.85 17.67,-29.78 17.53,-29.71 17.40,-29.64 17.28,-29.57 17.15,-29.48 17.03,-29.40 16.90,-29.30 16.77,-29.19 16.63,-29.07 16.49,-28.93 16.33,-28.77 16.16,-28.60 15.97,-28.40"/>
    </edge>
    <edge id=":20_1" function="internal">
        <lane id=":20_1_0" index="0" disallow="rail_fast" speed="36.11" length="4.87" width="3.46" shape="17.55,-33.45 13.20,-31.29"/>
        <lane id=":20_1_1" index="1" disallow="rail_fast" speed="36.11" length="4.87" width="3.70" shape="15.99,-36.71 11.62,-34.52"/>
    </edge>
    <edge id=":20_3" function="internal">
        <lane id=":20_3_0" index="0" disallow="bus truck rail_fast" speed="36.11" length="4.93" width="3.01" shape="15.99,-36.71 15.66,-36.55 15.36,-36.40 15.09,-36.27 14.84,-36.16 14.62,-36.05 14.41,-35.96 14.21,-35.88 14.02,-35.81 13.83,-35.74 13.65,-35.68 13.46,-35.62 13.26,-35.57 13.06,-35.51 12.84,-35.45 12.59,-35.38 12.33,-35.31 12.04,-35.23 11.72,-35.15 11.36,-35.05"/>
    </edge>
    <edge id=":21_0" function="internal">
        <lane id=":21_0_0" index="0" disallow="rail_fast" speed="36.11" length="3.05" width="3.21" shape="12.02,-30.71 9.29,-29.36"/>
        <lane id=":21_0_1" index="1" disallow="rail_fast" speed="36.11" length="3.05" width="3.68" shape="10.44,-33.93 7.72,-32.56"/>
    </edge>
    <edge id=":22_0" function="internal">
        <lane id=":22_0_0" index="0" disallow="rail_fast" speed="36.11" length="10.83" width="3.17" shape="-2.23,-23.66 -11.94,-18.85"/>
        <lane id=":22_0_1" index="1" disallow="rail_fast" speed="36.11" length="10.83" width="3.68" shape="-3.80,-26.79 -13.48,-21.93"/>
    </edge>
    <edge id=":22_2" function="internal">
        <lane id=":22_2_0" index="0" disallow="bus truck rail_fast" speed="9.83" length="11.33" width="3.68" shape="-6.84,-30.56 -6.97,-29.95 -7.11,-29.36 -7.29,-28.79 -7.49,-28.23 -7.71,-27.69 -7.96,-27.17 -8.23,-26.66 -8.53,-26.18 -8.85,-25.70 -9.20,-25.25 -9.58,-24.81 -9.98,-24.39 -10.40,-23.99 -10.85,-23.60 -11.32,-23.24 -11.82,-22.89 -12.35,-22.55 -12.90,-22.23 -13.48,-21.93"/>
    </edge>
    <edge id=":23_0" function="internal">
        <lane id=":23_0_0" index="0" disallow="bus truck rail_fast" speed="36.11" length="4.83" width="5.13" shape="-26.10,-7.70 -21.42,-8.92"/>
    </edge>
    <edge id=":23_1" function="internal">
        <lane id=":23_1_0" index="0" disallow="rail_fast" speed="36.11" length="4.52" width="3.11" shape="-19.18,-15.30 -23.21,-13.24"/>
        <lane id=":23_1_1" index="1" disallow="rail_fast" speed="36.11" length="4.52" width="3.66" shape="-20.51,-18.45 -24.52,-16.38"/>
    </edge>
    <edge id=":25_0" function="internal">
        <lane id=":25_0_0" index="0" disallow="bus truck rail_fast" speed="36.11" length="2.87" width="5.36" shape="59.17,41.01 62.05,40.99"/>
    </edge>
    <edge id=":28_0" function="internal">
        <lane id=":28_0_0" index="0" disallow="rail_fast" speed="36.11" length="7.96" width="3.51" shape="-30.31,-117.06 -26.69,-109.73"/>
        <lane id=":28_0_1" index="1" disallow="rail_fast" speed="36.11" length="7.96" width="2.89" shape="-33.21,-115.48 -29.62,-108.28"/>
        <lane id=":28_0_2" index="2" disallow="rail_fast" speed="36.11" length="7.96" width="3.01" shape="-35.88,-114.02 -32.34,-106.94"/>
        <lane id=":28_0_3" index="3" disallow="rail_fast" speed="36.11" length="7.96" width="2.82" shape="-38.58,-112.54 -35.05,-105.60"/>
        <lane id=":28_0_4" index="4" disallow="bus rail_fast" speed="36.11" length="7.96" width="2.91" shape="-38.58,-112.54 -38.31,-112.02 -38.07,-111.55 -37.86,-111.12 -37.67,-110.73 -37.50,-110.37 -37.35,-110.03 -37.21,-109.72 -37.09,-109.42 -36.98,-109.12 -36.88,-108.82 -36.79,-108.52 -36.70,-108.21 -36.61,-107.88 -36.52,-107.52 -36.43,-107.13 -36.33,-106.71 -36.22,-106.24 -36.10,-105.72 -35.96,-105.15"/>
    </edge>
    <edge id=":29_0" function="internal">
        <lane id=":29_0_0" index="0" disallow="rail_fast" speed="36.11" length="3.88" width="3.35" shape="-21.92,-100.02 -20.22,-96.60"/>
        <lane id=":29_0_1" index="1" disallow="rail_fast" speed="36.11" length="3.88" width="2.89" shape="-24.77,-98.54 -23.05,-95.10"/>
        <lane id=":29_0_2" index="2" disallow="rail_fast" speed="36.11" length="3.88" width="3.08" shape="-27.46,-97.14 -25.73,-93.68"/>
        <lane id=":29_0_3" index="3" disallow="rail_fast" speed="36.11" length="3.88" width="2.82" shape="-30.12,-95.76 -28.38,-92.28"/>
        <lane id=":29_0_4" index="4" disallow="bus rail_fast" speed="36.11" length="3.88" width="3.05" shape="-32.52,-94.52 -32.42,-94.24 -32.33,-93.99 -32.25,-93.77 -32.17,-93.56 -32.11,-93.37 -32.04,-93.20 -31.99,-93.04 -31.93,-92.89 -31.87,-92.74 -31.81,-92.59 -31.76,-92.45 -31.69,-92.30 -31.62,-92.14 -31.55,-91.97 -31.46,-91.79 -31.37,-91.60 -31.27,-91.38 -31.15,-91.14 -31.02,-90.87"/>
    </edge>
    <edge id=":30_0" function="internal">
        <lane id=":30_0_0" index="0" disallow="bus truck rail_fast" speed="10.23" length="10.24" width="3.11" shape="-0.49,-57.67 -0.26,-57.27 0.00,-56.88 0.28,-56.50 0.58,-56.14 0.91,-55.79 1.26,-55.45 1.63,-55.12 2.02,-54.81 2.44,-54.51 2.88,-54.23 3.34,-53.95 3.82,-53.69 4.33,-53.45 4.85,-53.21 5.40,-52.99 5.98,-52.78 6.57,-52.59 7.19,-52.40 7.83,-52.23"/>
    </edge>
    <edge id=":30_1" function="internal">
        <lane id=":30_1_0" index="0" disallow="bus truck rail_fast" speed="11.58" length="11.05" width="3.13" shape="-3.55,-56.07 -3.18,-55.35 -2.84,-54.72 -2.51,-54.15 -2.19,-53.64 -1.88,-53.19 -1.56,-52.79 -1.24,-52.43 -0.91,-52.11 -0.56,-51.82 -0.20,-51.56 0.19,-51.32 0.61,-51.09 1.06,-50.88 1.55,-50.66 2.07,-50.44 2.65,-50.21 3.28,-49.96 3.96,-49.69 4.71,-49.40"/>
    </edge>
    <edge id=":30_2" function="internal">
        <lane id=":30_2_0" index="0" disallow="rail_fast" speed="36.11" length="10.45" width="3.12" shape="-3.55,-56.07 1.02,-46.51"/>
        <lane id=":30_2_1" index="1" disallow="rail_fast" speed="36.11" length="10.45" width="3.06" shape="-6.28,-54.63 -1.78,-45.19"/>
        <lane id=":30_2_2" index="2" disallow="rail_fast" speed="36.11" length="10.45" width="2.98" shape="-8.97,-53.21 -4.51,-43.91"/>
    </edge>
    <edge id=":30_5" function="internal">
        <lane id=":30_5_0" index="0" disallow="bus truck rail_fast" speed="36.11" length="10.20" width="2.87" shape="-11.66,-51.80 -11.32,-51.11 -11.02,-50.50 -10.74,-49.94 -10.48,-49.43 -10.25,-48.96 -10.04,-48.53 -9.84,-48.13 -9.66,-47.74 -9.49,-47.37 -9.32,-47.00 -9.15,-46.62 -8.99,-46.23 -8.82,-45.82 -8.65,-45.38 -8.47,-44.90 -8.28,-44.38 -8.07,-43.80 -7.85,-43.16 -7.60,-42.45"/>
    </edge>
    <edge id=":31_0" function="internal">
        <lane id=":31_0_0" index="0" disallow="rail_fast" speed="36.11" length="3.22" width="3.12" shape="1.90,-44.65 3.29,-41.75"/>
        <lane id=":31_0_1" index="1" disallow="rail_fast" speed="36.11" length="3.22" width="3.06" shape="-0.85,-43.25 0.53,-40.35"/>
        <lane id=":31_0_2" index="2" disallow="rail_fast" speed="36.11" length="3.22" width="2.95" shape="-3.55,-41.88 -2.16,-38.98"/>
    </edge>
    <edge id=":32_0" function="internal">
        <lane id=":32_0_0" index="0" disallow="rail_fast" speed="36.11" length="2.64" width="3.14" shape="9.34,-29.16 10.48,-26.77"/>
        <lane id=":32_0_1" index="1" disallow="rail_fast" speed="36.11" length="2.64" width="3.10" shape="6.53,-27.80 7.67,-25.41"/>
        <lane id=":32_0_2" index="2" disallow="rail_fast" speed="36.11" length="2.64" width="2.93" shape="3.81,-26.48 4.94,-24.10"/>
    </edge>
    <edge id=":34_0" function="internal">
        <lane id=":34_0_0" index="0" disallow="rail_fast" speed="36.11" length="3.05" width="2.78" shape="22.02,44.53 20.66,41.79"/>
        <lane id=":34_0_1" index="1" disallow="rail_fast" speed="36.11" length="3.05" width="3.00" shape="24.62,43.27 23.26,40.53"/>
        <lane id=":34_0_2" index="2" disallow="bus rail_fast" speed="36.11" length="3.05" width="3.02" shape="27.34,41.95 26.00,39.21"/>
        <lane id=":34_0_3" index="3" disallow="bus rail_fast" speed="36.11" length="3.05" width="2.96" shape="30.06,40.63 28.71,37.89"/>
        <lane id=":34_0_4" index="4" disallow="rail_fast" speed="36.11" length="3.05" width="3.03" shape="32.78,39.31 31.42,36.58"/>
    </edge>
    <edge id=":35_0" function="internal">
        <lane id=":35_0_0" index="0" disallow="rail_fast" speed="21.96" length="7.43" width="2.94" shape="12.66,25.93 12.40,25.43 12.17,24.98 11.95,24.59 11.74,24.23 11.54,23.91 11.34,23.62 11.15,23.36 10.96,23.11 10.76,22.89 10.56,22.67 10.34,22.45 10.11,22.23 9.87,22.01 9.61,21.77 9.32,21.51 9.01,21.23 8.67,20.93 8.29,20.59 7.88,20.20"/>
        <lane id=":35_0_1" index="1" disallow="rail_fast" speed="36.11" length="7.43" width="2.94" shape="12.66,25.93 9.35,19.37"/>
        <lane id=":35_0_2" index="2" disallow="rail_fast" speed="36.11" length="7.43" width="3.05" shape="15.33,24.58 11.99,17.87"/>
        <lane id=":35_0_3" index="3" disallow="rail_fast" speed="36.11" length="7.43" width="3.03" shape="18.06,23.20 14.65,16.36"/>
        <lane id=":35_0_4" index="4" disallow="rail_fast" speed="36.11" length="7.43" width="3.05" shape="20.78,21.83 17.31,14.86"/>
        <lane id=":35_0_5" index="5" disallow="rail_fast" speed="36.11" length="7.43" width="3.12" shape="23.53,20.44 20.54,14.37"/>
    </edge>
    <edge id=":36_0" function="internal">
        <lane id=":36_0_0" index="0" disallow="rail_fast" speed="15.71" length="3.50" width="3.22" shape="7.50,19.84 7.29,19.66 7.10,19.50 6.92,19.36 6.75,19.23 6.59,19.12 6.44,19.03 6.30,18.94 6.16,18.85 6.03,18.77 5.90,18.69 5.78,18.60 5.66,18.50 5.54,18.40 5.43,18.27 5.31,18.13 5.19,17.97 5.07,17.79 4.94,17.58 4.81,17.33"/>
        <lane id=":36_0_1" index="1" disallow="rail_fast" speed="36.11" length="3.50" width="2.87" shape="9.16,18.99 7.64,15.97"/>
        <lane id=":36_0_2" index="2" disallow="rail_fast" speed="36.11" length="3.50" width="3.00" shape="11.86,17.60 10.39,14.64"/>
        <lane id=":36_0_3" index="3" disallow="rail_fast" speed="36.11" length="3.50" width="3.02" shape="14.57,16.20 13.12,13.30"/>
        <lane id=":36_0_4" index="4" disallow="rail_fast" speed="36.11" length="3.50" width="3.02" shape="17.27,14.77 15.84,11.92"/>
        <lane id=":36_0_5" index="5" disallow="rail_fast" speed="36.11" length="3.50" width="3.03" shape="20.45,14.20 18.63,10.50"/>
    </edge>
    <edge id=":37_0" function="internal">
        <lane id=":37_0_0" index="0" disallow="bus truck rail_fast" speed="36.11" length="4.73" width="3.84" shape="-4.73,-1.63 -4.89,-1.94 -5.03,-2.23 -5.16,-2.49 -5.28,-2.73 -5.38,-2.94 -5.48,-3.14 -5.57,-3.33 -5.65,-3.50 -5.74,-3.67 -5.83,-3.84 -5.93,-4.00 -6.03,-4.17 -6.14,-4.34 -6.26,-4.52 -6.40,-4.72 -6.56,-4.92 -6.73,-5.15 -6.93,-5.40 -7.15,-5.68"/>
    </edge>
    <edge id=":37_1" function="internal">
        <lane id=":37_1_0" index="0" disallow="rail_fast" speed="36.11" length="5.10" width="2.87" shape="-1.77,-3.14 -4.07,-7.73"/>
        <lane id=":37_1_1" index="1" disallow="rail_fast" speed="36.11" length="5.10" width="3.02" shape="0.88,-4.49 -1.41,-9.05"/>
        <lane id=":37_1_2" index="2" disallow="rail_fast" speed="36.11" length="5.10" width="3.12" shape="3.61,-5.89 1.36,-10.42"/>
    </edge>
    <edge id=":37_4" function="internal">
        <lane id=":37_4_0" index="0" disallow="bus truck rail_fast" speed="36.11" length="5.03" width="2.93" shape="6.36,-7.29 4.11,-11.79"/>
    </edge>
    <edge id=":37_5" function="internal">
        <lane id=":37_5_0" index="0" disallow="bus truck rail_fast" speed="36.11" length="4.99" width="3.03" shape="9.07,-8.67 6.84,-13.14"/>
    </edge>
    <edge id=":38_0" function="internal">
        <lane id=":38_0_0" index="0" disallow="rail_fast" speed="36.11" length="3.02" width="3.06" shape="-8.65,-16.97 -10.00,-19.68"/>
        <lane id=":38_0_1" index="1" disallow="rail_fast" speed="36.11" length="3.02" width="2.99" shape="-5.93,-18.31 -7.26,-21.02"/>
        <lane id=":38_0_2" index="2" disallow="rail_fast" speed="36.11" length="3.02" width="3.06" shape="-3.18,-19.66 -4.51,-22.37"/>
    </edge>
    <edge id=":39_0" function="internal">
        <lane id=":39_0_0" index="0" disallow="rail_fast" speed="36.11" length="1.22" width="3.29" shape="-15.97,-31.73 -15.43,-30.64"/>
        <lane id=":39_0_1" index="1" disallow="rail_fast" speed="36.11" length="1.22" width="2.97" shape="-13.19,-33.17 -12.65,-32.07"/>
        <lane id=":39_0_2" index="2" disallow="rail_fast" speed="36.11" length="1.22" width="3.01" shape="-10.50,-34.55 -9.96,-33.46"/>
    </edge>
    <edge id=":5_0" function="internal">
        <lane id=":5_0_0" index="0" disallow="bus truck rail_fast" speed="8.72" length="16.70" width="3.23" shape="-28.30,-25.25 -27.06,-25.89 -25.90,-26.52 -24.83,-27.16 -23.84,-27.79 -22.93,-28.42 -22.10,-29.05 -21.35,-29.67 -20.69,-30.30 -20.11,-30.92 -19.61,-31.55 -19.19,-32.17 -18.86,-32.78 -18.61,-33.40 -18.44,-34.02 -18.35,-34.63 -18.35,-35.24 -18.42,-35.85 -18.58,-36.46 -18.83,-37.07"/>
    </edge>
    <edge id=":5_1" function="internal">
        <lane id=":5_1_0" index="0" disallow="rail_fast" speed="36.11" length="13.86" width="3.23" shape="-28.30,-25.25 -16.01,-31.60"/>
        <lane id=":5_1_1" index="1" disallow="rail_fast" speed="36.11" length="13.86" width="3.03" shape="-26.91,-22.45 -14.54,-28.74"/>
    </edge>
    <edge id=":5_3" function="internal">
        <lane id=":5_3_0" index="0" disallow="bus truck rail_fast" speed="36.11" length="1.56" width="2.92" shape="-25.56,-19.72 -26.96,-19.03"/>
    </edge>
    <edge id=":6_0" function="internal">
        <lane id=":6_0_0" index="0" disallow="bus truck rail_fast" speed="9.12" length="13.80" width="3.05" shape="15.41,-27.81 15.04,-27.38 14.72,-26.93 14.44,-26.44 14.21,-25.93 14.03,-25.39 13.89,-24.82 13.79,-24.23 13.74,-23.60 13.74,-22.95 13.78,-22.27 13.87,-21.56 14.00,-20.82 14.18,-20.05 14.41,-19.26 14.68,-18.43 14.99,-17.58 15.35,-16.70 15.76,-15.80 16.21,-14.86"/>
    </edge>
    <edge id=":6_1" function="internal">
        <lane id=":6_1_0" index="0" disallow="rail_fast" speed="36.11" length="13.06" width="3.05" shape="10.57,-26.59 16.21,-14.86"/>
        <lane id=":6_1_1" index="1" disallow="rail_fast" speed="36.11" length="13.06" width="2.91" shape="7.75,-25.23 13.40,-13.45"/>
        <lane id=":6_1_2" index="2" disallow="rail_fast" speed="36.11" length="13.06" width="2.89" shape="5.03,-23.92 10.69,-12.10"/>
    </edge>
    <edge id=":6_4" function="internal">
        <lane id=":6_4_0" index="0" disallow="bus truck rail_fast" speed="36.11" length="13.55" width="2.89" shape="4.18,-23.98 10.69,-12.10"/>
    </edge>
    <edge id=":7_0" function="internal">
        <lane id=":7_0_0" index="0" disallow="rail_fast" speed="36.11" length="0.24" width="3.05" shape="26.55,6.40 26.65,6.60"/>
        <lane id=":7_0_1" index="1" disallow="rail_fast" speed="36.11" length="0.24" width="2.91" shape="23.88,7.73 23.99,7.95"/>
        <lane id=":7_0_2" index="2" disallow="rail_fast" speed="36.11" length="0.24" width="2.89" shape="21.28,9.03 21.40,9.25"/>
    </edge>
    <edge id=":8_0" function="internal">
        <lane id=":8_0_0" index="0" disallow="rail_fast" speed="36.11" length="3.05" width="3.03" shape="29.77,12.68 31.14,15.41"/>
        <lane id=":8_0_1" index="1" disallow="rail_fast" speed="36.11" length="3.05" width="3.00" shape="27.04,14.04 28.41,16.76"/>
        <lane id=":8_0_2" index="2" disallow="rail_fast" speed="36.11" length="3.05" width="2.94" shape="24.40,15.36 25.74,18.09"/>
    </edge>
    <edge id=":9_0" function="internal">
        <lane id=":9_0_0" index="0" disallow="bus truck rail_fast" speed="10.11" length="13.46" width="3.16" shape="39.40,31.94 39.83,32.78 40.28,33.58 40.73,34.33 41.19,35.05 41.66,35.71 42.13,36.34 42.61,36.93 43.10,37.47 43.59,37.97 44.09,38.42 44.60,38.84 45.12,39.21 45.65,39.53 46.18,39.82 46.71,40.06 47.26,40.26 47.81,40.42 48.37,40.53 48.94,40.60"/>
    </edge>
    <edge id=":9_1" function="internal">
        <lane id=":9_1_0" index="0" disallow="rail_fast" speed="36.11" length="13.11" width="3.16" shape="39.40,31.94 45.20,43.70"/>
        <lane id=":9_1_1" index="1" disallow="bus rail_fast" speed="36.11" length="13.11" width="2.93" shape="36.62,33.29 42.44,45.04"/>
        <lane id=":9_1_2" index="2" disallow="rail_fast" speed="36.11" length="13.11" width="3.07" shape="33.87,34.63 39.70,46.37"/>
    </edge>

    <edge id="3426" from="34" to="35" priority="1" spreadType="center" length="21.90">
        <lane id="3426_0" index="0" disallow="rail_fast" speed="36.11" length="21.90" width="2.78" customShape="1" shape="20.66,41.79 16.18,32.90 12.66,25.93"/>
        <lane id="3426_1" index="1" disallow="rail_fast" speed="36.11" length="21.90" width="3.00" customShape="1" shape="23.26,40.53 18.84,31.65 15.33,24.58"/>
        <lane id="3426_2" index="2" disallow="rail_fast" speed="36.11" length="21.90" width="3.02" customShape="1" shape="26.00,39.21 21.52,30.21 18.06,23.20"/>
        <lane id="3426_3" index="3" disallow="rail_fast" speed="36.11" length="21.90" width="2.96" customShape="1" shape="28.71,37.89 24.21,28.76 20.78,21.83"/>
        <lane id="3426_4" index="4" disallow="rail_fast" speed="36.11" length="21.90" width="3.03" customShape="1" shape="31.42,36.58 26.94,27.37 23.53,20.44"/>
    </edge>
    <edge id="3438" from="35" to="36" priority="1" spreadType="center" length="8.44">
        <lane id="3438_0" index="0" disallow="rail_fast" speed="36.11" length="8.44" width="2.94" customShape="1" shape="7.88,20.20 7.50,19.84"/>
        <lane id="3438_1" index="1" disallow="rail_fast" speed="36.11" length="8.44" width="2.94" customShape="1" shape="9.35,19.37 9.16,18.99"/>
        <lane id="3438_2" index="2" disallow="rail_fast" speed="36.11" length="8.44" width="3.05" customShape="1" shape="11.99,17.87 11.86,17.60"/>
        <lane id="3438_3" index="3" disallow="rail_fast" speed="36.11" length="8.44" width="3.03" customShape="1" shape="14.65,16.36 14.57,16.20"/>
        <lane id="3438_4" index="4" disallow="rail_fast" speed="36.11" length="8.44" width="3.05" customShape="1" shape="17.31,14.86 17.27,14.77"/>
        <lane id="3438_5" index="5" disallow="rail_fast" speed="36.11" length="8.44" width="3.12" customShape="1" shape="20.54,14.37 20.45,14.20"/>
    </edge>
    <edge id="3450" from="36" to="37" priority="1" spreadType="center" length="24.49">
        <lane id="3450_0" index="0" disallow="rail_fast" speed="36.11" length="24.49" width="3.22" customShape="1" shape="4.81,17.33 1.63,11.07 -2.15,3.38 -4.73,-1.63"/>
        <lane id="3450_1" index="1" disallow="rail_fast" speed="36.11" length="24.49" width="2.87" customShape="1" shape="7.64,15.97 4.63,9.92 0.81,1.97 -1.77,-3.14"/>
        <lane id="3450_2" index="2" disallow="rail_fast" speed="36.11" length="24.49" width="3.00" customShape="1" shape="10.39,14.64 7.37,8.59 3.51,0.64 0.88,-4.49"/>
        <lane id="3450_3" index="3" disallow="rail_fast" speed="36.11" length="24.49" width="3.02" customShape="1" shape="13.12,13.30 10.03,7.14 6.15,-0.81 3.61,-5.89"/>
        <lane id="3450_4" index="4" disallow="rail_fast" speed="36.11" length="24.49" width="3.02" customShape="1" shape="15.84,11.92 12.72,5.68 8.84,-2.27 6.36,-7.29"/>
        <lane id="3450_5" index="5" disallow="rail_fast" speed="36.11" length="24.49" width="3.03" customShape="1" shape="18.63,10.50 15.41,4.18 11.53,-3.77 9.07,-8.67"/>
    </edge>
    <edge id="3456" from="6" to="7" priority="1" spreadType="center" length="24.71">
        <lane id="3456_0" index="0" disallow="rail_fast" speed="36.11" length="24.71" width="3.05" customShape="1" shape="16.21,-14.86 19.38,-8.53 23.23,-0.61 26.55,6.40"/>
        <lane id="3456_1" index="1" disallow="rail_fast" speed="36.11" length="24.71" width="2.91" customShape="1" shape="13.40,-13.45 16.81,-6.76 20.49,0.81 23.88,7.73"/>
        <lane id="3456_2" index="2" disallow="rail_fast" speed="36.11" length="24.71" width="2.89" customShape="1" shape="10.69,-12.10 14.19,-5.20 17.97,2.51 21.28,9.03"/>
    </edge>
    <edge id="3462" from="7" to="8" priority="1" spreadType="center" length="8.47">
        <lane id="3462_0" index="0" disallow="rail_fast" speed="36.11" length="8.47" width="3.05" customShape="1" shape="26.65,6.60 29.77,12.68"/>
        <lane id="3462_1" index="1" disallow="rail_fast" speed="36.11" length="8.47" width="2.91" customShape="1" shape="23.99,7.95 27.04,14.04"/>
        <lane id="3462_2" index="2" disallow="rail_fast" speed="36.11" length="8.47" width="2.89" customShape="1" shape="21.40,9.25 24.40,15.36"/>
    </edge>
    <edge id="3468" from="8" to="9" priority="1" spreadType="center" length="22.24">
        <lane id="3468_0" index="0" disallow="rail_fast" speed="36.11" length="22.24" width="3.03" customShape="1" shape="31.14,15.41 35.07,23.35 39.40,31.94"/>
        <lane id="3468_1" index="1" disallow="rail_fast" speed="36.11" length="22.24" width="3.00" customShape="1" shape="28.41,16.76 32.40,24.77 36.62,33.29"/>
        <lane id="3468_2" index="2" disallow="rail_fast" speed="36.11" length="22.24" width="2.94" customShape="1" shape="25.74,18.09 29.70,26.15 33.87,34.63"/>
    </edge>
    <edge id="3498" from="1" to="2" priority="1" spreadType="center" length="9.59">
        <lane id="3498_0" index="0" disallow="rail_fast" speed="36.11" length="9.59" width="4.77" customShape="1" shape="70.40,45.78 61.22,46.08"/>
    </edge>
    <edge id="3500" from="25" to="26" priority="1" spreadType="center" length="9.59">
        <lane id="3500_0" index="0" disallow="rail_fast" speed="36.11" length="9.59" width="5.36" customShape="1" shape="62.05,40.99 70.19,40.72"/>
    </edge>
    <edge id="3509" from="4" to="5" priority="1" spreadType="center" length="15.63">
        <lane id="3509_0" index="0" disallow="rail_fast" speed="36.11" length="15.63" width="3.23" customShape="1" shape="-40.39,-19.24 -36.00,-21.42 -28.30,-25.25"/>
        <lane id="3509_1" index="1" disallow="rail_fast" speed="36.11" length="15.63" width="3.02" customShape="1" shape="-39.00,-16.44 -34.57,-18.64 -26.91,-22.45"/>
        <lane id="3509_2" index="2" disallow="rail_fast" speed="36.11" length="15.63" width="3.06" customShape="1" shape="-37.65,-13.72 -33.16,-15.95 -25.56,-19.72"/>
    </edge>
    <edge id="3517" from="23" to="24" priority="1" spreadType="center" length="14.50">
        <lane id="3517_0" index="0" disallow="rail_fast" speed="36.11" length="14.50" width="5.13" acceleration="1" customShape="1" shape="-21.42,-8.92 -28.76,-5.39 -32.37,-3.42"/>
        <lane id="3517_1" index="1" disallow="rail_fast" speed="36.11" length="14.50" width="3.11" customShape="1" shape="-23.21,-13.24 -30.65,-9.24 -34.35,-7.03"/>
        <lane id="3517_2" index="2" disallow="rail_fast" speed="36.11" length="14.50" width="3.66" customShape="1" shape="-24.52,-16.38 -32.18,-12.27 -35.97,-10.00"/>
    </edge>