<routes>
	<vehicle depart="0.1" departLane="0" departPos="32.960870544679295" departSpeed="0.0" id="36" type="passenger">
		<route edges="1764 2746"/>
	</vehicle>
	<vehicle depart="0.1" departLane="0" departPos="5.640870156289831" departSpeed="8.6453481" id="38" type="passenger">
		<route edges=":50_4 1702 1755"/>
	</vehicle>
	<vehicle depart="0.1" departLane="0" departPos="25.46140268152725" departSpeed="0.0" id="313" type="passenger">
		<route edges="1764 2746"/>
	</vehicle>
	<vehicle depart="0.1" departLane="0" departPos="17.961937035121544" departSpeed="0.0" id="315" type="passenger">
		<route edges="1764 2746"/>
	</vehicle>
	<vehicle depart="0.1" departLane="0" departPos="66.55227400632451" departSpeed="7.8075418" id="317" type="passenger">
		<route edges="2646 2746 2423"/>
	</vehicle>
	<vehicle depart="0.1" departLane="0" departPos="49.25922996538965" departSpeed="6.3979243" id="321" type="passenger">
		<route edges="2646 1702"/>
	</vehicle>
	<vehicle depart="0.1" departLane="0" departPos="20.1844209602321" departSpeed="9.695793" id="327" type="passenger">
		<route edges=":50_4 1702 1755"/>
	</vehicle>
	<vehicle depart="0.1" departLane="0" departPos="5.76354011727781" departSpeed="8.0710367e-05" id="346" type="passenger">
		<route edges="1764 2746"/>
	</vehicle>
	<vehicle depart="0.1" departLane="0" departPos="10.613061423680236" departSpeed="1.0311407e-05" id="324" type="motorcycle">
		<route edges="1764 2746"/>
	</vehicle>
</routes>
