<!-- generated on Wed Feb 10 12:25:39 2021 by Eclipse SUMO netconvert Version 1.8.0
<configuration xmlns:xsi="http://www.w3.org/2001/XMLSchema-instance" xsi:noNamespaceSchemaLocation="http://sumo.dlr.de/xsd/netconvertConfiguration.xsd">

    <input>
        <node-files value="./converted_scenarios/SUMO/DEU_Lohmar-59_1_I-1-1/DEU_Lohmar-59_1_I-1-1.nod.xml"/>
        <edge-files value="./converted_scenarios/SUMO/DEU_Lohmar-59_1_I-1-1/DEU_Lohmar-59_1_I-1-1.edg.xml"/>
        <connection-files value="./converted_scenarios/SUMO/DEU_Lohmar-59_1_I-1-1/DEU_Lohmar-59_1_I-1-1.con.xml"/>
        <tllogic-files value="./converted_scenarios/SUMO/DEU_Lohmar-59_1_I-1-1/DEU_Lohmar-59_1_I-1-1.tll.xml"/>
        <type-files value="/home/zen/commonroad-interactive-benchmarks/install/commonroad-map-tool/crmapconverter/sumo_map/templates/DEU.typ.xml"/>
    </input>

    <output>
        <output-file value="./converted_scenarios/SUMO/DEU_Lohmar-59_1_I-1-1/DEU_Lohmar-59_1_I-1-1.net.xml"/>
    </output>

    <processing>
        <geometry.remove.keep-edges.explicit value="true"/>
        <geometry.avoid-overlap value="true"/>
        <offset.disable-normalization value="true"/>
    </processing>

    <junctions>
        <no-turnarounds value="true"/>
        <junctions.internal-link-detail value="20"/>
    </junctions>

    <report>
        <aggregate-warnings value="5"/>
    </report>

    <random_number>
        <seed value="1234"/>
    </random_number>

</configuration>
--><net xmlns:xsi="http://www.w3.org/2001/XMLSchema-instance" version="1.6" junctionCornerDetail="5" junctionLinkDetail="20" limitTurnSpeed="5.50" xsi:noNamespaceSchemaLocation="http://sumo.dlr.de/xsd/net_file.xsd">

    <location netOffset="0.00,0.00" convBoundary="-616.52,-547.45,-474.77,-340.19" origBoundary="-626.61,-547.45,-474.77,-340.19" projParameter="!"/>

    <type id="highway.bridleway" priority="1" speed="2.78" allow="pedestrian" oneway="1" width="2.00"/>
    <type id="highway.bus_guideway" priority="1" speed="27.78" allow="bus" oneway="1"/>
    <type id="highway.cycleway" priority="1" speed="8.33" allow="bicycle" oneway="0" width="1.00"/>
    <type id="highway.footway" priority="1" speed="2.78" allow="pedestrian" oneway="1" width="2.00"/>
    <type id="highway.ford" priority="1" speed="2.78" allow="army" oneway="0"/>
    <type id="highway.living_street" priority="2" speed="2.78" disallow="tram rail_urban rail rail_electric rail_fast ship" oneway="0"/>
    <type id="highway.motorway" priority="14" speed="39.44" allow="private emergency authority army vip passenger hov taxi bus coach delivery truck trailer motorcycle evehicle custom1 custom2" oneway="1"/>
    <type id="highway.motorway_link" priority="9" speed="22.22" allow="private emergency authority army vip passenger hov taxi bus coach delivery truck trailer motorcycle evehicle custom1 custom2" oneway="1"/>
    <type id="highway.path" priority="1" speed="2.78" allow="pedestrian bicycle" oneway="0" width="2.00"/>
    <type id="highway.pedestrian" priority="1" speed="2.78" allow="pedestrian" oneway="1" width="2.00"/>
    <type id="highway.primary" priority="12" speed="27.78" disallow="pedestrian tram rail_urban rail rail_electric rail_fast ship" oneway="0"/>
    <type id="highway.primary_link" priority="7" speed="22.22" disallow="pedestrian tram rail_urban rail rail_electric rail_fast ship" oneway="0"/>
    <type id="highway.raceway" priority="15" speed="83.33" allow="vip" oneway="0"/>
    <type id="highway.residential" priority="3" speed="13.89" disallow="pedestrian tram rail_urban rail rail_electric rail_fast ship" oneway="0"/>
    <type id="highway.secondary" priority="11" speed="27.78" disallow="pedestrian tram rail_urban rail rail_electric rail_fast ship" oneway="0"/>
    <type id="highway.secondary_link" priority="6" speed="22.22" disallow="pedestrian tram rail_urban rail rail_electric rail_fast ship" oneway="0"/>
    <type id="highway.service" priority="1" speed="5.56" allow="pedestrian delivery bicycle" oneway="0"/>
    <type id="highway.stairs" priority="1" speed="1.39" allow="pedestrian" oneway="1" width="2.00"/>
    <type id="highway.step" priority="1" speed="1.39" allow="pedestrian" oneway="1" width="2.00"/>
    <type id="highway.steps" priority="1" speed="1.39" allow="pedestrian" oneway="1" width="2.00"/>
    <type id="highway.tertiary" priority="10" speed="22.22" disallow="pedestrian tram rail_urban rail rail_electric rail_fast ship" oneway="0"/>
    <type id="highway.tertiary_link" priority="5" speed="22.22" disallow="pedestrian tram rail_urban rail rail_electric rail_fast ship" oneway="0"/>
    <type id="highway.track" priority="1" speed="5.56" allow="pedestrian motorcycle moped bicycle" oneway="0"/>
    <type id="highway.trunk" priority="13" speed="27.78" disallow="pedestrian bicycle tram rail_urban rail rail_electric rail_fast ship" oneway="0"/>
    <type id="highway.trunk_link" priority="8" speed="22.22" disallow="pedestrian bicycle tram rail_urban rail rail_electric rail_fast ship" oneway="0"/>
    <type id="highway.unclassified" priority="4" speed="13.89" disallow="pedestrian tram rail_urban rail rail_electric rail_fast ship" oneway="0"/>
    <type id="highway.unsurfaced" priority="1" speed="8.33" disallow="tram rail_urban rail rail_electric rail_fast ship" oneway="0"/>
    <type id="railway.highspeed" priority="21" speed="69.44" allow="rail_fast" oneway="1"/>
    <type id="railway.light_rail" priority="19" speed="27.78" allow="rail_urban" oneway="1"/>
    <type id="railway.preserved" priority="16" speed="27.78" allow="rail" oneway="1"/>
    <type id="railway.rail" priority="20" speed="44.44" allow="rail" oneway="1"/>
    <type id="railway.subway" priority="18" speed="27.78" allow="rail_urban" oneway="1"/>
    <type id="railway.tram" priority="17" speed="13.89" allow="tram" oneway="1"/>

    <edge id=":33_0" function="internal">
        <lane id=":33_0_0" index="0" disallow="pedestrian tram rail_urban rail rail_electric rail_fast ship" speed="36.11" length="17.43" width="3.50" shape="-594.31,-482.09 -594.48,-484.78 -594.68,-492.16 -594.51,-499.51"/>
    </edge>
    <edge id=":33_1" function="internal">
        <lane id=":33_1_0" index="0" disallow="pedestrian tram rail_urban rail rail_electric rail_fast ship" speed="8.40" length="15.92" width="3.50" shape="-594.31,-482.09 -594.33,-484.30 -594.01,-486.44 -593.54,-487.80 -592.82,-489.06 -591.86,-490.13 -590.70,-490.98 -589.40,-491.61 -587.32,-492.19 -585.16,-492.45"/>
    </edge>
    <edge id=":33_2" function="internal">
        <lane id=":33_2_0" index="0" disallow="pedestrian tram rail_urban rail rail_electric rail_fast ship" speed="6.87" length="10.26" width="3.50" shape="-584.97,-488.95 -586.50,-488.78 -587.92,-488.38 -588.71,-488.01 -589.39,-487.51 -589.93,-486.90 -590.35,-486.19 -590.63,-485.37 -590.84,-483.91 -590.82,-482.36"/>
    </edge>
    <edge id=":33_3" function="internal">
        <lane id=":33_3_0" index="0" disallow="pedestrian tram rail_urban rail rail_electric rail_fast ship" speed="8.34" length="16.56" width="3.50" shape="-584.97,-488.95 -586.37,-488.95 -588.42,-489.23 -589.87,-489.72 -591.23,-490.49 -592.39,-491.57 -593.27,-492.83 -593.88,-494.19 -594.25,-495.59 -594.50,-497.58 -594.51,-499.51"/>
    </edge>
    <edge id=":33_4" function="internal">
        <lane id=":33_4_0" index="0" disallow="pedestrian tram rail_urban rail rail_electric rail_fast ship" speed="6.81" length="10.64" width="3.50" shape="-591.01,-499.39 -591.01,-498.00 -590.85,-496.62 -590.63,-495.72 -590.28,-494.87 -589.77,-494.10 -589.12,-493.44 -588.33,-492.96 -587.46,-492.65 -586.09,-492.45 -585.16,-492.45"/>
    </edge>
    <edge id=":33_5" function="internal">
        <lane id=":33_5_0" index="0" disallow="pedestrian tram rail_urban rail rail_electric rail_fast ship" speed="36.11" length="17.04" width="3.50" shape="-591.01,-499.39 -591.18,-492.17 -590.99,-484.95 -590.82,-482.36"/>
    </edge>
    <edge id=":34_0" function="internal">
        <lane id=":34_0_0" index="0" disallow="pedestrian tram rail_urban rail rail_electric rail_fast ship" speed="7.27" length="11.28" width="3.50" shape="-558.89,-483.48 -559.00,-484.50 -559.31,-485.96 -559.86,-487.28 -560.32,-487.99 -560.90,-488.60 -561.59,-489.09 -562.38,-489.47 -563.25,-489.73 -564.72,-489.94 -566.25,-489.95"/>
    </edge>
    <edge id=":34_1" function="internal">
        <lane id=":34_1_0" index="0" disallow="pedestrian tram rail_urban rail rail_electric rail_fast ship" speed="36.11" length="16.61" width="3.50" shape="-558.89,-483.48 -559.39,-491.78 -559.89,-500.06"/>
    </edge>
    <edge id=":34_2" function="internal">
        <lane id=":34_2_0" index="0" disallow="pedestrian tram rail_urban rail rail_electric rail_fast ship" speed="36.11" length="16.53" width="3.50" shape="-556.40,-500.24 -555.90,-491.99 -555.40,-483.74"/>
    </edge>
    <edge id=":34_3" function="internal">
        <lane id=":34_3_0" index="0" disallow="pedestrian tram rail_urban rail rail_electric rail_fast ship" speed="8.55" length="16.22" width="3.50" shape="-556.39,-500.24 -556.39,-498.88 -556.64,-496.88 -557.06,-495.47 -557.72,-494.14 -558.65,-492.93 -559.76,-491.94 -561.02,-491.18 -562.35,-490.64 -564.29,-490.16 -566.25,-489.95"/>
    </edge>
    <edge id=":34_4" function="internal">
        <lane id=":34_4_0" index="0" disallow="pedestrian tram rail_urban rail rail_electric rail_fast ship" speed="7.04" length="10.64" width="3.50" shape="-566.43,-493.44 -565.05,-493.59 -563.70,-493.92 -562.84,-494.26 -562.04,-494.72 -561.34,-495.33 -560.76,-496.05 -560.34,-496.88 -560.06,-497.76 -559.89,-499.14 -559.89,-500.06"/>
    </edge>
    <edge id=":34_5" function="internal">
        <lane id=":34_5_0" index="0" disallow="pedestrian tram rail_urban rail rail_electric rail_fast ship" speed="8.73" length="16.77" width="3.50" shape="-566.43,-493.44 -564.33,-493.43 -562.26,-493.13 -560.92,-492.72 -559.66,-492.12 -558.53,-491.30 -557.57,-490.29 -556.80,-489.12 -556.00,-487.18 -555.55,-485.14 -555.40,-483.74"/>
    </edge>
    <edge id=":35_0" function="internal">
        <lane id=":35_0_0" index="0" disallow="pedestrian tram rail_urban rail rail_electric rail_fast ship" speed="36.11" length="16.52" width="3.50" shape="-589.13,-410.08 -589.23,-412.10 -590.13,-426.57"/>
    </edge>
    <edge id=":35_1" function="internal">
        <lane id=":35_1_0" index="0" disallow="pedestrian tram rail_urban rail rail_electric rail_fast ship" speed="8.49" length="15.89" width="3.50" shape="-589.13,-410.08 -589.09,-412.28 -588.71,-414.41 -588.22,-415.76 -587.48,-417.00 -586.53,-418.08 -585.37,-418.93 -584.07,-419.57 -582.00,-420.16 -579.85,-420.42"/>
    </edge>
    <edge id=":35_2" function="internal">
        <lane id=":35_2_0" index="0" disallow="pedestrian tram rail_urban rail rail_electric rail_fast ship" speed="6.98" length="10.36" width="3.50" shape="-579.64,-416.93 -581.17,-416.75 -582.60,-416.34 -583.38,-415.95 -584.07,-415.45 -584.62,-414.83 -585.05,-414.10 -585.35,-413.27 -585.61,-411.81 -585.63,-410.24"/>
    </edge>
    <edge id=":35_3" function="internal">
        <lane id=":35_3_0" index="0" disallow="pedestrian tram rail_urban rail rail_electric rail_fast ship" speed="8.59" length="16.16" width="3.50" shape="-579.64,-416.93 -581.01,-416.92 -583.01,-417.15 -584.41,-417.55 -585.74,-418.18 -586.96,-419.08 -587.98,-420.17 -588.76,-421.40 -589.34,-422.71 -589.87,-424.65 -590.13,-426.57"/>
    </edge>
    <edge id=":35_4" function="internal">
        <lane id=":35_4_0" index="0" disallow="pedestrian tram rail_urban rail rail_electric rail_fast ship" speed="7.09" length="10.66" width="3.50" shape="-586.64,-426.86 -586.46,-425.48 -586.10,-424.14 -585.73,-423.29 -585.24,-422.50 -584.62,-421.81 -583.88,-421.25 -583.05,-420.84 -582.16,-420.58 -580.78,-420.42 -579.85,-420.42"/>
    </edge>
    <edge id=":35_5" function="internal">
        <lane id=":35_5_0" index="0" disallow="pedestrian tram rail_urban rail rail_electric rail_fast ship" speed="36.11" length="16.65" width="3.50" shape="-586.64,-426.86 -585.73,-412.28 -585.63,-410.24"/>
    </edge>
    <edge id=":36_0" function="internal">
        <lane id=":36_0_0" index="0" disallow="pedestrian tram rail_urban rail rail_electric rail_fast ship" speed="36.11" length="16.52" width="3.50" shape="-544.63,-418.89 -552.91,-418.43 -561.12,-417.97"/>
    </edge>
    <edge id=":36_1" function="internal">
        <lane id=":36_1_0" index="0" disallow="pedestrian tram rail_urban rail rail_electric rail_fast ship" speed="8.50" length="15.86" width="3.50" shape="-544.63,-418.89 -546.83,-418.91 -548.96,-419.27 -550.31,-419.75 -551.55,-420.47 -552.64,-421.42 -553.50,-422.57 -554.15,-423.85 -554.77,-425.92 -555.06,-428.06"/>
    </edge>
    <edge id=":36_2" function="internal">
        <lane id=":36_2_0" index="0" disallow="pedestrian tram rail_urban rail rail_electric rail_fast ship" speed="6.99" length="10.36" width="3.50" shape="-551.57,-428.31 -551.37,-426.79 -550.94,-425.37 -550.55,-424.59 -550.04,-423.90 -549.41,-423.35 -548.68,-422.93 -547.85,-422.64 -546.39,-422.39 -544.82,-422.38"/>
    </edge>
    <edge id=":36_3" function="internal">
        <lane id=":36_3_0" index="0" disallow="pedestrian tram rail_urban rail rail_electric rail_fast ship" speed="8.47" length="16.07" width="3.50" shape="-551.57,-428.31 -551.54,-426.95 -551.74,-424.97 -552.13,-423.57 -552.75,-422.23 -553.64,-421.01 -554.73,-420.01 -555.98,-419.24 -557.29,-418.68 -559.22,-418.20 -561.12,-417.97"/>
    </edge>
    <edge id=":36_4" function="internal">
        <lane id=":36_4_0" index="0" disallow="pedestrian tram rail_urban rail rail_electric rail_fast ship" speed="6.95" length="10.47" width="3.50" shape="-561.35,-421.46 -560.00,-421.62 -558.67,-421.95 -557.83,-422.29 -557.05,-422.76 -556.37,-423.37 -555.82,-424.09 -555.43,-424.91 -555.18,-425.79 -555.04,-427.15 -555.06,-428.06"/>
    </edge>
    <edge id=":36_5" function="internal">
        <lane id=":36_5_0" index="0" disallow="pedestrian tram rail_urban rail rail_electric rail_fast ship" speed="36.11" length="16.56" width="3.50" shape="-561.35,-421.46 -553.11,-421.92 -544.82,-422.38"/>
    </edge>

    <edge id="169" from="33" to="24" priority="3" type="highway.residential" spreadType="center" length="70.00" shape="-591.72,-490.06 -616.52,-547.45">
        <lane id="169_0" index="0" disallow="pedestrian tram rail_urban rail rail_electric rail_fast ship" speed="36.11" length="70.00" width="3.50" customShape="1" shape="-594.51,-499.51 -594.48,-500.06 -594.51,-502.43 -594.77,-504.21 -595.14,-505.45 -595.69,-506.58 -596.42,-507.63 -597.31,-508.60 -598.32,-509.43 -599.85,-510.37 -601.55,-511.11 -603.85,-511.83 -610.33,-513.27 -613.96,-514.25 -616.56,-515.24 -618.57,-516.30 -620.90,-517.95 -623.08,-519.85 -624.28,-521.23 -625.28,-522.82 -626.01,-524.56 -626.43,-526.30 -626.61,-528.07 -626.48,-530.40 -626.03,-532.64 -625.15,-535.27 -623.99,-537.73 -622.31,-540.47 -620.08,-543.41 -616.52,-547.45"/>
    </edge>
    <edge id="170" from="1" to="33" priority="3" type="highway.residential" spreadType="center" length="69.88" shape="-612.41,-546.83 -588.51,-491.44">
        <lane id="170_0" index="0" disallow="pedestrian tram rail_urban rail rail_electric rail_fast ship" speed="36.11" length="69.88" width="3.50" customShape="1" shape="-612.41,-546.83 -617.37,-541.20 -619.42,-538.51 -620.91,-536.08 -621.90,-533.98 -622.65,-531.75 -623.01,-529.98 -623.11,-528.19 -622.99,-526.91 -622.69,-525.67 -622.20,-524.46 -621.50,-523.35 -620.62,-522.33 -618.76,-520.71 -616.77,-519.30 -615.13,-518.43 -612.90,-517.58 -609.53,-516.68 -602.93,-515.20 -600.30,-514.37 -598.22,-513.45 -596.25,-512.25 -594.87,-511.10 -593.66,-509.78 -592.64,-508.28 -591.86,-506.66 -591.35,-504.94 -591.02,-502.67 -590.99,-499.95 -591.01,-499.35"/>
    </edge>
    <edge id="172" from="35" to="33" priority="3" type="highway.residential" spreadType="center" length="55.73" shape="-586.91,-418.36 -591.88,-490.68">
        <lane id="172_0" index="0" disallow="pedestrian tram rail_urban rail rail_electric rail_fast ship" speed="36.11" length="55.73" width="3.50" customShape="1" shape="-590.13,-426.57 -592.22,-454.37 -594.31,-482.14"/>
    </edge>
    <edge id="173" from="33" to="35" priority="3" type="highway.residential" spreadType="center" length="55.69" shape="-588.39,-490.92 -583.42,-418.60">
        <lane id="173_0" index="0" disallow="pedestrian tram rail_urban rail rail_electric rail_fast ship" speed="36.11" length="55.69" width="3.50" customShape="1" shape="-590.82,-482.36 -588.73,-454.63 -586.64,-426.83"/>
    </edge>
    <edge id="175" from="32" to="35" priority="3" type="highway.residential" spreadType="center" length="70.00" shape="-585.97,-340.19 -586.92,-418.54">
        <lane id="175_0" index="0" disallow="pedestrian tram rail_urban rail rail_electric rail_fast ship" speed="36.11" length="70.00" width="3.50" customShape="1" shape="-585.97,-340.19 -589.13,-410.12"/>
    </edge>
    <edge id="176" from="35" to="14" priority="3" type="highway.residential" spreadType="center" length="70.00" shape="-583.42,-418.58 -582.47,-340.31">
        <lane id="176_0" index="0" disallow="pedestrian tram rail_urban rail rail_electric rail_fast ship" speed="36.11" length="70.00" width="3.50" customShape="1" shape="-585.63,-410.24 -582.47,-340.31"/>
    </edge>
    <edge id="511" from="34" to="33" priority="3" type="highway.residential" spreadType="center" length="18.76" shape="-560.38,-490.07 -590.07,-489.05">
        <lane id="511_0" index="0" disallow="pedestrian tram rail_urban rail rail_electric rail_fast ship" speed="36.11" length="18.76" width="3.50" customShape="1" shape="-566.25,-489.95 -575.61,-489.45 -584.98,-488.95"/>
    </edge>
    <edge id="512" from="33" to="34" priority="3" type="highway.residential" spreadType="center" length="18.76" shape="-590.19,-492.54 -560.50,-493.56">
        <lane id="512_0" index="0" disallow="pedestrian tram rail_urban rail rail_electric rail_fast ship" speed="36.11" length="18.76" width="3.50" customShape="1" shape="-585.16,-492.45 -575.80,-492.94 -566.43,-493.44"/>
    </edge>
    <edge id="514" from="36" to="35" priority="3" type="highway.residential" spreadType="center" length="18.56" shape="-552.77,-421.13 -584.94,-416.79">
        <lane id="514_0" index="0" disallow="pedestrian tram rail_urban rail rail_electric rail_fast ship" speed="36.11" length="18.56" width="3.50" customShape="1" shape="-561.12,-417.97 -570.41,-417.45 -579.65,-416.93"/>
    </edge>
    <edge id="515" from="35" to="36" priority="3" type="highway.residential" spreadType="center" length="18.56" shape="-585.40,-420.26 -553.24,-424.59">
        <lane id="515_0" index="0" disallow="pedestrian tram rail_urban rail rail_electric rail_fast ship" speed="36.11" length="18.56" width="3.50" customShape="1" shape="-579.85,-420.42 -570.60,-420.94 -561.32,-421.47"/>
    </edge>
    <edge id="517" from="17" to="36" priority="3" type="highway.residential" spreadType="center" length="70.01" shape="-474.77,-422.74 -553.10,-421.10">
        <lane id="517_0" index="0" disallow="pedestrian tram rail_urban rail rail_electric rail_fast ship" speed="36.11" length="70.01" width="3.50" customShape="1" shape="-474.77,-422.74 -504.70,-421.09 -544.67,-418.89"/>
    </edge>
    <edge id="518" from="36" to="7" priority="3" type="highway.residential" spreadType="center" length="70.00" shape="-553.17,-424.59 -474.93,-426.24">
        <lane id="518_0" index="0" disallow="pedestrian tram rail_urban rail rail_electric rail_fast ship" speed="36.11" length="70.00" width="3.50" customShape="1" shape="-544.82,-422.38 -504.89,-424.59 -474.93,-426.24"/>
    </edge>
    <edge id="537" from="34" to="36" priority="3" type="highway.residential" spreadType="center" length="55.57" shape="-558.80,-492.00 -551.35,-422.99">
        <lane id="537_0" index="0" disallow="pedestrian tram rail_urban rail rail_electric rail_fast ship" speed="36.11" length="55.57" width="3.50" customShape="1" shape="-555.40,-483.74 -553.48,-456.02 -551.57,-428.30"/>
    </edge>
    <edge id="538" from="36" to="34" priority="3" type="highway.residential" spreadType="center" length="55.57" shape="-554.83,-422.62 -562.28,-491.63">
        <lane id="538_0" index="0" disallow="pedestrian tram rail_urban rail rail_electric rail_fast ship" speed="36.11" length="55.57" width="3.50" customShape="1" shape="-555.06,-428.06 -556.97,-455.78 -558.89,-483.50"/>
    </edge>
    <edge id="540" from="19" to="34" priority="3" type="highway.residential" spreadType="center" length="30.51" shape="-557.96,-530.69 -558.79,-491.70">
        <lane id="540_0" index="0" disallow="pedestrian tram rail_urban rail rail_electric rail_fast ship" speed="36.11" length="30.51" width="3.50" customShape="1" shape="-557.96,-530.69 -557.18,-515.50 -556.39,-500.22"/>
    </edge>
    <edge id="541" from="34" to="31" priority="3" type="highway.residential" spreadType="center" length="30.55" shape="-562.29,-491.77 -561.45,-530.57">
        <lane id="541_0" index="0" disallow="pedestrian tram rail_urban rail rail_electric rail_fast ship" speed="36.11" length="30.55" width="3.50" customShape="1" shape="-559.89,-500.06 -560.67,-515.32 -561.45,-530.57"/>
    </edge>

    <junction id="1" type="dead_end" x="-612.41" y="-546.83" incLanes="" intLanes="" shape="-613.72,-547.99 -611.10,-545.67" rightOfWay="edgePriority"/>
    <junction id="14" type="dead_end" x="-582.47" y="-340.31" incLanes="176_0" intLanes="" shape="-580.72,-340.39 -584.22,-340.23" rightOfWay="edgePriority"/>
    <junction id="17" type="dead_end" x="-474.77" y="-422.74" incLanes="" intLanes="" shape="-474.87,-424.49 -474.68,-420.99" rightOfWay="edgePriority"/>
    <junction id="19" type="dead_end" x="-557.96" y="-530.69" incLanes="" intLanes="" shape="-559.70,-530.61 -556.21,-530.78" rightOfWay="edgePriority"/>
    <junction id="24" type="dead_end" x="-616.52" y="-547.45" incLanes="169_0" intLanes="" shape="-617.84,-548.61 -615.21,-546.30" rightOfWay="edgePriority"/>
    <junction id="31" type="dead_end" x="-561.45" y="-530.57" incLanes="541_0" intLanes="" shape="-563.20,-530.48 -559.70,-530.66" rightOfWay="edgePriority"/>
    <junction id="32" type="dead_end" x="-585.97" y="-340.19" incLanes="" intLanes="" shape="-584.22,-340.27 -587.71,-340.11" rightOfWay="edgePriority"/>
    <junction id="33" type="priority" x="-590.13" y="-490.80" incLanes="172_0 511_0 170_0" intLanes=":33_0_0 :33_1_0 :33_2_0 :33_3_0 :33_4_0 :33_5_0" shape="-596.05,-481.96 -589.08,-482.49 -588.76,-485.00 -588.20,-485.91 -587.36,-486.58 -586.26,-487.01 -584.89,-487.21 -585.26,-494.19 -587.59,-494.66 -588.38,-495.35 -588.93,-496.35 -589.22,-497.65 -589.27,-499.27 -596.26,-499.59 -596.43,-495.83 -596.53,-493.06 -596.55,-490.77 -596.49,-488.48 -596.33,-485.71">
        <request index="0" response="000000" foes="001000" cont="0"/>
        <request index="1" response="110000" foes="111000" cont="0"/>
        <request index="2" response="100000" foes="100000" cont="0"/>
        <request index="3" response="100011" foes="100011" cont="0"/>
        <request index="4" response="000000" foes="000010" cont="0"/>
        <request index="5" response="000000" foes="001110" cont="0"/>
    </junction>
    <junction id="34" type="priority" x="-560.54" y="-491.81" incLanes="538_0 540_0 512_0" intLanes=":34_0_0 :34_1_0 :34_2_0 :34_3_0 :34_4_0 :34_5_0" shape="-560.63,-483.38 -553.65,-483.86 -554.65,-500.33 -561.64,-499.97 -562.08,-497.43 -562.74,-496.52 -563.71,-495.84 -564.97,-495.39 -566.53,-495.19 -566.15,-488.20 -563.24,-487.79 -562.19,-487.13 -561.40,-486.18 -560.88,-484.93">
        <request index="0" response="000000" foes="001000" cont="0"/>
        <request index="1" response="000000" foes="111000" cont="0"/>
        <request index="2" response="000000" foes="100000" cont="0"/>
        <request index="3" response="000011" foes="100011" cont="0"/>
        <request index="4" response="000010" foes="000010" cont="0"/>
        <request index="5" response="001110" foes="001110" cont="0"/>
    </junction>
    <junction id="35" type="priority" x="-585.17" y="-418.52" incLanes="175_0 514_0 173_0" intLanes=":35_0_0 :35_1_0 :35_2_0 :35_3_0 :35_4_0 :35_5_0" shape="-590.88,-410.00 -583.89,-410.32 -583.50,-412.91 -582.91,-413.84 -582.05,-414.53 -580.94,-414.98 -579.55,-415.18 -579.95,-422.17 -582.53,-422.59 -583.47,-423.24 -584.18,-424.19 -584.65,-425.43 -584.90,-426.97 -591.87,-426.44">
        <request index="0" response="000000" foes="001000" cont="0"/>
        <request index="1" response="110000" foes="111000" cont="0"/>
        <request index="2" response="100000" foes="100000" cont="0"/>
        <request index="3" response="100011" foes="100011" cont="0"/>
        <request index="4" response="000000" foes="000010" cont="0"/>
        <request index="5" response="000000" foes="001110" cont="0"/>
    </junction>
    <junction id="36" type="priority" x="-553.10" y="-422.85" incLanes="517_0 537_0 515_0" intLanes=":36_0_0 :36_1_0 :36_2_0 :36_3_0 :36_4_0 :36_5_0" shape="-544.53,-417.14 -544.92,-424.13 -547.50,-424.49 -548.44,-425.08 -549.14,-425.92 -549.60,-427.04 -549.82,-428.42 -556.80,-427.94 -557.18,-425.44 -557.80,-424.53 -558.72,-423.86 -559.92,-423.42 -561.42,-423.21 -561.02,-416.23">
        <request index="0" response="000000" foes="001000" cont="0"/>
        <request index="1" response="110000" foes="111000" cont="0"/>
        <request index="2" response="100000" foes="100000" cont="0"/>
        <request index="3" response="100011" foes="100011" cont="0"/>
        <request index="4" response="000000" foes="000010" cont="0"/>
        <request index="5" response="000000" foes="001110" cont="0"/>
    </junction>
    <junction id="7" type="dead_end" x="-474.93" y="-426.24" incLanes="518_0" intLanes="" shape="-475.02,-427.98 -474.83,-424.49" rightOfWay="edgePriority"/>

    <connection from="170" to="512" fromLane="0" toLane="0" contPos="-4.00" shape="-591.01,-499.39 -591.01,-498.00 -590.85,-496.62 -590.63,-495.72 -590.28,-494.87 -589.77,-494.10 -589.12,-493.44 -588.33,-492.96 -587.46,-492.65 -586.09,-492.45 -585.16,-492.45" via=":33_4_0" dir="r" state="M"/>
    <connection from="170" to="173" fromLane="0" toLane="0" contPos="-4.00" shape="-591.01,-499.39 -591.18,-492.17 -590.99,-484.95 -590.82,-482.36" via=":33_5_0" dir="s" state="M"/>
    <connection from="172" to="169" fromLane="0" toLane="0" contPos="-4.00" shape="-594.31,-482.14 -594.48,-484.78 -594.68,-492.16 -594.51,-499.51" via=":33_0_0" dir="s" state="M"/>
    <connection from="172" to="512" fromLane="0" toLane="0" contPos="-4.00" shape="-594.31,-482.14 -594.33,-484.30 -594.01,-486.44 -593.54,-487.80 -592.82,-489.06 -591.86,-490.13 -590.70,-490.98 -589.40,-491.61 -587.32,-492.19 -585.16,-492.45" via=":33_1_0" dir="l" state="m"/>
    <connection from="173" to="515" fromLane="0" toLane="0" contPos="-4.00" shape="-586.64,-426.86 -586.46,-425.48 -586.10,-424.14 -585.73,-423.29 -585.24,-422.50 -584.62,-421.81 -583.88,-421.25 -583.05,-420.84 -582.16,-420.58 -580.78,-420.42 -579.85,-420.42" via=":35_4_0" dir="r" state="M"/>
    <connection from="173" to="176" fromLane="0" toLane="0" contPos="-4.00" shape="-586.64,-426.86 -585.73,-412.28 -585.63,-410.24" via=":35_5_0" dir="s" state="M"/>
    <connection from="175" to="172" fromLane="0" toLane="0" contPos="-4.00" shape="-589.13,-410.12 -589.23,-412.10 -590.13,-426.57" via=":35_0_0" dir="s" state="M"/>
    <connection from="175" to="515" fromLane="0" toLane="0" contPos="-4.00" shape="-589.13,-410.12 -589.09,-412.28 -588.71,-414.41 -588.22,-415.76 -587.48,-417.00 -586.53,-418.08 -585.37,-418.93 -584.07,-419.57 -582.00,-420.16 -579.85,-420.42" via=":35_1_0" dir="l" state="m"/>
    <connection from="511" to="173" fromLane="0" toLane="0" contPos="-4.00" shape="-584.97,-488.95 -586.50,-488.78 -587.92,-488.38 -588.71,-488.01 -589.39,-487.51 -589.93,-486.90 -590.35,-486.19 -590.63,-485.37 -590.84,-483.91 -590.82,-482.36" via=":33_2_0" dir="r" state="m"/>
    <connection from="511" to="169" fromLane="0" toLane="0" contPos="-4.00" shape="-584.97,-488.95 -586.37,-488.95 -588.42,-489.23 -589.87,-489.72 -591.23,-490.49 -592.39,-491.57 -593.27,-492.83 -593.88,-494.19 -594.25,-495.59 -594.50,-497.58 -594.51,-499.51" via=":33_3_0" dir="l" state="m"/>
    <connection from="512" to="541" fromLane="0" toLane="0" contPos="-4.00" shape="-566.43,-493.44 -565.05,-493.59 -563.70,-493.92 -562.84,-494.26 -562.04,-494.72 -561.34,-495.33 -560.76,-496.05 -560.34,-496.88 -560.06,-497.76 -559.89,-499.14 -559.89,-500.06" via=":34_4_0" dir="r" state="m"/>
    <connection from="512" to="537" fromLane="0" toLane="0" contPos="-4.00" shape="-566.43,-493.44 -564.33,-493.43 -562.26,-493.13 -560.92,-492.72 -559.66,-492.12 -558.53,-491.30 -557.57,-490.29 -556.80,-489.12 -556.00,-487.18 -555.55,-485.14 -555.40,-483.74" via=":34_5_0" dir="l" state="m"/>
    <connection from="514" to="176" fromLane="0" toLane="0" contPos="-4.00" shape="-579.64,-416.93 -581.17,-416.75 -582.60,-416.34 -583.38,-415.95 -584.07,-415.45 -584.62,-414.83 -585.05,-414.10 -585.35,-413.27 -585.61,-411.81 -585.63,-410.24" via=":35_2_0" dir="r" state="m"/>
    <connection from="514" to="172" fromLane="0" toLane="0" contPos="-4.00" shape="-579.64,-416.93 -581.01,-416.92 -583.01,-417.15 -584.41,-417.55 -585.74,-418.18 -586.96,-419.08 -587.98,-420.17 -588.76,-421.40 -589.34,-422.71 -589.87,-424.65 -590.13,-426.57" via=":35_3_0" dir="l" state="m"/>
    <connection from="515" to="538" fromLane="0" toLane="0" contPos="-4.00" shape="-561.35,-421.46 -560.00,-421.62 -558.67,-421.95 -557.83,-422.29 -557.05,-422.76 -556.37,-423.37 -555.82,-424.09 -555.43,-424.91 -555.18,-425.79 -555.04,-427.15 -555.06,-428.06" via=":36_4_0" dir="r" state="M"/>
    <connection from="515" to="518" fromLane="0" toLane="0" contPos="-4.00" shape="-561.35,-421.46 -553.11,-421.92 -544.82,-422.38" via=":36_5_0" dir="s" state="M"/>
    <connection from="517" to="514" fromLane="0" toLane="0" contPos="-4.00" shape="-544.67,-418.89 -552.91,-418.43 -561.12,-417.97" via=":36_0_0" dir="s" state="M"/>