<routes>
	<vehicle depart="0.1" departLane="0" departPos="63.20986227365084" departSpeed="3.4181947e-05" id="355" type="bicycle">
		<route edges="14079 13891"/>
	</vehicle>
	<vehicle depart="0.1" departLane="0" departPos="50.150180870256975" departSpeed="0.65909524" id="330" type="bus">
		<route edges=":97_5 14082 13961"/>
	</vehicle>
	<vehicle depart="0.1" departLane="0" departPos="34.9444044403915" departSpeed="1.5631673" id="366" type="bus">
		<route edges="13892 14078"/>
	</vehicle>
	<vehicle depart="0.1" departLane="0" departPos="62.238492866885345" departSpeed="2.5438716" id="316" type="passenger">
		<route edges="13892 14082 13961"/>
	</vehicle>
	<vehicle depart="0.1" departLane="0" departPos="50.75173972308667" departSpeed="0.81185702" id="333" type="passenger">
		<route edges="13892 14078"/>
	</vehicle>
	<vehicle depart="0.1" departLane="0" departPos="34.23225663154091" departSpeed="0.93171376" id="338" type="passenger">
		<route edges=":97_5 14082"/>
	</vehicle>
	<vehicle depart="0.1" departLane="0" departPos="22.190989739576374" departSpeed="1.6162964" id="340" type="passenger">
		<route edges=":97_5 14082"/>
	</vehicle>
	<vehicle depart="0.1" departLane="0" departPos="69.0018059135064" departSpeed="0.0" id="351" type="passenger">
		<route edges="14079 13891"/>
	</vehicle>
	<vehicle depart="0.1" departLane="0" departPos="44.49215497021077" departSpeed="0.76823332" id="352" type="passenger">
		<route edges="13892 14078"/>
	</vehicle>
	<vehicle depart="0.1" departLane="0" departPos="20.702246295490323" departSpeed="1.4352774" id="371" type="passenger">
		<route edges="13892 14078"/>
	</vehicle>
</routes>
