<!-- generated on Tue Feb  9 22:09:59 2021 by Eclipse SUMO netconvert Version 1.8.0
<configuration xmlns:xsi="http://www.w3.org/2001/XMLSchema-instance" xsi:noNamespaceSchemaLocation="http://sumo.dlr.de/xsd/netconvertConfiguration.xsd">

    <input>
        <node-files value="./converted_scenarios/scenario-factory/FRA_Sete-1_1_I-1-1/FRA_Sete-1_1_I-1-1.nod.xml"/>
        <edge-files value="./converted_scenarios/scenario-factory/FRA_Sete-1_1_I-1-1/FRA_Sete-1_1_I-1-1.edg.xml"/>
        <connection-files value="./converted_scenarios/scenario-factory/FRA_Sete-1_1_I-1-1/FRA_Sete-1_1_I-1-1.con.xml"/>
        <tllogic-files value="./converted_scenarios/scenario-factory/FRA_Sete-1_1_I-1-1/FRA_Sete-1_1_I-1-1.tll.xml"/>
        <type-files value="/home/zen/commonroad-interactive-benchmarks/install/commonroad-map-tool/crmapconverter/sumo_map/templates/DEU.typ.xml"/>
    </input>

    <output>
        <output-file value="./converted_scenarios/scenario-factory/FRA_Sete-1_1_I-1-1/FRA_Sete-1_1_I-1-1.net.xml"/>
    </output>

    <processing>
        <geometry.remove.keep-edges.explicit value="true"/>
        <geometry.avoid-overlap value="true"/>
        <offset.disable-normalization value="true"/>
    </processing>

    <junctions>
        <no-turnarounds value="true"/>
        <junctions.internal-link-detail value="20"/>
    </junctions>

    <report>
        <aggregate-warnings value="5"/>
    </report>

    <random_number>
        <seed value="1234"/>
    </random_number>

</configuration>
--><net xmlns:xsi="http://www.w3.org/2001/XMLSchema-instance" version="1.6" junctionCornerDetail="5" junctionLinkDetail="20" limitTurnSpeed="5.50" xsi:noNamespaceSchemaLocation="http://sumo.dlr.de/xsd/net_file.xsd">

    <location netOffset="0.00,0.00" convBoundary="-269.47,-721.00,-5.58,-315.42" origBoundary="-269.47,-721.00,-5.58,-315.42" projParameter="!"/>

    <type id="highway.bridleway" priority="1" speed="2.78" allow="pedestrian" oneway="1" width="2.00"/>
    <type id="highway.bus_guideway" priority="1" speed="27.78" allow="bus" oneway="1"/>
    <type id="highway.cycleway" priority="1" speed="8.33" allow="bicycle" oneway="0" width="1.00"/>
    <type id="highway.footway" priority="1" speed="2.78" allow="pedestrian" oneway="1" width="2.00"/>
    <type id="highway.ford" priority="1" speed="2.78" allow="army" oneway="0"/>
    <type id="highway.living_street" priority="2" speed="2.78" disallow="tram rail_urban rail rail_electric rail_fast ship" oneway="0"/>
    <type id="highway.motorway" priority="14" speed="39.44" allow="private emergency authority army vip passenger hov taxi bus coach delivery truck trailer motorcycle evehicle custom1 custom2" oneway="1"/>
    <type id="highway.motorway_link" priority="9" speed="22.22" allow="private emergency authority army vip passenger hov taxi bus coach delivery truck trailer motorcycle evehicle custom1 custom2" oneway="1"/>
    <type id="highway.path" priority="1" speed="2.78" allow="pedestrian bicycle" oneway="0" width="2.00"/>
    <type id="highway.pedestrian" priority="1" speed="2.78" allow="pedestrian" oneway="1" width="2.00"/>
    <type id="highway.primary" priority="12" speed="27.78" disallow="pedestrian tram rail_urban rail rail_electric rail_fast ship" oneway="0"/>
    <type id="highway.primary_link" priority="7" speed="22.22" disallow="pedestrian tram rail_urban rail rail_electric rail_fast ship" oneway="0"/>
    <type id="highway.raceway" priority="15" speed="83.33" allow="vip" oneway="0"/>
    <type id="highway.residential" priority="3" speed="13.89" disallow="pedestrian tram rail_urban rail rail_electric rail_fast ship" oneway="0"/>
    <type id="highway.secondary" priority="11" speed="27.78" disallow="pedestrian tram rail_urban rail rail_electric rail_fast ship" oneway="0"/>
    <type id="highway.secondary_link" priority="6" speed="22.22" disallow="pedestrian tram rail_urban rail rail_electric rail_fast ship" oneway="0"/>
    <type id="highway.service" priority="1" speed="5.56" allow="pedestrian delivery bicycle" oneway="0"/>
    <type id="highway.stairs" priority="1" speed="1.39" allow="pedestrian" oneway="1" width="2.00"/>
    <type id="highway.step" priority="1" speed="1.39" allow="pedestrian" oneway="1" width="2.00"/>
    <type id="highway.steps" priority="1" speed="1.39" allow="pedestrian" oneway="1" width="2.00"/>
    <type id="highway.tertiary" priority="10" speed="22.22" disallow="pedestrian tram rail_urban rail rail_electric rail_fast ship" oneway="0"/>
    <type id="highway.tertiary_link" priority="5" speed="22.22" disallow="pedestrian tram rail_urban rail rail_electric rail_fast ship" oneway="0"/>
    <type id="highway.track" priority="1" speed="5.56" allow="pedestrian motorcycle moped bicycle" oneway="0"/>
    <type id="highway.trunk" priority="13" speed="27.78" disallow="pedestrian bicycle tram rail_urban rail rail_electric rail_fast ship" oneway="0"/>
    <type id="highway.trunk_link" priority="8" speed="22.22" disallow="pedestrian bicycle tram rail_urban rail rail_electric rail_fast ship" oneway="0"/>
    <type id="highway.unclassified" priority="4" speed="13.89" disallow="pedestrian tram rail_urban rail rail_electric rail_fast ship" oneway="0"/>
    <type id="highway.unsurfaced" priority="1" speed="8.33" disallow="tram rail_urban rail rail_electric rail_fast ship" oneway="0"/>
    <type id="railway.highspeed" priority="21" speed="69.44" allow="rail_fast" oneway="1"/>
    <type id="railway.light_rail" priority="19" speed="27.78" allow="rail_urban" oneway="1"/>
    <type id="railway.preserved" priority="16" speed="27.78" allow="rail" oneway="1"/>
    <type id="railway.rail" priority="20" speed="44.44" allow="rail" oneway="1"/>
    <type id="railway.subway" priority="18" speed="27.78" allow="rail_urban" oneway="1"/>
    <type id="railway.tram" priority="17" speed="13.89" allow="tram" oneway="1"/>

    <edge id=":41_0" function="internal">
        <lane id=":41_0_0" index="0" disallow="pedestrian tram rail_urban rail rail_electric rail_fast ship" speed="36.11" length="2.89" width="3.50" shape="-173.56,-545.40 -171.33,-543.56"/>
    </edge>
    <edge id=":86_0" function="internal">
        <lane id=":86_0_0" index="0" disallow="pedestrian tram rail_urban rail rail_electric rail_fast ship" speed="36.11" length="2.91" width="3.49" shape="-173.54,-540.85 -175.78,-542.70"/>
    </edge>
    <edge id=":87_0" function="internal">
        <lane id=":87_0_0" index="0" disallow="pedestrian tram rail_urban rail rail_electric rail_fast ship" speed="36.11" length="25.88" width="3.50" shape="-104.29,-476.89 -106.98,-482.47 -109.46,-487.02 -112.21,-491.41 -114.65,-494.76 -116.65,-497.14 -118.08,-498.64"/>
    </edge>
    <edge id=":87_1" function="internal">
        <lane id=":87_1_0" index="0" disallow="pedestrian tram rail_urban rail rail_electric rail_fast ship" speed="14.39" length="33.59" width="3.50" shape="-104.29,-476.89 -104.76,-478.00 -105.56,-480.26 -106.15,-482.61 -106.49,-485.02 -106.58,-487.46 -106.41,-489.90 -105.98,-492.29 -105.31,-494.62 -104.43,-496.87 -103.37,-499.03 -101.52,-502.05 -99.41,-504.87 -97.10,-507.51"/>
    </edge>
    <edge id=":87_2" function="internal">
        <lane id=":87_2_0" index="0" disallow="pedestrian tram rail_urban rail rail_electric rail_fast ship" speed="13.49" length="29.47" width="3.50" shape="-94.53,-505.13 -96.63,-502.74 -98.53,-500.22 -100.19,-497.53 -101.12,-495.65 -101.90,-493.69 -102.50,-491.68 -102.89,-489.61 -103.06,-487.51 -103.00,-485.41 -102.71,-483.32 -102.21,-481.28 -101.51,-479.29 -101.10,-478.34"/>
    </edge>
    <edge id=":87_3" function="internal">
        <lane id=":87_3_0" index="0" disallow="pedestrian tram rail_urban rail rail_electric rail_fast ship" speed="10.88" length="27.66" width="3.50" shape="-94.53,-505.13 -97.34,-502.32 -100.34,-499.76 -102.48,-498.23 -104.77,-496.92 -105.97,-496.38 -107.20,-495.93 -108.48,-495.60 -109.78,-495.41 -111.09,-495.37 -112.40,-495.51 -113.68,-495.84 -114.90,-496.33 -116.04,-496.98 -117.10,-497.76 -118.08,-498.64"/>
    </edge>
    <edge id=":87_4" function="internal">
        <lane id=":87_4_0" index="0" disallow="pedestrian tram rail_urban rail rail_electric rail_fast ship" speed="9.72" length="22.01" width="3.50" shape="-115.63,-501.14 -114.90,-500.48 -114.11,-499.92 -113.29,-499.48 -112.41,-499.16 -111.50,-498.98 -110.56,-498.93 -109.60,-499.02 -108.63,-499.22 -107.65,-499.53 -106.69,-499.92 -105.75,-500.38 -103.86,-501.53 -102.08,-502.84 -99.51,-505.08 -97.10,-507.51"/>
    </edge>
    <edge id=":87_5" function="internal">
        <lane id=":87_5_0" index="0" disallow="pedestrian tram rail_urban rail rail_electric rail_fast ship" speed="36.11" length="27.17" width="3.50" shape="-115.63,-501.14 -114.08,-499.52 -111.95,-497.00 -109.38,-493.47 -106.50,-488.88 -103.90,-484.14 -101.10,-478.34"/>
    </edge>
    <edge id=":88_0" function="internal">
        <lane id=":88_0_0" index="0" disallow="pedestrian tram rail_urban rail rail_electric rail_fast ship" speed="36.11" length="28.97" width="3.50" shape="-118.26,-498.82 -119.72,-500.20 -123.62,-503.56 -130.96,-509.32 -141.02,-516.71"/>
    </edge>
    <edge id=":88_1" function="internal">
        <lane id=":88_1_0" index="0" disallow="pedestrian tram rail_urban rail rail_electric rail_fast ship" speed="13.17" length="28.99" width="3.50" shape="-118.27,-498.82 -119.16,-499.88 -119.89,-501.08 -120.42,-502.34 -120.77,-503.62 -120.98,-504.93 -121.06,-507.38 -120.85,-509.81 -120.18,-513.27 -119.22,-516.63 -117.66,-520.95 -115.40,-526.16"/>
    </edge>
    <edge id=":88_2" function="internal">
        <lane id=":88_2_0" index="0" disallow="pedestrian tram rail_urban rail rail_electric rail_fast ship" speed="12.11" length="24.77" width="3.49" shape="-112.22,-524.70 -114.29,-519.97 -115.73,-516.10 -116.64,-513.14 -117.32,-510.12 -117.59,-508.07 -117.62,-506.01 -117.51,-504.98 -117.30,-503.98 -116.95,-503.00 -116.46,-502.10 -115.80,-501.31"/>
    </edge>
    <edge id=":88_3" function="internal">
        <lane id=":88_3_0" index="0" disallow="pedestrian tram rail_urban rail rail_electric rail_fast ship" speed="11.65" length="35.85" width="3.50" shape="-112.22,-524.70 -113.41,-522.34 -114.77,-520.06 -116.35,-517.87 -118.17,-515.86 -119.24,-514.91 -120.37,-514.06 -121.59,-513.32 -122.89,-512.69 -124.26,-512.21 -125.68,-511.88 -127.12,-511.70 -128.56,-511.68 -129.98,-511.80 -131.40,-512.06 -134.01,-512.84 -136.50,-513.93 -138.83,-515.24 -141.02,-516.71"/>
    </edge>
    <edge id=":88_4" function="internal">
        <lane id=":88_4_0" index="0" disallow="pedestrian tram rail_urban rail rail_electric rail_fast ship" speed="10.61" length="29.52" width="3.50" shape="-138.99,-519.56 -137.10,-518.30 -135.12,-517.18 -133.04,-516.27 -130.87,-515.62 -129.75,-515.42 -128.61,-515.33 -127.48,-515.35 -126.35,-515.49 -125.24,-515.75 -124.18,-516.13 -123.15,-516.63 -122.19,-517.23 -121.28,-517.91 -120.43,-518.66 -118.90,-520.34 -117.57,-522.19 -116.41,-524.14 -115.40,-526.16"/>
    </edge>
    <edge id=":88_5" function="internal">
        <lane id=":88_5_0" index="0" disallow="pedestrian tram rail_urban rail rail_electric rail_fast ship" speed="36.11" length="29.53" width="3.49" shape="-138.99,-519.56 -128.79,-512.07 -121.32,-506.20 -117.33,-502.76 -115.80,-501.31"/>
    </edge>
    <edge id=":89_0" function="internal">
        <lane id=":89_0_0" index="0" disallow="pedestrian tram rail_urban rail rail_electric rail_fast ship" speed="9.73" length="22.51" width="3.50" shape="-77.11,-418.81 -78.20,-420.89 -80.01,-423.90 -81.32,-425.75 -82.77,-427.47 -84.39,-428.99 -85.21,-429.60 -86.09,-430.14 -86.99,-430.57 -87.92,-430.87 -88.85,-431.03 -89.80,-431.07 -90.75,-430.96 -91.70,-430.72 -92.64,-430.35 -93.57,-429.88"/>
    </edge>
    <edge id=":89_1" function="internal">
        <lane id=":89_1_0" index="0" disallow="pedestrian tram rail_urban rail rail_electric rail_fast ship" speed="36.11" length="38.54" width="3.50" shape="-77.11,-418.81 -86.23,-437.54 -93.70,-453.59"/>
    </edge>
    <edge id=":89_2" function="internal">
        <lane id=":89_2_0" index="0" disallow="pedestrian tram rail_urban rail rail_electric rail_fast ship" speed="36.11" length="38.41" width="3.50" shape="-90.51,-455.04 -83.07,-439.05 -73.98,-420.37"/>
    </edge>
    <edge id=":89_3" function="internal">
        <lane id=":89_3_0" index="0" disallow="pedestrian tram rail_urban rail rail_electric rail_fast ship" speed="11.54" length="28.14" width="3.50" shape="-90.51,-455.04 -89.12,-451.71 -87.99,-448.26 -87.42,-445.85 -87.06,-443.37 -87.00,-440.86 -87.10,-439.54 -87.32,-438.23 -87.67,-436.95 -88.15,-435.69 -88.78,-434.49 -89.53,-433.36 -90.41,-432.33 -91.39,-431.40 -92.45,-430.59 -93.57,-429.88"/>
    </edge>
    <edge id=":89_4" function="internal">
        <lane id=":89_4_0" index="0" disallow="pedestrian tram rail_urban rail rail_electric rail_fast ship" speed="10.43" length="22.98" width="3.50" shape="-95.34,-432.90 -94.43,-433.48 -93.61,-434.12 -92.86,-434.85 -92.21,-435.67 -91.66,-436.55 -91.22,-437.50 -90.89,-438.49 -90.67,-439.51 -90.54,-440.54 -90.50,-441.58 -90.62,-443.67 -90.97,-445.72 -91.48,-447.75 -92.48,-450.71 -93.70,-453.59"/>
    </edge>
    <edge id=":89_5" function="internal">
        <lane id=":89_5_0" index="0" disallow="pedestrian tram rail_urban rail rail_electric rail_fast ship" speed="10.90" length="28.32" width="3.50" shape="-95.34,-432.90 -94.11,-433.53 -92.86,-434.04 -91.56,-434.41 -90.23,-434.61 -88.89,-434.64 -87.55,-434.47 -86.25,-434.12 -85.01,-433.61 -83.83,-432.96 -82.72,-432.20 -80.71,-430.41 -78.93,-428.39 -77.34,-426.22 -75.24,-422.77 -73.98,-420.37"/>
    </edge>
    <edge id=":90_0" function="internal">
        <lane id=":90_0_0" index="0" disallow="pedestrian tram rail_urban rail rail_electric rail_fast ship" speed="36.11" length="38.24" width="3.50" shape="-53.75,-549.31 -58.82,-544.13 -69.47,-532.87 -79.85,-521.37"/>
    </edge>
    <edge id=":90_1" function="internal">
        <lane id=":90_1_0" index="0" disallow="pedestrian tram rail_urban rail rail_electric rail_fast ship" speed="12.31" length="33.03" width="3.50" shape="-53.75,-549.31 -56.46,-546.82 -58.45,-545.30 -60.58,-543.96 -62.87,-542.85 -65.32,-542.03 -67.85,-541.58 -69.19,-541.50 -70.50,-541.53 -71.84,-541.67 -74.34,-542.23 -76.74,-543.14 -78.99,-544.31 -81.08,-545.70 -83.01,-547.22"/>
    </edge>
    <edge id=":90_2" function="internal">
        <lane id=":90_2_0" index="0" disallow="pedestrian tram rail_urban rail rail_electric rail_fast ship" speed="11.29" length="27.71" width="3.50" shape="-80.74,-549.88 -79.08,-548.57 -77.30,-547.39 -75.40,-546.41 -73.41,-545.66 -71.32,-545.20 -70.26,-545.10 -69.20,-545.08 -68.13,-545.15 -66.03,-545.53 -64.01,-546.22 -62.10,-547.16 -60.30,-548.30 -58.60,-549.59 -56.25,-551.76"/>
    </edge>
    <edge id=":90_3" function="internal">
        <lane id=":90_3_0" index="0" disallow="pedestrian tram rail_urban rail rail_electric rail_fast ship" speed="11.84" length="32.71" width="3.50" shape="-80.74,-549.88 -78.88,-548.16 -77.16,-546.24 -75.65,-544.11 -74.43,-541.78 -73.95,-540.49 -73.58,-539.18 -73.34,-537.84 -73.23,-536.48 -73.24,-535.12 -73.37,-533.78 -73.61,-532.46 -73.97,-531.14 -74.90,-528.73 -76.11,-526.44 -77.51,-524.30 -79.85,-521.37"/>
    </edge>
    <edge id=":90_4" function="internal">
        <lane id=":90_4_0" index="0" disallow="pedestrian tram rail_urban rail rail_electric rail_fast ship" speed="10.79" length="27.09" width="3.50" shape="-82.49,-523.67 -80.45,-526.21 -79.26,-528.02 -78.24,-529.94 -77.45,-531.96 -77.16,-533.00 -76.96,-534.07 -76.84,-535.14 -76.83,-536.23 -76.91,-537.31 -77.09,-538.38 -77.37,-539.43 -77.75,-540.44 -78.74,-542.37 -79.99,-544.14 -81.44,-545.76 -83.01,-547.22"/>
    </edge>
    <edge id=":90_5" function="internal">
        <lane id=":90_5_0" index="0" disallow="pedestrian tram rail_urban rail rail_electric rail_fast ship" speed="36.11" length="38.44" width="3.50" shape="-82.49,-523.67 -72.05,-535.24 -61.33,-546.56 -56.25,-551.76"/>
    </edge>
    <edge id=":91_0" function="internal">
        <lane id=":91_0_0" index="0" disallow="pedestrian tram rail_urban rail rail_electric rail_fast ship" speed="36.11" length="30.86" width="3.50" shape="-93.75,-429.78 -101.78,-425.12 -120.29,-414.03"/>
    </edge>
    <edge id=":91_1" function="internal">
        <lane id=":91_1_0" index="0" disallow="pedestrian tram rail_urban rail rail_electric rail_fast ship" speed="10.95" length="30.78" width="3.50" shape="-93.75,-429.77 -95.02,-429.10 -96.31,-428.55 -97.64,-428.13 -99.01,-427.85 -100.40,-427.75 -101.79,-427.85 -103.16,-428.15 -104.46,-428.65 -105.69,-429.32 -106.82,-430.14 -107.87,-431.06 -108.83,-432.08 -110.52,-434.30 -111.98,-436.69 -113.81,-440.47 -115.33,-444.37"/>
    </edge>
    <edge id=":91_2" function="internal">
        <lane id=":91_2_0" index="0" disallow="pedestrian tram rail_urban rail rail_electric rail_fast ship" speed="9.82" length="24.57" width="3.50" shape="-112.06,-445.60 -110.72,-442.14 -109.16,-438.87 -107.97,-436.85 -106.59,-434.96 -105.86,-434.13 -105.07,-433.38 -104.23,-432.71 -103.35,-432.17 -102.43,-431.76 -101.49,-431.49 -100.52,-431.37 -99.53,-431.39 -98.52,-431.56 -97.51,-431.86 -96.51,-432.28 -95.50,-432.80"/>
    </edge>
    <edge id=":91_3" function="internal">
        <lane id=":91_3_0" index="0" disallow="pedestrian tram rail_urban rail rail_electric rail_fast ship" speed="13.43" length="35.78" width="3.50" shape="-112.05,-445.60 -110.96,-442.13 -110.14,-438.62 -109.65,-435.03 -109.56,-432.57 -109.70,-430.10 -110.10,-427.64 -110.79,-425.22 -111.78,-422.90 -113.06,-420.73 -114.60,-418.74 -116.35,-416.96 -118.27,-415.39 -120.29,-414.03"/>
    </edge>
    <edge id=":91_4" function="internal">
        <lane id=":91_4_0" index="0" disallow="pedestrian tram rail_urban rail rail_electric rail_fast ship" speed="12.52" length="30.93" width="3.50" shape="-122.13,-417.01 -120.36,-418.20 -118.71,-419.56 -117.23,-421.09 -115.93,-422.78 -114.87,-424.63 -114.06,-426.61 -113.50,-428.67 -113.18,-430.78 -113.09,-432.91 -113.18,-435.04 -113.63,-438.21 -114.37,-441.32 -115.33,-444.37"/>
    </edge>
    <edge id=":91_5" function="internal">
        <lane id=":91_5_0" index="0" disallow="pedestrian tram rail_urban rail rail_electric rail_fast ship" speed="36.11" length="30.96" width="3.50" shape="-122.13,-417.01 -103.55,-428.14 -95.50,-432.80"/>
    </edge>
    <edge id=":92_0" function="internal">
        <lane id=":92_0_0" index="0" disallow="pedestrian tram rail_urban rail rail_electric rail_fast ship" speed="10.39" length="25.26" width="3.50" shape="-166.49,-405.01 -167.76,-406.82 -169.25,-408.43 -170.10,-409.13 -171.01,-409.75 -171.98,-410.27 -173.00,-410.68 -174.06,-410.97 -175.14,-411.15 -176.24,-411.22 -177.34,-411.18 -178.43,-411.05 -180.57,-410.55 -182.65,-409.81 -184.64,-408.89 -187.50,-407.24 -188.39,-406.67"/>
    </edge>
    <edge id=":92_1" function="internal">
        <lane id=":92_1_0" index="0" disallow="pedestrian tram rail_urban rail rail_electric rail_fast ship" speed="13.79" length="31.93" width="3.50" shape="-166.49,-405.01 -169.45,-410.13 -171.56,-414.36 -172.94,-417.63 -174.07,-420.99 -174.84,-424.45 -175.08,-426.80 -175.02,-429.16 -174.85,-430.33 -174.57,-431.48 -174.17,-432.59 -173.65,-433.66 -173.01,-434.67"/>
    </edge>
    <edge id=":92_2" function="internal">
        <lane id=":92_2_0" index="0" disallow="pedestrian tram rail_urban rail rail_electric rail_fast ship" speed="12.82" length="27.70" width="3.50" shape="-170.23,-432.52 -170.65,-431.87 -171.02,-431.06 -171.30,-430.20 -171.49,-429.29 -171.60,-428.37 -171.58,-426.37 -171.31,-424.38 -170.55,-421.33 -169.48,-418.35 -168.20,-415.40 -166.24,-411.55 -163.53,-406.86"/>
    </edge>
    <edge id=":92_3" function="internal">
        <lane id=":92_3_0" index="0" disallow="pedestrian tram rail_urban rail rail_electric rail_fast ship" speed="36.11" length="31.89" width="3.50" shape="-170.24,-432.53 -170.75,-431.80 -172.92,-428.34 -175.88,-422.86 -178.93,-417.29 -181.30,-413.65 -183.38,-411.06 -185.76,-408.70 -188.39,-406.67"/>
    </edge>
    <edge id=":92_4" function="internal">
        <lane id=":92_4_0" index="0" disallow="pedestrian tram rail_urban rail rail_electric rail_fast ship" speed="36.11" length="30.81" width="3.50" shape="-190.36,-409.56 -187.93,-411.44 -185.76,-413.61 -183.84,-416.02 -181.62,-419.48 -178.70,-424.90 -175.79,-430.33 -173.61,-433.81 -173.01,-434.67"/>
    </edge>
    <edge id=":92_5" function="internal">
        <lane id=":92_5_0" index="0" disallow="pedestrian tram rail_urban rail rail_electric rail_fast ship" speed="11.49" length="30.98" width="3.50" shape="-190.36,-409.56 -189.28,-410.26 -185.96,-412.15 -183.59,-413.23 -181.09,-414.09 -178.49,-414.64 -177.10,-414.78 -175.71,-414.80 -174.32,-414.68 -172.93,-414.41 -171.58,-413.99 -170.28,-413.43 -169.06,-412.74 -167.92,-411.93 -166.85,-411.01 -165.05,-409.04 -163.53,-406.86"/>
    </edge>
    <edge id=":93_0" function="internal">
        <lane id=":93_0_0" index="0" disallow="pedestrian tram rail_urban rail rail_electric rail_fast ship" speed="11.23" length="28.28" width="3.50" shape="-56.52,-377.77 -57.58,-379.67 -58.79,-381.48 -60.17,-383.16 -61.76,-384.65 -62.63,-385.30 -63.54,-385.89 -64.50,-386.40 -65.50,-386.83 -66.53,-387.17 -67.59,-387.43 -68.67,-387.60 -70.84,-387.69 -73.01,-387.50 -75.14,-387.06 -77.22,-386.43 -80.24,-385.21"/>
    </edge>
    <edge id=":93_1" function="internal">
        <lane id=":93_1_0" index="0" disallow="pedestrian tram rail_urban rail rail_electric rail_fast ship" speed="36.11" length="38.65" width="3.50" shape="-56.52,-377.77 -65.19,-395.02 -73.87,-412.31"/>
    </edge>
    <edge id=":93_2" function="internal">
        <lane id=":93_2_0" index="0" disallow="pedestrian tram rail_urban rail rail_electric rail_fast ship" speed="36.11" length="38.61" width="3.50" shape="-70.74,-413.87 -62.06,-396.59 -53.41,-379.37"/>
    </edge>
    <edge id=":93_3" function="internal">
        <lane id=":93_3_0" index="0" disallow="pedestrian tram rail_urban rail rail_electric rail_fast ship" speed="12.22" length="34.89" width="3.50" shape="-70.74,-413.87 -69.11,-410.15 -68.28,-407.61 -67.69,-404.99 -67.43,-402.32 -67.44,-400.98 -67.56,-399.65 -67.79,-398.32 -68.13,-397.03 -68.59,-395.77 -69.17,-394.56 -69.85,-393.40 -70.63,-392.31 -72.42,-390.32 -74.47,-388.59 -76.69,-387.09 -79.04,-385.79 -80.24,-385.21"/>
    </edge>
    <edge id=":93_4" function="internal">
        <lane id=":93_4_0" index="0" disallow="pedestrian tram rail_urban rail rail_electric rail_fast ship" speed="11.21" length="29.22" width="3.50" shape="-81.74,-388.37 -80.67,-388.89 -78.63,-390.01 -76.74,-391.29 -75.03,-392.74 -73.53,-394.41 -72.93,-395.27 -72.38,-396.20 -71.93,-397.17 -71.56,-398.17 -71.29,-399.20 -71.11,-400.27 -71.01,-401.35 -71.01,-402.42 -71.23,-404.67 -71.73,-406.88 -72.45,-409.06 -73.87,-412.31"/>
    </edge>
    <edge id=":93_5" function="internal">
        <lane id=":93_5_0" index="0" disallow="pedestrian tram rail_urban rail rail_electric rail_fast ship" speed="12.23" length="33.73" width="3.50" shape="-81.74,-388.38 -78.24,-389.79 -75.79,-390.52 -73.28,-391.03 -70.68,-391.25 -68.08,-391.13 -66.74,-390.91 -65.44,-390.59 -64.17,-390.17 -62.94,-389.63 -61.76,-389.00 -60.64,-388.27 -59.57,-387.45 -57.69,-385.67 -56.04,-383.68 -54.62,-381.56 -53.41,-379.37"/>
    </edge>
    <edge id=":94_0" function="internal">
        <lane id=":94_0_0" index="0" disallow="pedestrian tram rail_urban rail rail_electric rail_fast ship" speed="36.11" length="35.80" width="3.50" shape="-148.57,-373.69 -158.41,-391.37 -165.82,-403.91 -166.34,-404.77"/>
    </edge>
    <edge id=":94_1" function="internal">
        <lane id=":94_1_0" index="0" disallow="pedestrian tram rail_urban rail rail_electric rail_fast ship" speed="12.84" length="36.66" width="3.50" shape="-148.57,-373.69 -150.93,-378.20 -151.90,-380.58 -152.65,-383.08 -153.11,-385.67 -153.23,-388.31 -153.14,-389.69 -152.94,-391.03 -152.63,-392.35 -152.21,-393.64 -151.68,-394.91 -150.38,-397.22 -148.77,-399.32 -146.94,-401.20 -144.95,-402.87 -141.84,-405.00"/>
    </edge>
    <edge id=":94_2" function="internal">
        <lane id=":94_2_0" index="0" disallow="pedestrian tram rail_urban rail rail_electric rail_fast ship" speed="11.72" length="29.55" width="3.50" shape="-140.01,-402.01 -141.48,-401.06 -142.81,-400.07 -144.02,-399.03 -145.11,-397.94 -146.06,-396.82 -146.89,-395.65 -147.60,-394.44 -148.17,-393.18 -148.62,-391.89 -148.95,-390.54 -149.15,-389.16 -149.22,-387.73 -149.16,-386.26 -148.98,-384.74 -148.67,-383.18 -148.24,-381.58 -147.68,-379.94 -146.99,-378.25 -146.17,-376.51"/>
    </edge>
    <edge id=":94_3" function="internal">
        <lane id=":94_3_0" index="0" disallow="pedestrian tram rail_urban rail rail_electric rail_fast ship" speed="11.50" length="30.10" width="3.50" shape="-140.00,-402.02 -142.15,-400.79 -145.50,-399.17 -147.90,-398.28 -150.39,-397.63 -152.96,-397.29 -154.33,-397.27 -155.68,-397.36 -157.02,-397.59 -158.35,-397.96 -159.62,-398.47 -160.84,-399.11 -161.98,-399.87 -163.03,-400.72 -163.99,-401.66 -164.88,-402.68 -166.34,-404.77"/>
    </edge>
    <edge id=":94_4" function="internal">
        <lane id=":94_4_0" index="0" disallow="pedestrian tram rail_urban rail rail_electric rail_fast ship" speed="10.41" length="24.57" width="3.50" shape="-163.38,-406.63 -162.15,-404.88 -161.44,-404.08 -160.66,-403.35 -159.82,-402.69 -158.92,-402.11 -157.96,-401.64 -156.95,-401.28 -155.91,-401.02 -154.86,-400.87 -153.79,-400.83 -152.72,-400.87 -150.60,-401.20 -148.54,-401.77 -146.54,-402.54 -143.66,-403.95 -141.84,-405.00"/>
    </edge>
    <edge id=":94_5" function="internal">
        <lane id=":94_5_0" index="0" disallow="pedestrian tram rail_urban rail rail_electric rail_fast ship" speed="36.11" length="34.70" width="3.50" shape="-163.38,-406.62 -146.12,-376.52"/>
    </edge>
    <edge id=":96_0" function="internal">
        <lane id=":96_0_0" index="0" disallow="pedestrian tram rail_urban rail rail_electric rail_fast ship" speed="10.28" length="29.43" width="3.50" shape="-83.22,-547.40 -85.06,-548.86 -87.03,-550.14 -89.15,-551.17 -90.26,-551.56 -91.41,-551.83 -92.58,-551.96 -93.75,-551.95 -94.92,-551.78 -96.05,-551.45 -97.12,-550.96 -98.13,-550.36 -99.07,-549.65 -99.93,-548.85 -100.74,-547.99 -102.17,-546.12 -103.41,-544.12 -104.99,-540.97 -105.47,-539.88"/>
    </edge>
    <edge id=":96_1" function="internal">
        <lane id=":96_1_0" index="0" disallow="pedestrian tram rail_urban rail rail_electric rail_fast ship" speed="21.00" length="36.78" width="3.50" shape="-83.22,-547.40 -84.06,-548.13 -88.06,-551.87 -91.08,-555.10 -93.89,-558.53 -96.42,-562.18 -98.12,-565.09 -99.58,-568.12 -100.79,-571.28 -101.71,-574.54 -102.31,-577.88"/>
    </edge>
    <edge id=":96_2" function="internal">
        <lane id=":96_2_0" index="0" disallow="pedestrian tram rail_urban rail rail_electric rail_fast ship" speed="20.19" length="34.23" width="3.50" shape="-98.85,-578.36 -98.29,-575.28 -97.44,-572.28 -96.31,-569.38 -94.95,-566.58 -93.37,-563.90 -91.00,-560.50 -88.36,-557.30 -85.51,-554.28 -81.72,-550.74 -80.96,-550.07"/>
    </edge>
    <edge id=":96_3" function="internal">
        <lane id=":96_3_0" index="0" disallow="pedestrian tram rail_urban rail rail_electric rail_fast ship" speed="27.52" length="39.49" width="3.50" shape="-98.84,-578.36 -98.46,-574.09 -98.41,-569.82 -98.65,-565.56 -99.34,-560.28 -100.42,-555.05 -101.82,-549.91 -103.52,-544.85 -105.47,-539.88"/>
    </edge>
    <edge id=":96_4" function="internal">
        <lane id=":96_4_0" index="0" disallow="pedestrian tram rail_urban rail rail_electric rail_fast ship" speed="26.85" length="37.62" width="3.50" shape="-108.69,-541.23 -106.82,-546.01 -105.19,-550.86 -103.84,-555.78 -102.81,-560.77 -102.15,-565.80 -101.91,-569.84 -101.96,-573.88 -102.31,-577.88"/>
    </edge>
    <edge id=":96_5" function="internal">
        <lane id=":96_5_0" index="0" disallow="pedestrian tram rail_urban rail rail_electric rail_fast ship" speed="11.37" length="36.24" width="3.50" shape="-108.69,-541.23 -108.14,-542.52 -106.29,-546.17 -104.80,-548.55 -103.08,-550.77 -102.06,-551.84 -100.96,-552.82 -99.75,-553.70 -98.43,-554.46 -97.01,-555.06 -95.51,-555.47 -93.97,-555.67 -92.43,-555.66 -90.91,-555.46 -89.46,-555.10 -88.04,-554.59 -85.49,-553.33 -83.12,-551.79 -80.96,-550.07"/>
    </edge>
    <edge id=":97_0" function="internal">
        <lane id=":97_0_0" index="0" disallow="pedestrian tram rail_urban rail rail_electric rail_fast ship" speed="36.11" length="44.32" width="3.50" shape="-108.45,-612.09 -115.75,-647.43 -117.58,-655.46"/>
    </edge>
    <edge id=":97_1" function="internal">
        <lane id=":97_1_0" index="0" disallow="pedestrian tram rail_urban rail rail_electric rail_fast ship" speed="18.28" length="42.67" width="3.50" shape="-108.45,-612.09 -108.78,-614.32 -108.89,-616.56 -108.78,-618.80 -108.26,-622.12 -107.35,-625.36 -106.12,-628.50 -104.63,-631.52 -102.34,-635.38 -99.76,-639.05 -96.24,-643.42 -92.46,-647.58 -90.88,-649.20"/>
    </edge>
    <edge id=":97_2" function="internal">
        <lane id=":97_2_0" index="0" disallow="pedestrian tram rail_urban rail rail_electric rail_fast ship" speed="17.54" length="39.28" width="3.50" shape="-88.39,-646.74 -89.89,-645.21 -93.46,-641.29 -96.79,-637.19 -99.21,-633.77 -101.38,-630.20 -102.76,-627.43 -103.92,-624.59 -104.78,-621.67 -105.28,-618.68 -105.39,-616.72 -105.31,-614.74 -105.01,-612.76"/>
    </edge>
    <edge id=":97_3" function="internal">
        <lane id=":97_3_0" index="0" disallow="pedestrian tram rail_urban rail rail_electric rail_fast ship" speed="11.50" length="41.91" width="3.50" shape="-88.39,-646.74 -91.96,-643.44 -94.51,-641.47 -95.86,-640.58 -97.25,-639.78 -98.71,-639.09 -100.22,-638.53 -101.79,-638.16 -103.39,-638.00 -105.00,-638.11 -106.56,-638.50 -108.02,-639.17 -109.36,-640.06 -110.56,-641.14 -111.63,-642.34 -112.59,-643.64 -113.45,-645.00 -114.91,-647.87 -116.12,-650.86 -117.58,-655.46"/>
    </edge>
    <edge id=":97_4" function="internal">