<routes>
	<vehicle depart="0.1" departLane="0" departPos="45.99876212843443" departSpeed="0.032589643" id="30" type="passenger">
		<route edges=":28_0 47831"/>
	</vehicle>
	<vehicle depart="0.1" departLane="0" departPos="29.460768713906546" departSpeed="1.1142863" id="31" type="passenger">
		<route edges=":28_0 47831"/>
	</vehicle>
	<vehicle depart="0.1" departLane="0" departPos="19.388698059607712" departSpeed="0.18109791" id="34" type="passenger">
		<route edges=":28_0 47831"/>
	</vehicle>
	<vehicle depart="0.1" departLane="0" departPos="2.5" departSpeed="0.43601331" id="37" type="passenger">
		<route edges=":27_2 47688"/>
	</vehicle>
	<vehicle depart="0.1" departLane="0" departPos="55.5151325716031" departSpeed="1.7442807" id="38" type="passenger">
		<route edges=":28_0 47831 47756"/>
	</vehicle>
	<vehicle depart="0.1" departLane="0" departPos="30.991981115983908" departSpeed="1.584898" id="318" type="passenger">
		<route edges="47689 47758"/>
	</vehicle>
	<vehicle depart="0.1" departLane="0" departPos="18.6569743150772" departSpeed="0.90984656" id="320" type="passenger">
		<route edges="47689 47758"/>
	</vehicle>
	<vehicle depart="0.1" departLane="0" departPos="8.49096474301227" departSpeed="9.5202438" id="323" type="passenger">
		<route edges=":28_1 47825"/>
	</vehicle>
	<vehicle depart="0.1" departLane="0" departPos="5.367708400533136" departSpeed="7.5865079" id="325" type="passenger">
		<route edges=":27_3 47764 47825"/>
	</vehicle>
	<vehicle depart="0.1" departLane="0" departPos="12.844792942658907" departSpeed="17.495468" id="328" type="passenger">
		<route edges=":27_2 47688 47909"/>
	</vehicle>
</routes>
