<routes>
	<vehicle depart="0.1" departLane="1" departPos="90.0793496565336" departSpeed="11.558247" id="1" type="passenger">
		<route edges="26 28 24"/>
	</vehicle>
	<vehicle depart="0.1" departLane="0" departPos="0" departSpeed="11.224337" id="2" type="passenger">
		<route edges="26 26 28 24"/>
	</vehicle>
	<vehicle depart="0.1" departLane="0" departPos="0" departSpeed="17.458074" id="3" type="passenger">
		<route edges="26 27 24"/>
	</vehicle>
</routes>
