<?xml version="1.0" encoding="UTF-8"?>

<!-- generated on Fri Dec 18 16:01:57 2020 by Eclipse SUMO netconvert Version 1.8.0
<configuration xmlns:xsi="http://www.w3.org/2001/XMLSchema-instance" xsi:noNamespaceSchemaLocation="http://sumo.dlr.de/xsd/netconvertConfiguration.xsd">

    <input>
        <node-files value="./converted_scenarios/NGSIM/Lankershim/USA_Lanker-2_18_I-1-1/nodes.net.xml"/>
        <edge-files value="./converted_scenarios/NGSIM/Lankershim/USA_Lanker-2_18_I-1-1/edges.net.xml"/>
        <connection-files value="./converted_scenarios/NGSIM/Lankershim/USA_Lanker-2_18_I-1-1/_connections.net.xml"/>
        <tllogic-files value="./converted_scenarios/NGSIM/Lankershim/USA_Lanker-2_18_I-1-1/_tll.net.xml"/>
    </input>

    <output>
        <output-file value="./converted_scenarios/NGSIM/Lankershim/USA_Lanker-2_18_I-1-1/USA_Lanker-2_18_I-1-1.net.xml"/>
    </output>

    <processing>
        <plain.extend-edge-shape value="true"/>
        <geometry.remove.keep-edges.explicit value="true"/>
        <geometry.avoid-overlap value="true"/>
        <offset.disable-normalization value="true"/>
    </processing>

    <junctions>
        <no-turnarounds value="true"/>
        <junctions.internal-link-detail value="20"/>
    </junctions>

    <report>
        <aggregate-warnings value="5"/>
    </report>

    <random_number>
        <seed value="1234"/>
    </random_number>

</configuration>
-->

<net version="1.6" junctionCornerDetail="5" junctionLinkDetail="20" limitTurnSpeed="5.50" xmlns:xsi="http://www.w3.org/2001/XMLSchema-instance" xsi:noNamespaceSchemaLocation="http://sumo.dlr.de/xsd/net_file.xsd">

    <location netOffset="0.00,0.00" convBoundary="-33.82,-94.63,84.82,91.92" origBoundary="-36.65,-96.81,84.82,94.55" projParameter="!"/>

    <edge id=":11_0" function="internal">
        <lane id=":11_0_0" index="0" disallow="rail_fast" speed="36.11" length="0.26" width="3.31" shape="-1.42,-6.68 -1.64,-6.56"/>
        <lane id=":11_0_1" index="1" disallow="rail_fast" speed="36.11" length="0.26" width="3.11" shape="0.05,-3.81 -0.18,-3.69"/>
    </edge>
    <edge id=":12_0" function="internal">
        <lane id=":12_0_0" index="0" disallow="rail_fast" speed="36.11" length="3.06" width="3.50" shape="17.73,-16.63 20.47,-18.03"/>
        <lane id=":12_0_1" index="1" disallow="rail_fast" speed="36.11" length="3.06" width="3.31" shape="19.24,-13.59 21.97,-14.96"/>
    </edge>
    <edge id=":13_0" function="internal">
        <lane id=":13_0_0" index="0" disallow="bus truck rail_fast" speed="11.02" length="10.30" width="3.87" shape="23.13,-26.99 23.79,-26.83 24.40,-26.69 24.95,-26.57 25.46,-26.47 25.93,-26.39 26.37,-26.33 26.78,-26.30 27.18,-26.29 27.56,-26.31 27.94,-26.35 28.32,-26.42 28.70,-26.52 29.10,-26.64 29.52,-26.79 29.96,-26.97 30.44,-27.18 30.95,-27.42 31.51,-27.69 32.12,-27.99"/>
        <lane id=":13_0_1" index="1" disallow="bus truck rail_fast" speed="12.20" length="10.30" width="3.51" shape="23.01,-23.44 23.81,-23.25 24.53,-23.09 25.20,-22.95 25.81,-22.84 26.37,-22.75 26.89,-22.69 27.39,-22.66 27.86,-22.65 28.32,-22.67 28.77,-22.72 29.22,-22.80 29.67,-22.92 30.15,-23.06 30.65,-23.24 31.17,-23.45 31.74,-23.70 32.36,-23.99 33.03,-24.31 33.76,-24.66"/>
    </edge>
    <edge id=":13_2" function="internal">
        <lane id=":13_2_0" index="0" disallow="bus truck rail_fast" speed="36.11" length="11.23" width="3.51" shape="23.80,-19.42 33.76,-24.66"/>
        <lane id=":13_2_1" index="1" disallow="bus truck rail_fast" speed="36.11" length="11.23" width="3.38" shape="25.54,-16.10 26.22,-16.59 26.84,-17.02 27.40,-17.40 27.92,-17.74 28.39,-18.05 28.83,-18.33 29.25,-18.58 29.65,-18.81 30.04,-19.02 30.44,-19.23 30.84,-19.43 31.25,-19.63 31.69,-19.84 32.17,-20.07 32.68,-20.31 33.24,-20.57 33.85,-20.87 34.54,-21.20 35.29,-21.56"/>
    </edge>
    <edge id=":13_4" function="internal">
        <lane id=":13_4_0" index="0" disallow="rail_fast" speed="36.11" length="13.86" width="3.51" shape="21.35,-18.47 33.76,-24.66"/>
        <lane id=":13_4_1" index="1" disallow="rail_fast" speed="36.11" length="13.86" width="3.38" shape="22.87,-15.41 35.29,-21.56"/>
    </edge>
    <edge id=":15_0" function="internal">
        <lane id=":15_0_0" index="0" disallow="rail_fast" speed="36.11" length="19.07" width="2.82" shape="-1.10,-5.80 -9.55,-22.90"/>
        <lane id=":15_0_1" index="1" disallow="rail_fast" speed="36.11" length="19.07" width="2.97" shape="1.67,-7.23 -6.72,-24.35"/>
        <lane id=":15_0_2" index="2" disallow="rail_fast" speed="36.11" length="19.07" width="2.96" shape="4.37,-8.62 -4.03,-25.73"/>
    </edge>
    <edge id=":15_3" function="internal">
        <lane id=":15_3_0" index="0" disallow="bus truck rail_fast" speed="13.68" length="23.17" width="2.96" shape="10.79,-8.85 10.03,-9.02 9.27,-9.26 8.51,-9.58 7.75,-9.99 6.98,-10.47 6.21,-11.04 5.44,-11.68 4.67,-12.41 3.89,-13.22 3.11,-14.11 2.33,-15.07 1.54,-16.12 0.75,-17.25 -0.04,-18.47 -0.83,-19.76 -1.63,-21.13 -2.42,-22.58 -3.23,-24.12 -4.03,-25.73"/>
    </edge>
    <edge id=":15_4" function="internal">
        <lane id=":15_4_0" index="0" disallow="bus truck rail_fast" speed="36.11" length="4.30" width="2.82" shape="-7.67,-19.04 -9.55,-22.90"/>
    </edge>
    <edge id=":18_0" function="internal">
        <lane id=":18_0_0" index="0" disallow="rail_fast" speed="14.45" length="8.28" width="3.25" shape="46.55,-15.64 46.01,-15.38 45.52,-15.13 45.08,-14.91 44.68,-14.70 44.32,-14.50 43.99,-14.30 43.69,-14.11 43.41,-13.91 43.15,-13.71 42.90,-13.50 42.66,-13.27 42.42,-13.03 42.18,-12.76 41.93,-12.47 41.67,-12.15 41.39,-11.79 41.09,-11.39 40.77,-10.95 40.41,-10.47"/>
        <lane id=":18_0_1" index="1" disallow="rail_fast" speed="36.11" length="8.28" width="3.60" shape="46.55,-15.64 39.32,-12.08"/>
        <lane id=":18_0_2" index="2" disallow="rail_fast" speed="36.11" length="8.28" width="3.67" shape="44.96,-18.92 37.26,-15.12"/>
    </edge>
    <edge id=":19_0" function="internal">
        <lane id=":19_0_0" index="0" disallow="rail_fast" speed="9.74" length="3.41" width="3.19" shape="39.07,-8.65 38.91,-8.43 38.76,-8.24 38.61,-8.07 38.48,-7.93 38.34,-7.80 38.22,-7.69 38.09,-7.59 37.96,-7.51 37.83,-7.43 37.70,-7.37 37.56,-7.30 37.42,-7.24 37.26,-7.18 37.10,-7.11 36.92,-7.04 36.72,-6.96 36.51,-6.88 36.29,-6.77 36.04,-6.66"/>
        <lane id=":19_0_1" index="1" disallow="rail_fast" speed="36.11" length="3.41" width="3.52" shape="37.60,-11.22 34.56,-9.72"/>
        <lane id=":19_0_2" index="2" disallow="rail_fast" speed="36.11" length="3.41" width="3.68" shape="35.79,-14.38 32.99,-12.99"/>
    </edge>
    <edge id=":2_0" function="internal">
        <lane id=":2_0_0" index="0" disallow="bus truck rail_fast" speed="8.75" length="5.40" width="3.35" shape="75.63,71.10 75.24,71.12 74.88,71.13 74.56,71.15 74.26,71.17 73.98,71.20 73.73,71.23 73.49,71.28 73.27,71.33 73.06,71.39 72.86,71.47 72.66,71.56 72.46,71.67 72.25,71.79 72.04,71.94 71.82,72.10 71.59,72.28 71.34,72.49 71.07,72.72 70.77,72.98"/>
    </edge>
    <edge id=":20_0" function="internal">
        <lane id=":20_0_0" index="0" disallow="bus truck rail_fast" speed="14.27" length="3.68" width="2.93" shape="33.42,-5.39 33.17,-5.27 32.95,-5.17 32.74,-5.07 32.56,-4.99 32.39,-4.91 32.23,-4.84 32.08,-4.76 31.95,-4.69 31.82,-4.62 31.69,-4.55 31.57,-4.47 31.44,-4.38 31.32,-4.28 31.19,-4.17 31.05,-4.05 30.90,-3.91 30.74,-3.75 30.57,-3.58 30.38,-3.38"/>
    </edge>
    <edge id=":20_1" function="internal">
        <lane id=":20_1_0" index="0" disallow="rail_fast" speed="36.11" length="4.87" width="3.46" shape="31.96,-8.43 27.61,-6.27"/>
        <lane id=":20_1_1" index="1" disallow="rail_fast" speed="36.11" length="4.87" width="3.70" shape="30.40,-11.69 26.04,-9.50"/>
    </edge>
    <edge id=":20_3" function="internal">
        <lane id=":20_3_0" index="0" disallow="bus truck rail_fast" speed="36.11" length="4.93" width="3.01" shape="30.40,-11.69 30.07,-11.53 29.77,-11.38 29.50,-11.25 29.26,-11.14 29.03,-11.04 28.82,-10.95 28.62,-10.86 28.43,-10.79 28.25,-10.73 28.06,-10.66 27.87,-10.60 27.68,-10.55 27.47,-10.49 27.25,-10.43 27.01,-10.36 26.75,-10.29 26.46,-10.22 26.13,-10.13 25.78,-10.03"/>
    </edge>
    <edge id=":21_0" function="internal">
        <lane id=":21_0_0" index="0" disallow="rail_fast" speed="36.11" length="3.05" width="3.21" shape="26.44,-5.69 23.71,-4.34"/>
        <lane id=":21_0_1" index="1" disallow="rail_fast" speed="36.11" length="3.05" width="3.68" shape="24.86,-8.91 22.14,-7.55"/>
    </edge>
    <edge id=":22_0" function="internal">
        <lane id=":22_0_0" index="0" disallow="rail_fast" speed="36.11" length="10.83" width="3.17" shape="12.19,1.36 2.48,6.16"/>
        <lane id=":22_0_1" index="1" disallow="rail_fast" speed="36.11" length="10.83" width="3.68" shape="10.62,-1.77 0.94,3.08"/>
    </edge>
    <edge id=":22_2" function="internal">
        <lane id=":22_2_0" index="0" disallow="bus truck rail_fast" speed="9.83" length="11.33" width="3.68" shape="7.57,-5.54 7.45,-4.94 7.30,-4.34 7.13,-3.77 6.93,-3.21 6.71,-2.67 6.46,-2.15 6.18,-1.65 5.89,-1.16 5.56,-0.69 5.21,-0.23 4.84,0.21 4.44,0.63 4.01,1.03 3.56,1.41 3.09,1.78 2.59,2.13 2.07,2.47 1.51,2.78 0.94,3.08"/>
    </edge>
    <edge id=":23_0" function="internal">
        <lane id=":23_0_0" index="0" disallow="bus truck rail_fast" speed="36.11" length="4.83" width="5.13" shape="-11.68,17.32 -7.01,16.09"/>
    </edge>
    <edge id=":23_1" function="internal">
        <lane id=":23_1_0" index="0" disallow="rail_fast" speed="36.11" length="4.52" width="3.11" shape="-4.77,9.72 -8.80,11.78"/>
        <lane id=":23_1_1" index="1" disallow="rail_fast" speed="36.11" length="4.52" width="3.66" shape="-6.09,6.57 -10.10,8.64"/>
    </edge>
    <edge id=":25_0" function="internal">
        <lane id=":25_0_0" index="0" disallow="bus truck rail_fast" speed="36.11" length="2.87" width="5.36" shape="73.59,66.03 76.46,66.01"/>
    </edge>
    <edge id=":28_0" function="internal">
        <lane id=":28_0_0" index="0" disallow="rail_fast" speed="36.11" length="7.96" width="3.51" shape="-15.89,-92.04 -12.28,-84.71"/>
        <lane id=":28_0_1" index="1" disallow="rail_fast" speed="36.11" length="7.96" width="2.89" shape="-18.79,-90.46 -15.20,-83.26"/>
        <lane id=":28_0_2" index="2" disallow="rail_fast" speed="36.11" length="7.96" width="3.01" shape="-21.47,-89.00 -17.93,-81.92"/>
        <lane id=":28_0_3" index="3" disallow="rail_fast" speed="36.11" length="7.96" width="2.82" shape="-24.17,-87.52 -20.63,-80.58"/>
        <lane id=":28_0_4" index="4" disallow="bus rail_fast" speed="36.11" length="7.96" width="2.91" shape="-24.17,-87.52 -23.90,-87.00 -23.66,-86.53 -23.44,-86.10 -23.25,-85.71 -23.08,-85.35 -22.93,-85.01 -22.80,-84.70 -22.68,-84.40 -22.57,-84.10 -22.47,-83.80 -22.37,-83.50 -22.28,-83.19 -22.20,-82.86 -22.11,-82.50 -22.01,-82.11 -21.91,-81.69 -21.80,-81.22 -21.68,-80.70 -21.55,-80.13"/>
    </edge>
    <edge id=":29_0" function="internal">
        <lane id=":29_0_0" index="0" disallow="rail_fast" speed="36.11" length="3.88" width="3.35" shape="-7.50,-75.00 -5.80,-71.58"/>
        <lane id=":29_0_1" index="1" disallow="rail_fast" speed="36.11" length="3.88" width="2.89" shape="-10.36,-73.52 -8.63,-70.08"/>
        <lane id=":29_0_2" index="2" disallow="rail_fast" speed="36.11" length="3.88" width="3.08" shape="-13.05,-72.12 -11.31,-68.66"/>
        <lane id=":29_0_3" index="3" disallow="rail_fast" speed="36.11" length="3.88" width="2.82" shape="-15.71,-70.74 -13.96,-67.26"/>
        <lane id=":29_0_4" index="4" disallow="bus rail_fast" speed="36.11" length="3.88" width="3.05" shape="-18.10,-69.50 -18.00,-69.22 -17.91,-68.97 -17.83,-68.75 -17.76,-68.54 -17.69,-68.35 -17.63,-68.18 -17.57,-68.02 -17.51,-67.87 -17.46,-67.72 -17.40,-67.57 -17.34,-67.43 -17.28,-67.28 -17.21,-67.12 -17.13,-66.95 -17.05,-66.77 -16.96,-66.58 -16.85,-66.36 -16.74,-66.12 -16.61,-65.85"/>
    </edge>
    <edge id=":30_0" function="internal">
        <lane id=":30_0_0" index="0" disallow="bus truck rail_fast" speed="10.23" length="10.24" width="3.11" shape="13.92,-32.65 14.16,-32.25 14.42,-31.86 14.70,-31.48 15.00,-31.12 15.32,-30.77 15.67,-30.43 16.04,-30.11 16.44,-29.79 16.85,-29.49 17.29,-29.21 17.75,-28.93 18.23,-28.67 18.74,-28.43 19.27,-28.19 19.82,-27.97 20.39,-27.76 20.99,-27.57 21.61,-27.38 22.25,-27.21"/>
    </edge>
    <edge id=":30_1" function="internal">
        <lane id=":30_1_0" index="0" disallow="bus truck rail_fast" speed="11.58" length="11.05" width="3.13" shape="10.87,-31.05 11.23,-30.34 11.57,-29.70 11.90,-29.13 12.22,-28.62 12.54,-28.17 12.86,-27.77 13.18,-27.41 13.51,-27.09 13.85,-26.80 14.22,-26.54 14.61,-26.30 15.02,-26.08 15.47,-25.86 15.96,-25.64 16.49,-25.42 17.07,-25.19 17.69,-24.94 18.38,-24.67 19.12,-24.38"/>
    </edge>
    <edge id=":30_2" function="internal">
        <lane id=":30_2_0" index="0" disallow="rail_fast" speed="36.11" length="10.45" width="3.12" shape="10.87,-31.05 15.43,-21.49"/>
        <lane id=":30_2_1" index="1" disallow="rail_fast" speed="36.11" length="10.45" width="3.06" shape="8.14,-29.61 12.64,-20.18"/>
        <lane id=":30_2_2" index="2" disallow="rail_fast" speed="36.11" length="10.45" width="2.98" shape="5.44,-28.19 9.90,-18.89"/>
    </edge>
    <edge id=":30_5" function="internal">
        <lane id=":30_5_0" index="0" disallow="bus truck rail_fast" speed="36.11" length="10.20" width="2.87" shape="2.75,-26.78 3.09,-26.10 3.40,-25.48 3.68,-24.92 3.93,-24.41 4.16,-23.94 4.37,-23.51 4.57,-23.11 4.75,-22.72 4.93,-22.35 5.10,-21.98 5.26,-21.60 5.42,-21.21 5.59,-20.80 5.76,-20.36 5.94,-19.88 6.14,-19.36 6.34,-18.78 6.57,-18.14 6.81,-17.43"/>
    </edge>
    <edge id=":31_0" function="internal">
        <lane id=":31_0_0" index="0" disallow="rail_fast" speed="36.11" length="3.22" width="3.12" shape="16.31,-19.63 17.70,-16.73"/>
        <lane id=":31_0_1" index="1" disallow="rail_fast" speed="36.11" length="3.22" width="3.06" shape="13.56,-18.23 14.95,-15.33"/>
        <lane id=":31_0_2" index="2" disallow="rail_fast" speed="36.11" length="3.22" width="2.95" shape="10.87,-16.86 12.25,-13.96"/>
    </edge>
    <edge id=":32_0" function="internal">
        <lane id=":32_0_0" index="0" disallow="rail_fast" speed="36.11" length="2.64" width="3.14" shape="23.75,-4.14 24.90,-1.75"/>
        <lane id=":32_0_1" index="1" disallow="rail_fast" speed="36.11" length="2.64" width="3.10" shape="20.94,-2.78 22.08,-0.40"/>
        <lane id=":32_0_2" index="2" disallow="rail_fast" speed="36.11" length="2.64" width="2.93" shape="18.22,-1.46 19.36,0.92"/>
    </edge>
    <edge id=":34_0" function="internal">
        <lane id=":34_0_0" index="0" disallow="rail_fast" speed="36.11" length="3.05" width="2.78" shape="36.43,69.55 35.07,66.81"/>
        <lane id=":34_0_1" index="1" disallow="rail_fast" speed="36.11" length="3.05" width="3.00" shape="39.03,68.29 37.68,65.55"/>
        <lane id=":34_0_2" index="2" disallow="bus rail_fast" speed="36.11" length="3.05" width="3.02" shape="41.75,66.97 40.41,64.23"/>
        <lane id=":34_0_3" index="3" disallow="bus rail_fast" speed="36.11" length="3.05" width="2.96" shape="44.48,65.64 43.13,62.91"/>
        <lane id=":34_0_4" index="4" disallow="rail_fast" speed="36.11" length="3.05" width="3.03" shape="47.19,64.33 45.84,61.60"/>
    </edge>
    <edge id=":35_0" function="internal">
        <lane id=":35_0_0" index="0" disallow="rail_fast" speed="21.96" length="7.43" width="2.94" shape="27.07,50.95 26.82,50.45 26.58,50.00 26.36,49.61 26.15,49.25 25.95,48.93 25.76,48.64 25.56,48.38 25.37,48.13 25.17,47.90 24.97,47.68 24.76,47.47 24.53,47.25 24.29,47.03 24.02,46.79 23.74,46.53 23.42,46.25 23.08,45.95 22.71,45.60 22.30,45.22"/>
        <lane id=":35_0_1" index="1" disallow="rail_fast" speed="36.11" length="7.43" width="2.94" shape="27.07,50.95 23.77,44.39"/>
        <lane id=":35_0_2" index="2" disallow="rail_fast" speed="36.11" length="7.43" width="3.05" shape="29.74,49.60 26.41,42.89"/>
        <lane id=":35_0_3" index="3" disallow="rail_fast" speed="36.11" length="7.43" width="3.03" shape="32.47,48.22 29.07,41.38"/>
        <lane id=":35_0_4" index="4" disallow="rail_fast" speed="36.11" length="7.43" width="3.05" shape="35.20,46.84 31.73,39.87"/>
        <lane id=":35_0_5" index="5" disallow="rail_fast" speed="36.11" length="7.43" width="3.12" shape="37.95,45.46 34.96,39.39"/>
    </edge>
    <edge id=":36_0" function="internal">
        <lane id=":36_0_0" index="0" disallow="rail_fast" speed="15.71" length="3.50" width="3.22" shape="21.91,44.86 21.71,44.68 21.52,44.52 21.34,44.37 21.17,44.25 21.01,44.14 20.86,44.05 20.71,43.96 20.58,43.87 20.44,43.79 20.32,43.71 20.20,43.62 20.08,43.52 19.96,43.41 19.84,43.29 19.72,43.15 19.60,42.99 19.48,42.81 19.36,42.59 19.23,42.35"/>
        <lane id=":36_0_1" index="1" disallow="rail_fast" speed="36.11" length="3.50" width="2.87" shape="23.57,44.01 22.05,40.99"/>
        <lane id=":36_0_2" index="2" disallow="rail_fast" speed="36.11" length="3.50" width="3.00" shape="26.27,42.62 24.80,39.66"/>
        <lane id=":36_0_3" index="3" disallow="rail_fast" speed="36.11" length="3.50" width="3.02" shape="28.99,41.22 27.53,38.32"/>
        <lane id=":36_0_4" index="4" disallow="rail_fast" speed="36.11" length="3.50" width="3.02" shape="31.68,39.78 30.25,36.93"/>
        <lane id=":36_0_5" index="5" disallow="rail_fast" speed="36.11" length="3.50" width="3.03" shape="34.87,39.21 33.04,35.52"/>
    </edge>
    <edge id=":37_0" function="internal">
        <lane id=":37_0_0" index="0" disallow="bus truck rail_fast" speed="36.11" length="4.73" width="3.84" shape="9.68,23.39 9.52,23.07 9.38,22.79 9.25,22.53 9.14,22.29 9.03,22.08 8.94,21.88 8.85,21.69 8.76,21.52 8.67,21.35 8.58,21.18 8.49,21.02 8.39,20.85 8.28,20.68 8.15,20.50 8.01,20.30 7.86,20.09 7.68,19.87 7.49,19.62 7.26,19.34"/>
    </edge>
    <edge id=":37_1" function="internal">
        <lane id=":37_1_0" index="0" disallow="rail_fast" speed="36.11" length="5.10" width="2.87" shape="12.65,21.88 10.35,17.29"/>
        <lane id=":37_1_1" index="1" disallow="rail_fast" speed="36.11" length="5.10" width="3.02" shape="15.30,20.53 13.00,15.97"/>
        <lane id=":37_1_2" index="2" disallow="rail_fast" speed="36.11" length="5.10" width="3.12" shape="18.03,19.13 15.78,14.60"/>
    </edge>
    <edge id=":37_4" function="internal">
        <lane id=":37_4_0" index="0" disallow="bus truck rail_fast" speed="36.11" length="5.03" width="2.93" shape="20.77,17.73 18.53,13.23"/>
    </edge>
    <edge id=":37_5" function="internal">
        <lane id=":37_5_0" index="0" disallow="bus truck rail_fast" speed="36.11" length="4.99" width="3.03" shape="23.49,16.35 21.26,11.88"/>
    </edge>
    <edge id=":38_0" function="internal">
        <lane id=":38_0_0" index="0" disallow="rail_fast" speed="36.11" length="3.02" width="3.06" shape="5.76,8.04 4.42,5.34"/>
        <lane id=":38_0_1" index="1" disallow="rail_fast" speed="36.11" length="3.02" width="2.99" shape="8.48,6.71 7.15,3.99"/>
        <lane id=":38_0_2" index="2" disallow="rail_fast" speed="36.11" length="3.02" width="3.06" shape="11.24,5.36 9.90,2.65"/>
    </edge>
    <edge id=":39_0" function="internal">
        <lane id=":39_0_0" index="0" disallow="rail_fast" speed="36.11" length="1.22" width="3.29" shape="-1.56,-6.72 -1.02,-5.62"/>
        <lane id=":39_0_1" index="1" disallow="rail_fast" speed="36.11" length="1.22" width="2.97" shape="1.23,-8.15 1.76,-7.05"/>
        <lane id=":39_0_2" index="2" disallow="rail_fast" speed="36.11" length="1.22" width="3.01" shape="3.92,-9.53 4.46,-8.44"/>
    </edge>
    <edge id=":5_0" function="internal">
        <lane id=":5_0_0" index="0" disallow="bus truck rail_fast" speed="8.72" length="16.70" width="3.23" shape="-13.89,-0.23 -12.65,-0.87 -11.49,-1.51 -10.41,-2.14 -9.42,-2.77 -8.51,-3.40 -7.68,-4.03 -6.94,-4.66 -6.28,-5.28 -5.69,-5.90 -5.20,-6.53 -4.78,-7.15 -4.45,-7.76 -4.19,-8.38 -4.02,-9.00 -3.94,-9.61 -3.93,-10.22 -4.01,-10.83 -4.17,-11.44 -4.41,-12.05"/>
    </edge>
    <edge id=":5_1" function="internal">
        <lane id=":5_1_0" index="0" disallow="rail_fast" speed="36.11" length="13.86" width="3.23" shape="-13.89,-0.23 -1.59,-6.58"/>
        <lane id=":5_1_1" index="1" disallow="rail_fast" speed="36.11" length="13.86" width="3.03" shape="-12.50,2.57 -0.13,-3.72"/>
    </edge>
    <edge id=":5_3" function="internal">
        <lane id=":5_3_0" index="0" disallow="bus truck rail_fast" speed="36.11" length="1.56" width="2.92" shape="-11.15,5.30 -12.55,5.98"/>
    </edge>
    <edge id=":6_0" function="internal">
        <lane id=":6_0_0" index="0" disallow="bus truck rail_fast" speed="9.12" length="13.80" width="3.05" shape="29.82,-2.79 29.46,-2.36 29.13,-1.91 28.86,-1.43 28.63,-0.91 28.44,-0.37 28.30,0.20 28.21,0.79 28.16,1.42 28.16,2.07 28.20,2.75 28.29,3.46 28.42,4.20 28.60,4.97 28.82,5.76 29.09,6.58 29.41,7.44 29.77,8.32 30.18,9.22 30.63,10.16"/>
    </edge>
    <edge id=":6_1" function="internal">
        <lane id=":6_1_0" index="0" disallow="rail_fast" speed="36.11" length="13.06" width="3.05" shape="24.99,-1.57 30.63,10.16"/>
        <lane id=":6_1_1" index="1" disallow="rail_fast" speed="36.11" length="13.06" width="2.91" shape="22.17,-0.21 27.81,11.57"/>
        <lane id=":6_1_2" index="2" disallow="rail_fast" speed="36.11" length="13.06" width="2.89" shape="19.44,1.10 25.11,12.92"/>
    </edge>
    <edge id=":6_4" function="internal">
        <lane id=":6_4_0" index="0" disallow="bus truck rail_fast" speed="36.11" length="13.55" width="2.89" shape="18.59,1.04 25.11,12.92"/>
    </edge>
    <edge id=":7_0" function="internal">
        <lane id=":7_0_0" index="0" disallow="rail_fast" speed="36.11" length="0.24" width="3.05" shape="40.96,31.42 41.06,31.62"/>
        <lane id=":7_0_1" index="1" disallow="rail_fast" speed="36.11" length="0.24" width="2.91" shape="38.29,32.75 38.40,32.97"/>
        <lane id=":7_0_2" index="2" disallow="rail_fast" speed="36.11" length="0.24" width="2.89" shape="35.70,34.05 35.81,34.27"/>
    </edge>
    <edge id=":8_0" function="internal">
        <lane id=":8_0_0" index="0" disallow="rail_fast" speed="36.11" length="3.05" width="3.03" shape="44.18,37.70 45.55,40.43"/>
        <lane id=":8_0_1" index="1" disallow="rail_fast" speed="36.11" length="3.05" width="3.00" shape="41.46,39.06 42.82,41.78"/>
        <lane id=":8_0_2" index="2" disallow="rail_fast" speed="36.11" length="3.05" width="2.94" shape="38.82,40.38 40.16,43.11"/>
    </edge>
    <edge id=":9_0" function="internal">
        <lane id=":9_0_0" index="0" disallow="bus truck rail_fast" speed="10.11" length="13.46" width="3.16" shape="53.81,56.96 54.25,57.80 54.69,58.60 55.14,59.35 55.60,60.06 56.07,60.73 56.54,61.36 57.02,61.94 57.51,62.49 58.01,62.98 58.51,63.44 59.02,63.85 59.54,64.22 60.06,64.55 60.59,64.84 61.13,65.08 61.68,65.28 62.23,65.44 62.79,65.55 63.36,65.62"/>
    </edge>
    <edge id=":9_1" function="internal">
        <lane id=":9_1_0" index="0" disallow="rail_fast" speed="36.11" length="13.11" width="3.16" shape="53.81,56.96 59.61,68.72"/>
        <lane id=":9_1_1" index="1" disallow="bus rail_fast" speed="36.11" length="13.11" width="2.93" shape="51.03,58.31 56.85,70.06"/>
        <lane id=":9_1_2" index="2" disallow="rail_fast" speed="36.11" length="13.11" width="3.07" shape="48.28,59.64 54.11,71.39"/>
    </edge>

    <edge id="3426" from="34" to="35" priority="1" spreadType="center" length="21.90">
        <lane id="3426_0" index="0" disallow="rail_fast" speed="36.11" length="21.90" width="2.78" customShape="1" shape="35.07,66.81 30.60,57.92 27.07,50.95"/>
        <lane id="3426_1" index="1" disallow="rail_fast" speed="36.11" length="21.90" width="3.00" customShape="1" shape="37.68,65.55 33.25,56.67 29.74,49.60"/>
        <lane id="3426_2" index="2" disallow="rail_fast" speed="36.11" length="21.90" width="3.02" customShape="1" shape="40.41,64.23 35.94,55.23 32.47,48.22"/>
        <lane id="3426_3" index="3" disallow="rail_fast" speed="36.11" length="21.90" width="2.96" customShape="1" shape="43.13,62.91 38.62,53.77 35.20,46.84"/>
        <lane id="3426_4" index="4" disallow="rail_fast" speed="36.11" length="21.90" width="3.03" customShape="1" shape="45.84,61.60 41.35,52.39 37.95,45.46"/>
    </edge>
    <edge id="3438" from="35" to="36" priority="1" spreadType="center" length="8.44">
        <lane id="3438_0" index="0" disallow="rail_fast" speed="36.11" length="8.44" width="2.94" customShape="1" shape="22.30,45.22 21.91,44.86"/>
        <lane id="3438_1" index="1" disallow="rail_fast" speed="36.11" length="8.44" width="2.94" customShape="1" shape="23.77,44.39 23.57,44.01"/>
        <lane id="3438_2" index="2" disallow="rail_fast" speed="36.11" length="8.44" width="3.05" customShape="1" shape="26.41,42.89 26.27,42.62"/>
        <lane id="3438_3" index="3" disallow="rail_fast" speed="36.11" length="8.44" width="3.03" customShape="1" shape="29.07,41.38 28.99,41.22"/>
        <lane id="3438_4" index="4" disallow="rail_fast" speed="36.11" length="8.44" width="3.05" customShape="1" shape="31.73,39.87 31.68,39.78"/>
        <lane id="3438_5" index="5" disallow="rail_fast" speed="36.11" length="8.44" width="3.12" customShape="1" shape="34.96,39.39 34.87,39.21"/>
    </edge>
    <edge id="3450" from="36" to="37" priority="1" spreadType="center" length="24.49">
        <lane id="3450_0" index="0" disallow="rail_fast" speed="36.11" length="24.49" width="3.22" customShape="1" shape="19.23,42.35 16.05,36.09 12.26,28.40 9.68,23.39"/>
        <lane id="3450_1" index="1" disallow="rail_fast" speed="36.11" length="24.49" width="2.87" customShape="1" shape="22.05,40.99 19.05,34.94 15.22,26.99 12.65,21.88"/>
        <lane id="3450_2" index="2" disallow="rail_fast" speed="36.11" length="24.49" width="3.00" customShape="1" shape="24.80,39.66 21.78,33.61 17.93,25.66 15.30,20.53"/>
        <lane id="3450_3" index="3" disallow="rail_fast" speed="36.11" length="24.49" width="3.02" customShape="1" shape="27.53,38.32 24.45,32.16 20.56,24.21 18.03,19.13"/>
        <lane id="3450_4" index="4" disallow="rail_fast" speed="36.11" length="24.49" width="3.02" customShape="1" shape="30.25,36.93 27.13,30.70 23.25,22.75 20.77,17.73"/>
        <lane id="3450_5" index="5" disallow="rail_fast" speed="36.11" length="24.49" width="3.03" customShape="1" shape="33.04,35.52 29.83,29.20 25.94,21.25 23.49,16.35"/>
    </edge>
    <edge id="3456" from="6" to="7" priority="1" spreadType="center" length="24.71">
        <lane id="3456_0" index="0" disallow="rail_fast" speed="36.11" length="24.71" width="3.05" customShape="1" shape="30.63,10.16 33.79,16.49 37.65,24.41 40.96,31.42"/>
        <lane id="3456_1" index="1" disallow="rail_fast" speed="36.11" length="24.71" width="2.91" customShape="1" shape="27.81,11.57 31.23,18.26 34.91,25.83 38.29,32.75"/>
        <lane id="3456_2" index="2" disallow="rail_fast" speed="36.11" length="24.71" width="2.89" customShape="1" shape="25.11,12.92 28.60,19.82 32.39,27.52 35.70,34.05"/>
    </edge>
    <edge id="3462" from="7" to="8" priority="1" spreadType="center" length="8.47">
        <lane id="3462_0" index="0" disallow="rail_fast" speed="36.11" length="8.47" width="3.05" customShape="1" shape="41.06,31.62 44.18,37.70"/>
        <lane id="3462_1" index="1" disallow="rail_fast" speed="36.11" length="8.47" width="2.91" customShape="1" shape="38.40,32.97 41.46,39.06"/>
        <lane id="3462_2" index="2" disallow="rail_fast" speed="36.11" length="8.47" width="2.89" customShape="1" shape="35.81,34.27 38.82,40.38"/>
    </edge>
    <edge id="3468" from="8" to="9" priority="1" spreadType="center" length="22.24">
        <lane id="3468_0" index="0" disallow="rail_fast" speed="36.11" length="22.24" width="3.03" customShape="1" shape="45.55,40.43 49.49,48.37 53.81,56.96"/>
        <lane id="3468_1" index="1" disallow="rail_fast" speed="36.11" length="22.24" width="3.00" customShape="1" shape="42.82,41.78 46.81,49.79 51.03,58.31"/>
        <lane id="3468_2" index="2" disallow="rail_fast" speed="36.11" length="22.24" width="2.94" customShape="1" shape="40.16,43.11 44.12,51.17 48.28,59.64"/>
    </edge>
    <edge id="3498" from="1" to="2" priority="1" spreadType="center" length="9.59">
        <lane id="3498_0" index="0" disallow="rail_fast" speed="36.11" length="9.59" width="4.77" customShape="1" shape="84.82,70.80 75.63,71.10"/>
    </edge>
    <edge id="3500" from="25" to="26" priority="1" spreadType="center" length="9.59">
        <lane id="3500_0" index="0" disallow="rail_fast" speed="36.11" length="9.59" width="5.36" customShape="1" shape="76.46,66.01 84.60,65.74"/>
    </edge>
    <edge id="3509" from="4" to="5" priority="1" spreadType="center" length="15.63">
        <lane id="3509_0" index="0" disallow="rail_fast" speed="36.11" length="15.63" width="3.23" customShape="1" shape="-25.98,5.78 -21.58,3.60 -13.89,-0.23"/>
        <lane id="3509_1" index="1" disallow="rail_fast" speed="36.11" length="15.63" width="3.02" customShape="1" shape="-24.59,8.58 -20.15,6.38 -12.50,2.57"/>
        <lane id="3509_2" index="2" disallow="rail_fast" speed="36.11" length="15.63" width="3.06" customShape="1" shape="-23.24,11.30 -18.74,9.07 -11.15,5.30"/>
    </edge>
    <edge id="3517" from="23" to="24" priority="1" spreadType="center" length="14.50">
        <lane id="3517_0" index="0" disallow="rail_fast" speed="36.11" length="14.50" width="5.13" acceleration="1" customShape="1" shape="-7.01,16.09 -14.34,19.63 -17.96,21.60"/>
        <lane id="3517_1" index="1" disallow="rail_fast" speed="36.11" length="14.50" width="3.11" customShape="1" shape="-8.80,11.78 -16.24,15.78 -19.93,17.99"/>
        <lane id="3517_2" index="2" disallow="rail_fast" speed="36.11" length="14.50" width="3.66" customShape="1" shape="-10.10,8.64 -17.76,12.75 -21.55,15.02"/>
    </edge>
    <edge id="3525" from="13" to="14" priority="1" spreadType="center" length="17.28">
        <lane id="3525_0" index="0" disallow="rail_fast" speed="36.11" length="17.28" width="3.87" customShape="1" shape="32.12,-27.99 40.69,-32.20 47.48,-35.54"/>