<routes>
	<vehicle depart="0.1" departLane="0" departPos="66.947283980843" departSpeed="13.174826" id="350" type="passenger">
		<route edges="47898 47802"/>
	</vehicle>
	<vehicle depart="0.1" departLane="0" departPos="22.979825451089898" departSpeed="2.21107" id="385" type="passenger">
		<route edges=":92_2 47897 47835"/>
	</vehicle>
	<vehicle depart="0.1" departLane="0" departPos="12.60686718076545" departSpeed="0.89625527" id="396" type="passenger">
		<route edges=":96_3 47803"/>
	</vehicle>
</routes>
