<routes>
	<vehicle depart="0.1" departLane="0" departPos="39.79725234456053" departSpeed="4.6729555" id="331" type="bicycle">
		<route edges="42607 42500"/>
	</vehicle>
	<vehicle depart="0.1" departLane="0" departPos="2.5" departSpeed="8.5354179" id="38" type="passenger">
		<route edges=":30_1 42500 42560"/>
	</vehicle>
	<vehicle depart="0.1" departLane="0" departPos="16.908018774040496" departSpeed="9.8319036" id="318" type="passenger">
		<route edges=":30_1 42500 42560"/>
	</vehicle>
	<vehicle depart="0.1" departLane="0" departPos="58.32900876476687" departSpeed="7.0926684" id="323" type="passenger">
		<route edges="42607 42404"/>
	</vehicle>
	<vehicle depart="0.1" departLane="0" departPos="28.837089816673373" departSpeed="5.6615357" id="335" type="passenger">
		<route edges="42607 42500"/>
	</vehicle>
	<vehicle depart="0.1" departLane="0" departPos="20.750321907070344" departSpeed="3.9875058" id="338" type="passenger">
		<route edges="42607 42500"/>
	</vehicle>
	<vehicle depart="0.1" departLane="0" departPos="8.581385652413246" departSpeed="3.2934942" id="345" type="passenger">
		<route edges="42607 42500"/>
	</vehicle>
</routes>
