<!-- generated on Tue Feb  9 22:08:53 2021 by Eclipse SUMO netconvert Version 1.8.0
<configuration xmlns:xsi="http://www.w3.org/2001/XMLSchema-instance" xsi:noNamespaceSchemaLocation="http://sumo.dlr.de/xsd/netconvertConfiguration.xsd">

    <input>
        <node-files value="./converted_scenarios/scenario-factory/ESP_Ceuta-8_1_I-1-1/ESP_Ceuta-8_1_I-1-1.nod.xml"/>
        <edge-files value="./converted_scenarios/scenario-factory/ESP_Ceuta-8_1_I-1-1/ESP_Ceuta-8_1_I-1-1.edg.xml"/>
        <connection-files value="./converted_scenarios/scenario-factory/ESP_Ceuta-8_1_I-1-1/ESP_Ceuta-8_1_I-1-1.con.xml"/>
        <tllogic-files value="./converted_scenarios/scenario-factory/ESP_Ceuta-8_1_I-1-1/ESP_Ceuta-8_1_I-1-1.tll.xml"/>
        <type-files value="/home/zen/commonroad-interactive-benchmarks/install/commonroad-map-tool/crmapconverter/sumo_map/templates/DEU.typ.xml"/>
    </input>

    <output>
        <output-file value="./converted_scenarios/scenario-factory/ESP_Ceuta-8_1_I-1-1/ESP_Ceuta-8_1_I-1-1.net.xml"/>
    </output>

    <processing>
        <geometry.remove.keep-edges.explicit value="true"/>
        <geometry.avoid-overlap value="true"/>
        <offset.disable-normalization value="true"/>
    </processing>

    <junctions>
        <no-turnarounds value="true"/>
        <junctions.internal-link-detail value="20"/>
    </junctions>

    <report>
        <aggregate-warnings value="5"/>
    </report>

    <random_number>
        <seed value="1234"/>
    </random_number>

</configuration>
--><net xmlns:xsi="http://www.w3.org/2001/XMLSchema-instance" version="1.6" junctionCornerDetail="5" junctionLinkDetail="20" limitTurnSpeed="5.50" xsi:noNamespaceSchemaLocation="http://sumo.dlr.de/xsd/net_file.xsd">

    <location netOffset="0.00,0.00" convBoundary="778.09,-632.79,952.37,-447.81" origBoundary="778.09,-632.79,953.49,-437.14" projParameter="!"/>

    <type id="highway.bridleway" priority="1" speed="2.78" allow="pedestrian" oneway="1" width="2.00"/>
    <type id="highway.bus_guideway" priority="1" speed="27.78" allow="bus" oneway="1"/>
    <type id="highway.cycleway" priority="1" speed="8.33" allow="bicycle" oneway="0" width="1.00"/>
    <type id="highway.footway" priority="1" speed="2.78" allow="pedestrian" oneway="1" width="2.00"/>
    <type id="highway.ford" priority="1" speed="2.78" allow="army" oneway="0"/>
    <type id="highway.living_street" priority="2" speed="2.78" disallow="tram rail_urban rail rail_electric rail_fast ship" oneway="0"/>
    <type id="highway.motorway" priority="14" speed="39.44" allow="private emergency authority army vip passenger hov taxi bus coach delivery truck trailer motorcycle evehicle custom1 custom2" oneway="1"/>
    <type id="highway.motorway_link" priority="9" speed="22.22" allow="private emergency authority army vip passenger hov taxi bus coach delivery truck trailer motorcycle evehicle custom1 custom2" oneway="1"/>
    <type id="highway.path" priority="1" speed="2.78" allow="pedestrian bicycle" oneway="0" width="2.00"/>
    <type id="highway.pedestrian" priority="1" speed="2.78" allow="pedestrian" oneway="1" width="2.00"/>
    <type id="highway.primary" priority="12" speed="27.78" disallow="pedestrian tram rail_urban rail rail_electric rail_fast ship" oneway="0"/>
    <type id="highway.primary_link" priority="7" speed="22.22" disallow="pedestrian tram rail_urban rail rail_electric rail_fast ship" oneway="0"/>
    <type id="highway.raceway" priority="15" speed="83.33" allow="vip" oneway="0"/>
    <type id="highway.residential" priority="3" speed="13.89" disallow="pedestrian tram rail_urban rail rail_electric rail_fast ship" oneway="0"/>
    <type id="highway.secondary" priority="11" speed="27.78" disallow="pedestrian tram rail_urban rail rail_electric rail_fast ship" oneway="0"/>
    <type id="highway.secondary_link" priority="6" speed="22.22" disallow="pedestrian tram rail_urban rail rail_electric rail_fast ship" oneway="0"/>
    <type id="highway.service" priority="1" speed="5.56" allow="pedestrian delivery bicycle" oneway="0"/>
    <type id="highway.stairs" priority="1" speed="1.39" allow="pedestrian" oneway="1" width="2.00"/>
    <type id="highway.step" priority="1" speed="1.39" allow="pedestrian" oneway="1" width="2.00"/>
    <type id="highway.steps" priority="1" speed="1.39" allow="pedestrian" oneway="1" width="2.00"/>
    <type id="highway.tertiary" priority="10" speed="22.22" disallow="pedestrian tram rail_urban rail rail_electric rail_fast ship" oneway="0"/>
    <type id="highway.tertiary_link" priority="5" speed="22.22" disallow="pedestrian tram rail_urban rail rail_electric rail_fast ship" oneway="0"/>
    <type id="highway.track" priority="1" speed="5.56" allow="pedestrian motorcycle moped bicycle" oneway="0"/>
    <type id="highway.trunk" priority="13" speed="27.78" disallow="pedestrian bicycle tram rail_urban rail rail_electric rail_fast ship" oneway="0"/>
    <type id="highway.trunk_link" priority="8" speed="22.22" disallow="pedestrian bicycle tram rail_urban rail rail_electric rail_fast ship" oneway="0"/>
    <type id="highway.unclassified" priority="4" speed="13.89" disallow="pedestrian tram rail_urban rail rail_electric rail_fast ship" oneway="0"/>
    <type id="highway.unsurfaced" priority="1" speed="8.33" disallow="tram rail_urban rail rail_electric rail_fast ship" oneway="0"/>
    <type id="railway.highspeed" priority="21" speed="69.44" allow="rail_fast" oneway="1"/>
    <type id="railway.light_rail" priority="19" speed="27.78" allow="rail_urban" oneway="1"/>
    <type id="railway.preserved" priority="16" speed="27.78" allow="rail" oneway="1"/>
    <type id="railway.rail" priority="20" speed="44.44" allow="rail" oneway="1"/>
    <type id="railway.subway" priority="18" speed="27.78" allow="rail_urban" oneway="1"/>
    <type id="railway.tram" priority="17" speed="13.89" allow="tram" oneway="1"/>

    <edge id=":57_0" function="internal">
        <lane id=":57_0_0" index="0" disallow="pedestrian tram rail_urban rail rail_electric rail_fast ship" speed="11.26" length="28.76" width="3.50" shape="858.14,-550.96 855.79,-553.31 854.07,-554.70 852.22,-555.91 850.23,-556.87 849.18,-557.24 848.12,-557.53 847.03,-557.73 845.92,-557.83 844.82,-557.83 843.71,-557.74 842.62,-557.56 840.49,-556.96 838.46,-556.07 836.54,-554.97 834.73,-553.70 833.03,-552.31"/>
    </edge>
    <edge id=":57_1" function="internal">
        <lane id=":57_1_0" index="0" disallow="pedestrian tram rail_urban rail rail_electric rail_fast ship" speed="36.11" length="35.30" width="3.50" shape="858.14,-550.96 846.34,-564.09 834.54,-577.21"/>
    </edge>
    <edge id=":57_2" function="internal">
        <lane id=":57_2_0" index="0" disallow="pedestrian tram rail_urban rail rail_electric rail_fast ship" speed="12.11" length="34.05" width="3.50" shape="858.14,-550.96 855.67,-554.01 854.24,-556.20 853.04,-558.53 852.14,-560.99 851.82,-562.26 851.62,-563.55 851.52,-564.86 851.53,-566.17 851.67,-567.47 851.92,-568.76 852.27,-570.02 853.28,-572.43 854.61,-574.69 856.19,-576.77 857.96,-578.71 859.88,-580.51"/>
    </edge>
    <edge id=":57_3" function="internal">
        <lane id=":57_3_0" index="0" disallow="pedestrian tram rail_urban rail rail_electric rail_fast ship" speed="11.10" length="28.42" width="3.50" shape="862.19,-577.88 860.52,-576.31 859.00,-574.65 857.66,-572.89 856.55,-571.01 855.72,-569.01 855.44,-568.02 855.24,-567.00 855.14,-565.96 855.12,-564.91 855.20,-563.87 855.37,-562.83 855.61,-561.83 856.37,-559.77 857.38,-557.81 858.59,-555.96 860.74,-553.30"/>
    </edge>
    <edge id=":57_4" function="internal">
        <lane id=":57_4_0" index="0" disallow="pedestrian tram rail_urban rail rail_electric rail_fast ship" speed="36.11" length="38.78" width="3.50" shape="862.19,-577.88 847.60,-565.08 833.03,-552.31"/>
    </edge>
    <edge id=":57_5" function="internal">
        <lane id=":57_5_0" index="0" disallow="pedestrian tram rail_urban rail rail_electric rail_fast ship" speed="11.78" length="31.57" width="3.50" shape="862.19,-577.88 859.10,-575.40 856.91,-573.94 854.60,-572.67 852.17,-571.67 849.63,-571.01 848.32,-570.84 847.01,-570.78 845.70,-570.85 844.40,-571.04 843.12,-571.35 841.88,-571.78 840.68,-572.33 838.43,-573.69 836.39,-575.34 834.54,-577.21"/>
    </edge>
    <edge id=":57_6" function="internal">
        <lane id=":57_6_0" index="0" disallow="pedestrian tram rail_urban rail rail_electric rail_fast ship" speed="10.72" length="26.06" width="3.50" shape="837.13,-579.56 838.69,-577.98 840.38,-576.62 842.25,-575.51 843.17,-575.11 844.16,-574.78 845.16,-574.55 846.18,-574.41 847.21,-574.38 848.25,-574.44 849.26,-574.58 851.36,-575.15 853.37,-576.00 855.32,-577.08 857.18,-578.34 859.88,-580.51"/>
    </edge>
    <edge id=":57_7" function="internal">
        <lane id=":57_7_0" index="0" disallow="pedestrian tram rail_urban rail rail_electric rail_fast ship" speed="36.11" length="35.31" width="3.50" shape="837.13,-579.56 848.94,-566.43 860.74,-553.30"/>
    </edge>
    <edge id=":57_8" function="internal">
        <lane id=":57_8_0" index="0" disallow="pedestrian tram rail_urban rail rail_electric rail_fast ship" speed="11.69" length="31.54" width="3.50" shape="837.13,-579.56 837.99,-578.55 839.50,-576.46 840.75,-574.17 841.27,-572.89 841.66,-571.59 841.94,-570.25 842.08,-568.89 842.08,-567.51 841.95,-566.15 841.69,-564.81 841.31,-563.52 840.84,-562.27 840.26,-561.05 838.95,-558.83 837.42,-556.78 835.73,-554.88 833.03,-552.31"/>
    </edge>
    <edge id=":57_9" function="internal">
        <lane id=":57_9_0" index="0" disallow="pedestrian tram rail_urban rail rail_electric rail_fast ship" speed="10.61" length="25.90" width="3.50" shape="830.72,-554.94 833.06,-557.16 834.50,-558.77 835.81,-560.49 836.93,-562.34 837.40,-563.31 837.80,-564.31 838.12,-565.34 838.34,-566.40 838.47,-567.47 838.49,-568.55 838.40,-569.63 838.20,-570.69 837.91,-571.73 837.52,-572.73 836.50,-574.64 835.24,-576.39 834.54,-577.21"/>
    </edge>
    <edge id=":57_10" function="internal">
        <lane id=":57_10_0" index="0" disallow="pedestrian tram rail_urban rail rail_electric rail_fast ship" speed="36.11" length="38.78" width="3.50" shape="830.72,-554.94 845.29,-567.71 859.88,-580.51"/>
    </edge>
    <edge id=":57_11" function="internal">
        <lane id=":57_11_0" index="0" disallow="pedestrian tram rail_urban rail rail_electric rail_fast ship" speed="12.26" length="34.29" width="3.50" shape="830.72,-554.94 832.69,-556.54 834.80,-558.02 837.06,-559.32 839.48,-560.37 842.03,-561.09 843.39,-561.32 844.75,-561.43 846.12,-561.42 847.48,-561.30 848.82,-561.05 850.13,-560.70 851.43,-560.24 853.80,-559.09 856.01,-557.65 858.04,-556.01 860.74,-553.30"/>
    </edge>
    <edge id=":58_0" function="internal">
        <lane id=":58_0_0" index="0" disallow="pedestrian tram rail_urban rail rail_electric rail_fast ship" speed="8.81" length="16.82" width="3.50" shape="869.79,-543.25 872.24,-540.78 874.48,-538.97 876.44,-537.73 878.53,-536.76 880.74,-536.10 882.45,-535.85 884.25,-535.84"/>
    </edge>
    <edge id=":58_1" function="internal">
        <lane id=":58_1_0" index="0" disallow="pedestrian tram rail_urban rail rail_electric rail_fast ship" speed="8.37" length="15.97" width="3.50" shape="872.52,-526.47 872.74,-527.72 872.77,-529.48 872.56,-531.24 871.92,-533.50 870.96,-535.65 869.41,-538.15 867.58,-540.46 867.20,-540.89"/>
    </edge>
    <edge id=":58_2" function="internal">
        <lane id=":58_2_0" index="0" disallow="pedestrian tram rail_urban rail rail_electric rail_fast ship" speed="36.11" length="15.00" width="3.50" shape="874.75,-523.81 880.24,-528.39 886.27,-533.41"/>
        <lane id=":58_2_1" index="1" disallow="pedestrian tram rail_urban rail rail_electric rail_fast ship" speed="36.11" length="14.98" width="3.50" shape="876.99,-521.13 882.48,-525.70 888.51,-530.71"/>
    </edge>
    <edge id=":59_0" function="internal">
        <lane id=":59_0_0" index="0" disallow="pedestrian tram rail_urban rail rail_electric rail_fast ship" speed="36.11" length="3.55" width="3.49" shape="914.43,-580.02 916.82,-577.39"/>
    </edge>
    <edge id=":59_1" function="internal">
        <lane id=":59_1_0" index="0" disallow="pedestrian tram rail_urban rail rail_electric rail_fast ship" speed="8.21" length="15.08" width="3.50" shape="916.94,-564.07 917.02,-564.51 917.08,-566.27 916.90,-568.01 916.31,-570.28 915.40,-572.44 913.92,-574.96 912.15,-577.30 911.78,-577.74"/>
    </edge>
    <edge id=":59_2" function="internal">
        <lane id=":59_2_0" index="0" disallow="pedestrian tram rail_urban rail rail_electric rail_fast ship" speed="36.11" length="15.77" width="3.49" shape="919.47,-561.04 931.59,-571.13"/>
    </edge>
    <edge id=":59_3" function="internal">
        <lane id=":59_3_0" index="0" disallow="pedestrian tram rail_urban rail rail_electric rail_fast ship" speed="36.11" length="15.59" width="3.50" shape="921.71,-558.36 933.69,-568.34"/>
    </edge>
    <edge id=":61_0" function="internal">
        <lane id=":61_0_0" index="0" disallow="pedestrian tram rail_urban rail rail_electric rail_fast ship" speed="36.11" length="9.24" width="3.50" shape="836.25,-464.74 834.45,-461.28 832.01,-456.53"/>
        <lane id=":61_0_1" index="1" disallow="pedestrian tram rail_urban rail rail_electric rail_fast ship" speed="36.11" length="8.82" width="3.50" shape="833.86,-467.42 831.80,-463.45 829.83,-459.58"/>
    </edge>
    <edge id=":61_2" function="internal">
        <lane id=":61_2_0" index="0" disallow="pedestrian tram rail_urban rail rail_electric rail_fast ship" speed="7.16" length="13.59" width="3.50" shape="827.92,-468.35 829.14,-467.12 830.10,-465.95 830.95,-464.69 831.68,-463.36 832.24,-461.95 832.59,-460.47 832.69,-458.96 832.53,-457.45 832.21,-456.25"/>
    </edge>
    <edge id=":61_3" function="internal">
        <lane id=":61_3_0" index="0" disallow="pedestrian tram rail_urban rail rail_electric rail_fast ship" speed="4.66" length="4.97" width="3.50" shape="825.76,-465.55 826.20,-465.11 826.96,-464.18 827.62,-463.23 828.17,-462.24 828.50,-461.45"/>
    </edge>
    <edge id=":62_0" function="internal">
        <lane id=":62_0_0" index="0" disallow="pedestrian tram rail_urban rail rail_electric rail_fast ship" speed="36.11" length="32.33" width="3.50" shape="834.37,-577.40 823.56,-589.42 812.75,-601.44"/>
    </edge>
    <edge id=":62_1" function="internal">
        <lane id=":62_1_0" index="0" disallow="pedestrian tram rail_urban rail rail_electric rail_fast ship" speed="11.63" length="31.23" width="3.50" shape="834.37,-577.40 833.52,-578.39 832.03,-580.48 830.82,-582.78 830.33,-584.06 829.97,-585.36 829.74,-586.70 829.64,-588.06 829.68,-589.42 829.85,-590.77 830.14,-592.08 830.55,-593.37 831.61,-595.73 832.95,-597.93 834.48,-599.94 836.15,-601.81 838.82,-604.37"/>
    </edge>
    <edge id=":62_2" function="internal">
        <lane id=":62_2_0" index="0" disallow="pedestrian tram rail_urban rail rail_electric rail_fast ship" speed="10.57" length="25.62" width="3.50" shape="841.14,-601.75 838.82,-599.54 837.39,-597.95 836.08,-596.26 834.95,-594.45 834.04,-592.52 833.70,-591.51 833.45,-590.47 833.29,-589.41 833.23,-588.35 833.28,-587.28 833.44,-586.23 833.71,-585.19 834.07,-584.19 835.04,-582.29 836.28,-580.55 836.97,-579.74"/>
    </edge>
    <edge id=":62_3" function="internal">
        <lane id=":62_3_0" index="0" disallow="pedestrian tram rail_urban rail rail_electric rail_fast ship" speed="36.11" length="32.35" width="3.50" shape="815.34,-603.79 826.16,-591.76 836.97,-579.74"/>
    </edge>
    <edge id=":63_0" function="internal">
        <lane id=":63_0_0" index="0" disallow="pedestrian tram rail_urban rail rail_electric rail_fast ship" speed="11.15" length="28.65" width="3.50" shape="901.81,-589.32 899.43,-591.81 897.73,-593.26 895.90,-594.50 893.94,-595.50 892.96,-595.87 891.94,-596.16 890.90,-596.36 889.86,-596.47 888.80,-596.49 887.75,-596.41 886.70,-596.24 885.68,-596.00 883.60,-595.25 881.62,-594.25 879.74,-593.04 877.03,-590.90"/>
    </edge>
    <edge id=":63_1" function="internal">
        <lane id=":63_1_0" index="0" disallow="pedestrian tram rail_urban rail rail_electric rail_fast ship" speed="36.11" length="38.77" width="3.50" shape="906.18,-616.46 891.61,-603.68 877.03,-590.90"/>
    </edge>
    <edge id=":63_2" function="internal">
        <lane id=":63_2_0" index="0" disallow="pedestrian tram rail_urban rail rail_electric rail_fast ship" speed="11.80" length="31.74" width="3.50" shape="881.37,-618.43 882.20,-617.41 883.68,-615.28 884.90,-612.95 885.39,-611.65 885.77,-610.34 886.03,-609.00 886.16,-607.62 886.15,-606.24 886.02,-604.88 885.75,-603.53 885.36,-602.20 884.33,-599.77 883.00,-597.51 881.46,-595.43 879.76,-593.51 877.03,-590.90"/>
    </edge>
    <edge id=":63_3" function="internal">
        <lane id=":63_3_0" index="0" disallow="pedestrian tram rail_urban rail rail_electric rail_fast ship" speed="10.74" length="26.19" width="3.45" shape="874.72,-593.53 877.10,-595.79 878.55,-597.42 879.87,-599.17 880.99,-601.04 881.87,-603.04 882.19,-604.08 882.42,-605.15 882.55,-606.23 882.57,-607.32 882.49,-608.41 882.30,-609.49 882.01,-610.54 881.64,-611.57 880.65,-613.51 879.41,-615.31 878.73,-616.14"/>
    </edge>
    <edge id=":63_4" function="internal">
        <lane id=":63_4_0" index="0" disallow="pedestrian tram rail_urban rail rail_electric rail_fast ship" speed="36.11" length="38.75" width="3.50" shape="874.72,-593.53 889.30,-606.31 903.86,-619.08"/>
    </edge>
    <edge id=":63_5" function="internal">
        <lane id=":63_5_0" index="0" disallow="pedestrian tram rail_urban rail rail_electric rail_fast ship" speed="12.15" length="34.26" width="3.50" shape="874.72,-593.53 877.83,-595.98 880.05,-597.40 882.40,-598.59 884.88,-599.48 886.16,-599.79 887.46,-600.00 888.77,-600.09 890.09,-600.07 891.40,-599.93 892.69,-599.68 893.96,-599.32 895.19,-598.85 897.54,-597.65 899.72,-596.17 901.73,-594.46 904.46,-591.61"/>
    </edge>
    <edge id=":64_0" function="internal">
        <lane id=":64_0_0" index="0" disallow="pedestrian tram rail_urban rail rail_electric rail_fast ship" speed="36.11" length="3.00" width="3.50" shape="825.16,-447.71 822.65,-446.06"/>
    </edge>
    <edge id=":64_1" function="internal">
        <lane id=":64_1_0" index="0" disallow="pedestrian tram rail_urban rail rail_electric rail_fast ship" speed="36.11" length="2.83" width="3.50" shape="823.19,-450.59 820.83,-449.03"/>
    </edge>
    <edge id=":64_2" function="internal">
        <lane id=":64_2_0" index="0" disallow="pedestrian tram rail_urban rail rail_electric rail_fast ship" speed="36.11" length="2.82" width="3.50" shape="823.19,-450.59 820.84,-449.03"/>
    </edge>
    <edge id=":64_3" function="internal">
        <lane id=":64_3_0" index="0" disallow="pedestrian tram rail_urban rail rail_electric rail_fast ship" speed="36.11" length="2.83" width="3.50" shape="823.19,-450.59 820.83,-449.03"/>
    </edge>
    <edge id=":66_0" function="internal">
        <lane id=":66_0_0" index="0" disallow="pedestrian tram rail_urban rail rail_electric rail_fast ship" speed="36.11" length="12.12" width="3.50" shape="810.11,-474.26 811.61,-475.20 817.17,-478.10 820.78,-479.99"/>
        <lane id=":66_0_1" index="1" disallow="pedestrian tram rail_urban rail rail_electric rail_fast ship" speed="36.11" length="11.59" width="3.50" shape="812.77,-471.86 813.66,-472.42 819.18,-475.27 823.01,-477.28"/>
    </edge>
    <edge id=":66_2" function="internal">
        <lane id=":66_2_0" index="0" disallow="pedestrian tram rail_urban rail rail_electric rail_fast ship" speed="7.54" length="11.70" width="3.50" shape="812.59,-472.02 813.57,-472.60 815.18,-473.26 816.88,-473.66 818.62,-473.73 820.34,-473.47 821.98,-472.89 823.51,-472.05 823.60,-471.99"/>
    </edge>
    <edge id=":66_3" function="internal">
        <lane id=":66_3_0" index="0" disallow="pedestrian tram rail_urban rail rail_electric rail_fast ship" speed="6.57" length="8.62" width="3.50" shape="813.38,-471.31 814.83,-471.50 816.58,-471.37 818.27,-470.91 819.88,-470.20 821.48,-469.19"/>
    </edge>
    <edge id=":67_0" function="internal">
        <lane id=":67_0_0" index="0" disallow="pedestrian tram rail_urban rail rail_electric rail_fast ship" speed="3.41" length="3.49" width="3.50" shape="802.98,-467.81 805.20,-470.50"/>
    </edge>
    <edge id=":67_1" function="internal">
        <lane id=":67_1_0" index="0" disallow="pedestrian tram rail_urban rail rail_electric rail_fast ship" speed="36.11" length="3.29" width="3.50" shape="805.75,-465.67 807.84,-468.21"/>
    </edge>
    <edge id=":67_2" function="internal">
        <lane id=":67_2_0" index="0" disallow="pedestrian tram rail_urban rail rail_electric rail_fast ship" speed="3.44" length="3.49" width="3.50" shape="803.00,-467.79 805.20,-470.50"/>
    </edge>
    <edge id=":67_3" function="internal">
        <lane id=":67_3_0" index="0" disallow="pedestrian tram rail_urban rail rail_electric rail_fast ship" speed="36.11" length="3.30" width="3.50" shape="805.75,-465.67 805.89,-465.87 806.01,-466.06 806.13,-466.22 806.23,-466.37 806.33,-466.50 806.42,-466.63 806.51,-466.74 806.60,-466.84 806.68,-466.94 806.77,-467.04 806.86,-467.14 806.95,-467.24 807.05,-467.35 807.15,-467.46 807.27,-467.58 807.39,-467.71 807.53,-467.86 807.68,-468.03 807.84,-468.21"/>
    </edge>
    <edge id=":7_0" function="internal">
        <lane id=":7_0_0" index="0" disallow="pedestrian tram rail_urban rail rail_electric rail_fast ship" speed="36.11" length="2.99" width="3.50" shape="933.66,-553.24 933.47,-553.12 933.31,-553.00 933.16,-552.89 933.03,-552.80 932.91,-552.71 932.80,-552.62 932.70,-552.54 932.60,-552.46 932.51,-552.38 932.42,-552.30 932.34,-552.22 932.25,-552.14 932.15,-552.05 932.05,-551.95 931.94,-551.85 931.82,-551.74 931.68,-551.62 931.53,-551.48 931.37,-551.33"/>
        <lane id=":7_0_1" index="1" disallow="pedestrian tram rail_urban rail rail_electric rail_fast ship" speed="36.11" length="3.03" width="3.50" shape="931.38,-555.90 931.20,-555.77 931.03,-555.66 930.88,-555.55 930.75,-555.45 930.62,-555.36 930.51,-555.27 930.41,-555.19 930.31,-555.11 930.22,-555.03 930.13,-554.95 930.04,-554.87 929.95,-554.78 929.85,-554.69 929.75,-554.59 929.64,-554.49 929.52,-554.37 929.38,-554.25 929.23,-554.11 929.06,-553.96"/>
    </edge>

    <edge id="71806" from="63" to="47" priority="3" type="highway.residential" spreadType="center" length="5.24" shape="889.80,-603.21 875.33,-620.13">
        <lane id="71806_0" index="0" disallow="pedestrian tram rail_urban rail rail_electric rail_fast ship" speed="36.11" length="5.24" width="3.45" customShape="1" shape="878.73,-616.14 878.63,-616.25 878.57,-616.33 875.33,-620.13"/>
    </edge>
    <edge id="71807" from="53" to="63" priority="3" type="highway.residential" spreadType="center" length="5.24" shape="877.94,-622.38 892.41,-605.45">
        <lane id="71807_0" index="0" disallow="pedestrian tram rail_urban rail rail_electric rail_fast ship" speed="36.11" length="5.24" width="3.45" customShape="1" shape="877.94,-622.38 881.22,-618.61 881.29,-618.53 881.38,-618.43"/>
    </edge>
    <edge id="71809" from="59" to="63" priority="3" type="highway.residential" spreadType="center" length="15.29" shape="910.85,-568.86 889.49,-603.58">
        <lane id="71809_0" index="0" disallow="pedestrian tram rail_urban rail rail_electric rail_fast ship" speed="36.11" length="15.29" width="3.50" customShape="1" shape="911.78,-577.74 906.79,-583.53 901.81,-589.33"/>
    </edge>
    <edge id="71810" from="63" to="59" priority="3" type="highway.residential" spreadType="center" length="15.29" shape="892.47,-605.41 913.83,-570.70">
        <lane id="71810_0" index="0" disallow="pedestrian tram rail_urban rail rail_electric rail_fast ship" speed="36.11" length="15.29" width="3.50" customShape="1" shape="904.46,-591.61 909.44,-585.82 914.43,-580.02"/>
    </edge>
    <edge id="71999" from="62" to="37" priority="3" type="highway.residential" spreadType="center" length="20.33" shape="828.69,-596.01 854.05,-617.83">
        <lane id="71999_0" index="0" disallow="pedestrian tram rail_urban rail rail_electric rail_fast ship" speed="36.11" length="20.33" width="3.50" customShape="1" shape="838.82,-604.37 846.44,-611.10 854.05,-617.83"/>
    </edge>
    <edge id="72000" from="55" to="62" priority="3" type="highway.residential" spreadType="center" length="20.33" shape="856.37,-615.21 830.96,-593.37">
        <lane id="72000_0" index="0" disallow="pedestrian tram rail_urban rail rail_electric rail_fast ship" speed="36.11" length="20.33" width="3.50" customShape="1" shape="856.37,-615.21 848.75,-608.48 841.13,-601.75"/>
    </edge>
    <edge id="72069" from="7" to="61" priority="3" type="highway.residential" spreadType="center" length="128.62">
        <lane id="72069_0" index="0" disallow="pedestrian tram rail_urban rail rail_electric rail_fast ship" speed="36.11" length="128.62" width="3.50" customShape="1" shape="931.37,-551.33 887.10,-512.20 835.00,-466.15"/>
        <lane id="72069_1" index="1" disallow="pedestrian tram rail_urban rail rail_electric rail_fast ship" speed="36.11" length="128.66" width="3.50" customShape="1" shape="929.06,-553.96 884.78,-514.82 832.66,-468.75"/>
    </edge>
    <edge id="72113" from="57" to="17" priority="3" type="highway.residential" spreadType="center" length="70.00" shape="848.22,-564.53 780.40,-506.16">
        <lane id="72113_0" index="0" disallow="pedestrian tram rail_urban rail rail_electric rail_fast ship" speed="36.11" length="70.00" width="3.50" customShape="1" shape="833.03,-552.31 804.52,-527.30 780.40,-506.16"/>
    </edge>
    <edge id="72114" from="25" to="57" priority="3" type="highway.residential" spreadType="center" length="70.01" shape="778.09,-508.79 845.93,-567.18">
        <lane id="72114_0" index="0" disallow="pedestrian tram rail_urban rail rail_electric rail_fast ship" speed="36.11" length="70.01" width="3.50" customShape="1" shape="778.09,-508.79 802.21,-529.93 830.73,-554.94"/>
    </edge>
    <edge id="72116" from="63" to="57" priority="3" type="highway.residential" spreadType="center" length="19.74" shape="892.21,-603.15 848.20,-564.52">
        <lane id="72116_0" index="0" disallow="pedestrian tram rail_urban rail rail_electric rail_fast ship" speed="36.11" length="19.74" width="3.50" customShape="1" shape="877.03,-590.90 869.60,-584.38 862.19,-577.88"/>
    </edge>
    <edge id="72117" from="57" to="63" priority="3" type="highway.residential" spreadType="center" length="19.75" shape="845.89,-567.15 889.91,-605.78">
        <lane id="72117_0" index="0" disallow="pedestrian tram rail_urban rail rail_electric rail_fast ship" speed="36.11" length="19.75" width="3.50" customShape="1" shape="859.88,-580.51 867.30,-587.02 874.73,-593.53"/>
    </edge>
    <edge id="72119" from="54" to="63" priority="3" type="highway.residential" spreadType="center" length="20.81" shape="921.81,-630.16 892.14,-603.09">
        <lane id="72119_0" index="0" disallow="pedestrian tram rail_urban rail rail_electric rail_fast ship" speed="36.11" length="20.81" width="3.50" customShape="1" shape="921.81,-630.16 913.99,-623.31 906.16,-616.45"/>
    </edge>
    <edge id="72120" from="63" to="45" priority="3" type="highway.residential" spreadType="center" length="20.80" shape="889.79,-605.67 919.50,-632.79">
        <lane id="72120_0" index="0" disallow="pedestrian tram rail_urban rail rail_electric rail_fast ship" speed="36.11" length="20.80" width="3.50" customShape="1" shape="903.86,-619.08 911.68,-625.94 919.50,-632.79"/>
    </edge>
    <edge id="72183" from="66" to="58" priority="3" type="highway.residential" spreadType="center" length="69.52">
        <lane id="72183_0" index="0" disallow="pedestrian tram rail_urban rail rail_electric rail_fast ship" speed="36.11" length="69.52" width="3.50" customShape="1" shape="821.32,-479.34 846.20,-500.05 874.75,-523.81"/>
        <lane id="72183_1" index="1" disallow="pedestrian tram rail_urban rail rail_electric rail_fast ship" speed="36.11" length="69.54" width="3.50" customShape="1" shape="823.54,-476.64 848.44,-497.36 876.99,-521.13"/>
    </edge>
    <edge id="72186" from="58" to="59" priority="3" type="highway.residential" spreadType="center" length="43.19">
        <lane id="72186_0" index="0" disallow="pedestrian tram rail_urban rail rail_electric rail_fast ship" speed="36.11" length="43.19" width="3.50" customShape="1" shape="886.27,-533.41 902.38,-546.82 919.47,-561.04"/>
        <lane id="72186_1" index="1" disallow="pedestrian tram rail_urban rail rail_electric rail_fast ship" speed="36.11" length="43.21" width="3.50" customShape="1" shape="888.51,-530.71 904.62,-544.13 921.71,-558.36"/>
    </edge>
    <edge id="72257" from="62" to="35" priority="3" type="highway.residential" spreadType="center" length="5.30" shape="829.09,-593.19 809.23,-605.40">
        <lane id="72257_0" index="0" disallow="pedestrian tram rail_urban rail rail_electric rail_fast ship" speed="36.11" length="5.30" width="3.50" customShape="1" shape="812.75,-601.44 812.66,-601.53 812.55,-601.66 809.23,-605.40"/>
    </edge>
    <edge id="72258" from="56" to="62" priority="3" type="highway.residential" spreadType="center" length="5.26" shape="811.82,-607.68 830.88,-596.13">
        <lane id="72258_0" index="0" disallow="pedestrian tram rail_urban rail rail_electric rail_fast ship" speed="36.11" length="5.26" width="3.40" customShape="1" shape="811.82,-607.68 815.18,-603.97 815.26,-603.87 815.35,-603.78"/>
    </edge>
    <edge id="72260" from="57" to="62" priority="3" type="highway.residential" spreadType="center" length="0.27" shape="845.54,-564.94 828.35,-593.94">
        <lane id="72260_0" index="0" disallow="pedestrian tram rail_urban rail rail_electric rail_fast ship" speed="36.11" length="0.27" width="3.50" customShape="1" shape="834.54,-577.21 834.45,-577.30 834.36,-577.41"/>
    </edge>
    <edge id="72261" from="62" to="57" priority="3" type="highway.residential" spreadType="center" length="0.25" shape="831.35,-595.72 848.55,-566.73">