<routes>
	<vehicle depart="0.1" departLane="0" departPos="9.968653930517206" departSpeed="0.51268796" id="33" type="passenger">
		<route edges=":62_3 72261"/>
	</vehicle>
	<vehicle depart="0.1" departLane="0" departPos="9.580721146197236" departSpeed="1.7360895" id="36" type="passenger">
		<route edges=":62_1 71999"/>
	</vehicle>
	<vehicle depart="0.1" departLane="0" departPos="27.528985409726953" departSpeed="1.2260543" id="38" type="passenger">
		<route edges=":57_1 72260"/>
	</vehicle>
	<vehicle depart="0.1" departLane="0" departPos="25.441146469604853" departSpeed="1.3936091" id="311" type="passenger">
		<route edges=":57_9 72260 71999"/>
	</vehicle>
	<vehicle depart="0.1" departLane="0" departPos="8.411367425067935" departSpeed="0.79119441" id="313" type="passenger">
		<route edges="72263 72260"/>
	</vehicle>
	<vehicle depart="0.1" departLane="0" departPos="6.863486520069669" departSpeed="2.6934957" id="314" type="passenger">
		<route edges=":57_1 72260"/>
	</vehicle>
	<vehicle depart="0.1" departLane="0" departPos="7.795229786272857" departSpeed="8.691525" id="317" type="passenger">
		<route edges=":57_7 72264 72186"/>
	</vehicle>
	<vehicle depart="0.1" departLane="0" departPos="16.235026245678377" departSpeed="2.1111862" id="319" type="passenger">
		<route edges=":62_1 71999"/>
	</vehicle>
	<vehicle depart="0.1" departLane="0" departPos="11.033834209508907" departSpeed="0.98419832" id="327" type="passenger">
		<route edges=":57_9 72260"/>
	</vehicle>
	<vehicle depart="0.1" departLane="0" departPos="12.176906055134932" departSpeed="2.3021936" id="324" type="motorcycle">
		<route edges=":57_4 72113"/>
	</vehicle>
</routes>
