<routes>
	<vehicle depart="0.1" departLane="0" departPos="16.448752479306865" departSpeed="6.8782059" id="314" type="bicycle">
		<route edges="418 1276"/>
	</vehicle>
	<vehicle depart="0.1" departLane="0" departPos="1.0" departSpeed="1.6711386" id="335" type="bicycle">
		<route edges="428 430"/>
	</vehicle>
	<vehicle depart="0.1" departLane="0" departPos="16.608363690898365" departSpeed="3.992959" id="333" type="bus">
		<route edges="428 430 418"/>
	</vehicle>
	<vehicle depart="0.1" departLane="0" departPos="81.28761435975657" departSpeed="0.0" id="33" type="passenger">
		<route edges="418 106"/>
	</vehicle>
	<vehicle depart="0.1" departLane="0" departPos="35.86380648300933" departSpeed="0.0" id="35" type="passenger">
		<route edges="107 110"/>
	</vehicle>
	<vehicle depart="0.1" departLane="0" departPos="28.503349344112074" departSpeed="0.0" id="36" type="passenger">
		<route edges="107 110"/>
	</vehicle>
	<vehicle depart="0.1" departLane="0" departPos="64.63725544264523" departSpeed="0.035199763" id="39" type="passenger">
		<route edges="418 106"/>
	</vehicle>
	<vehicle depart="0.1" departLane="0" departPos="49.01466448592148" departSpeed="2.8595955" id="313" type="passenger">
		<route edges="418 106"/>
	</vehicle>
	<vehicle depart="0.1" departLane="0" departPos="21.404222796005076" departSpeed="1.0507686e-05" id="316" type="passenger">
		<route edges="107 110"/>
	</vehicle>
	<vehicle depart="0.1" departLane="0" departPos="81.4080542591306" departSpeed="0.0" id="317" type="passenger">
		<route edges="417 420"/>
	</vehicle>
	<vehicle depart="0.1" departLane="0" departPos="35.50346248340929" departSpeed="5.0174966" id="318" type="passenger">
		<route edges="418 106"/>
	</vehicle>
	<vehicle depart="0.1" departLane="0" departPos="14.555067110700335" departSpeed="0.00014622395" id="319" type="passenger">
		<route edges="107 110"/>
	</vehicle>
	<vehicle depart="0.1" departLane="0" departPos="13.193690119868883" departSpeed="9.5282821" id="320" type="passenger">
		<route edges="420 422"/>
	</vehicle>
	<vehicle depart="0.1" departLane="0" departPos="7.404493323157394" departSpeed="8.7497345" id="322" type="passenger">
		<route edges=":27_2 418 106"/>
	</vehicle>
	<vehicle depart="0.1" departLane="0" departPos="7.478865837278277" departSpeed="0.00097971803" id="324" type="passenger">
		<route edges="107 110"/>
	</vehicle>
	<vehicle depart="0.1" departLane="0" departPos="53.18608485323011" departSpeed="7.9781727" id="327" type="passenger">
		<route edges="428 430 418 106"/>
	</vehicle>
	<vehicle depart="0.1" departLane="0" departPos="49.464411993187625" departSpeed="12.994971" id="328" type="passenger">
		<route edges="109 417 420 422"/>
	</vehicle>
	<vehicle depart="0.1" departLane="0" departPos="39.62889430164762" departSpeed="7.5755142" id="329" type="passenger">
		<route edges="428 430 418 106"/>
	</vehicle>
	<vehicle depart="0.1" departLane="0" departPos="35.11845195307198" departSpeed="11.510289" id="331" type="passenger">
		<route edges="109 417 420 422"/>
	</vehicle>
	<vehicle depart="0.1" departLane="0" departPos="21.279072417824768" departSpeed="9.9680354" id="332" type="passenger">
		<route edges="109 417 420 422"/>
	</vehicle>
	<vehicle depart="0.1" departLane="0" departPos="9.969600757921206" departSpeed="5.9168155" id="334" type="passenger">
		<route edges="109 106"/>
	</vehicle>
	<vehicle depart="0.1" departLane="0" departPos="57.04237631884066" departSpeed="0.29998251" id="311" type="motorcycle">
		<route edges="418 106"/>
	</vehicle>
	<vehicle depart="0.1" departLane="0" departPos="26.20714539221454" departSpeed="7.1003451" id="330" type="motorcycle">
		<route edges="428 430 418 106"/>
	</vehicle>
	<vehicle depart="0.1" departLane="0" departPos="74.27273037076365" departSpeed="0.00021177849" id="37" type="truck">
		<route edges="418 106"/>
	</vehicle>
</routes>
