<routes>
	<vehicle depart="0.1" departLane="0" departPos="12.073511703187624" departSpeed="0.026136855" id="31" type="passenger">
		<route edges=":29_3 7629"/>
	</vehicle>
	<vehicle depart="0.1" departLane="1" departPos="16.10254843021103" departSpeed="1.3852066" id="310" type="passenger">
		<route edges="7570 8386"/>
	</vehicle>
	<vehicle depart="0.1" departLane="1" departPos="8.602750540109028" departSpeed="0.75034698" id="311" type="passenger">
		<route edges="7570 8386"/>
	</vehicle>
	<vehicle depart="0.1" departLane="0" departPos="6.480519375902081" departSpeed="0.0096879573" id="331" type="passenger">
		<route edges="7570 7629"/>
	</vehicle>
	<vehicle depart="0.1" departLane="0" departPos="22.830455629461294" departSpeed="0.067625445" id="333" type="passenger">
		<route edges="7948 7570"/>
	</vehicle>
	<vehicle depart="0.1" departLane="0" departPos="21.09189387964219" departSpeed="2.8662458" id="344" type="passenger">
		<route edges="7947 7570 8386"/>
	</vehicle>
	<vehicle depart="0.1" departLane="0" departPos="12.289701923345596" departSpeed="2.6882822" id="346" type="passenger">
		<route edges="7947 7570"/>
	</vehicle>
	<vehicle depart="0.1" departLane="0" departPos="15.24768298785808" departSpeed="0.22691079" id="338" type="motorcycle">
		<route edges="7948 7570"/>
	</vehicle>
	<vehicle depart="0.1" departLane="0" departPos="16.489957691306955" departSpeed="0.0" id="326" type="truck">
		<route edges="7570 7629"/>
	</vehicle>
</routes>
