<routes>
	<vehicle depart="0.1" departLane="0" departPos="35.62421558996787" departSpeed="16.834445" id="37" type="passenger">
		<route edges="41272 41269 41235"/>
	</vehicle>
	<vehicle depart="0.1" departLane="0" departPos="22.020022165517098" departSpeed="9.3430653" id="339" type="passenger">
		<route edges="41264 41267"/>
	</vehicle>
</routes>
