<routes>
	<vehicle depart="0.1" departLane="0" departPos="9.491347232141457" departSpeed="0.0" id="39" type="passenger">
		<route edges="66491 66582"/>
	</vehicle>
	<vehicle depart="0.1" departLane="0" departPos="16.904924943403593" departSpeed="0.0" id="316" type="passenger">
		<route edges="66491 66582"/>
	</vehicle>
	<vehicle depart="0.1" departLane="0" departPos="72.49950274316463" departSpeed="4.8991129e-05" id="322" type="passenger">
		<route edges="66549 66491"/>
	</vehicle>
	<vehicle depart="0.1" departLane="0" departPos="59.481862599711526" departSpeed="0.0098692778" id="333" type="passenger">
		<route edges="66549 66491"/>
	</vehicle>
	<vehicle depart="0.1" departLane="0" departPos="2.5" departSpeed="14.67835" id="340" type="passenger">
		<route edges="67220 66548"/>
	</vehicle>
	<vehicle depart="0.1" departLane="0" departPos="26.47567884187453" departSpeed="6.2580499" id="343" type="passenger">
		<route edges="66581 67220 66548"/>
	</vehicle>
	<vehicle depart="0.1" departLane="0" departPos="2.5" departSpeed="6.4365857" id="347" type="passenger">
		<route edges="66581 67220"/>
	</vehicle>
	<vehicle depart="0.1" departLane="0" departPos="64.49114538749573" departSpeed="0.00086731385" id="328" type="motorcycle">
		<route edges="66549 66491"/>
	</vehicle>
</routes>
