<!-- generated on Tue Feb  9 22:06:20 2021 by Eclipse SUMO netconvert Version 1.8.0
<configuration xmlns:xsi="http://www.w3.org/2001/XMLSchema-instance" xsi:noNamespaceSchemaLocation="http://sumo.dlr.de/xsd/netconvertConfiguration.xsd">

    <input>
        <node-files value="./converted_scenarios/scenario-factory/GRC_Perama-3_1_I-1-1/GRC_Perama-3_1_I-1-1.nod.xml"/>
        <edge-files value="./converted_scenarios/scenario-factory/GRC_Perama-3_1_I-1-1/GRC_Perama-3_1_I-1-1.edg.xml"/>
        <connection-files value="./converted_scenarios/scenario-factory/GRC_Perama-3_1_I-1-1/GRC_Perama-3_1_I-1-1.con.xml"/>
        <tllogic-files value="./converted_scenarios/scenario-factory/GRC_Perama-3_1_I-1-1/GRC_Perama-3_1_I-1-1.tll.xml"/>
        <type-files value="/home/zen/commonroad-interactive-benchmarks/install/commonroad-map-tool/crmapconverter/sumo_map/templates/DEU.typ.xml"/>
    </input>

    <output>
        <output-file value="./converted_scenarios/scenario-factory/GRC_Perama-3_1_I-1-1/GRC_Perama-3_1_I-1-1.net.xml"/>
    </output>

    <processing>
        <geometry.remove.keep-edges.explicit value="true"/>
        <geometry.avoid-overlap value="true"/>
        <offset.disable-normalization value="true"/>
    </processing>

    <junctions>
        <no-turnarounds value="true"/>
        <junctions.internal-link-detail value="20"/>
    </junctions>

    <report>
        <aggregate-warnings value="5"/>
    </report>

    <random_number>
        <seed value="1234"/>
    </random_number>

</configuration>
--><net xmlns:xsi="http://www.w3.org/2001/XMLSchema-instance" version="1.6" junctionCornerDetail="5" junctionLinkDetail="20" limitTurnSpeed="5.50" xsi:noNamespaceSchemaLocation="http://sumo.dlr.de/xsd/net_file.xsd">

    <location netOffset="0.00,0.00" convBoundary="-813.28,-630.51,-577.42,-543.58" origBoundary="-813.28,-632.35,-577.42,-543.58" projParameter="!"/>

    <type id="highway.bridleway" priority="1" speed="2.78" allow="pedestrian" oneway="1" width="2.00"/>
    <type id="highway.bus_guideway" priority="1" speed="27.78" allow="bus" oneway="1"/>
    <type id="highway.cycleway" priority="1" speed="8.33" allow="bicycle" oneway="0" width="1.00"/>
    <type id="highway.footway" priority="1" speed="2.78" allow="pedestrian" oneway="1" width="2.00"/>
    <type id="highway.ford" priority="1" speed="2.78" allow="army" oneway="0"/>
    <type id="highway.living_street" priority="2" speed="2.78" disallow="tram rail_urban rail rail_electric rail_fast ship" oneway="0"/>
    <type id="highway.motorway" priority="14" speed="39.44" allow="private emergency authority army vip passenger hov taxi bus coach delivery truck trailer motorcycle evehicle custom1 custom2" oneway="1"/>
    <type id="highway.motorway_link" priority="9" speed="22.22" allow="private emergency authority army vip passenger hov taxi bus coach delivery truck trailer motorcycle evehicle custom1 custom2" oneway="1"/>
    <type id="highway.path" priority="1" speed="2.78" allow="pedestrian bicycle" oneway="0" width="2.00"/>
    <type id="highway.pedestrian" priority="1" speed="2.78" allow="pedestrian" oneway="1" width="2.00"/>
    <type id="highway.primary" priority="12" speed="27.78" disallow="pedestrian tram rail_urban rail rail_electric rail_fast ship" oneway="0"/>
    <type id="highway.primary_link" priority="7" speed="22.22" disallow="pedestrian tram rail_urban rail rail_electric rail_fast ship" oneway="0"/>
    <type id="highway.raceway" priority="15" speed="83.33" allow="vip" oneway="0"/>
    <type id="highway.residential" priority="3" speed="13.89" disallow="pedestrian tram rail_urban rail rail_electric rail_fast ship" oneway="0"/>
    <type id="highway.secondary" priority="11" speed="27.78" disallow="pedestrian tram rail_urban rail rail_electric rail_fast ship" oneway="0"/>
    <type id="highway.secondary_link" priority="6" speed="22.22" disallow="pedestrian tram rail_urban rail rail_electric rail_fast ship" oneway="0"/>
    <type id="highway.service" priority="1" speed="5.56" allow="pedestrian delivery bicycle" oneway="0"/>
    <type id="highway.stairs" priority="1" speed="1.39" allow="pedestrian" oneway="1" width="2.00"/>
    <type id="highway.step" priority="1" speed="1.39" allow="pedestrian" oneway="1" width="2.00"/>
    <type id="highway.steps" priority="1" speed="1.39" allow="pedestrian" oneway="1" width="2.00"/>
    <type id="highway.tertiary" priority="10" speed="22.22" disallow="pedestrian tram rail_urban rail rail_electric rail_fast ship" oneway="0"/>
    <type id="highway.tertiary_link" priority="5" speed="22.22" disallow="pedestrian tram rail_urban rail rail_electric rail_fast ship" oneway="0"/>
    <type id="highway.track" priority="1" speed="5.56" allow="pedestrian motorcycle moped bicycle" oneway="0"/>
    <type id="highway.trunk" priority="13" speed="27.78" disallow="pedestrian bicycle tram rail_urban rail rail_electric rail_fast ship" oneway="0"/>
    <type id="highway.trunk_link" priority="8" speed="22.22" disallow="pedestrian bicycle tram rail_urban rail rail_electric rail_fast ship" oneway="0"/>
    <type id="highway.unclassified" priority="4" speed="13.89" disallow="pedestrian tram rail_urban rail rail_electric rail_fast ship" oneway="0"/>
    <type id="highway.unsurfaced" priority="1" speed="8.33" disallow="tram rail_urban rail rail_electric rail_fast ship" oneway="0"/>
    <type id="railway.highspeed" priority="21" speed="69.44" allow="rail_fast" oneway="1"/>
    <type id="railway.light_rail" priority="19" speed="27.78" allow="rail_urban" oneway="1"/>
    <type id="railway.preserved" priority="16" speed="27.78" allow="rail" oneway="1"/>
    <type id="railway.rail" priority="20" speed="44.44" allow="rail" oneway="1"/>
    <type id="railway.subway" priority="18" speed="27.78" allow="rail_urban" oneway="1"/>
    <type id="railway.tram" priority="17" speed="13.89" allow="tram" oneway="1"/>

    <edge id=":26_0" function="internal">
        <lane id=":26_0_0" index="0" disallow="pedestrian tram rail_urban rail rail_electric rail_fast ship" speed="36.11" length="3.15" width="3.50" shape="-745.58,-627.57 -748.60,-626.66"/>
    </edge>
    <edge id=":30_0" function="internal">
        <lane id=":30_0_0" index="0" disallow="pedestrian tram rail_urban rail rail_electric rail_fast ship" speed="36.11" length="3.02" width="3.48" shape="-749.52,-630.04 -746.62,-630.90"/>
    </edge>
    <edge id=":35_0" function="internal">
        <lane id=":35_0_0" index="0" disallow="pedestrian tram rail_urban rail rail_electric rail_fast ship" speed="12.06" length="34.78" width="3.50" shape="-654.57,-564.92 -656.91,-571.98 -658.32,-575.12 -659.41,-577.08 -660.67,-578.92 -662.09,-580.58 -663.72,-582.03 -664.56,-582.62 -665.47,-583.16 -666.41,-583.62 -667.39,-583.99 -668.39,-584.28 -669.39,-584.47 -671.56,-584.64 -673.72,-584.49 -675.89,-584.08 -678.07,-583.45"/>
    </edge>
    <edge id=":35_1" function="internal">
        <lane id=":35_1_0" index="0" disallow="pedestrian tram rail_urban rail rail_electric rail_fast ship" speed="12.23" length="40.82" width="3.50" shape="-654.57,-564.92 -656.49,-571.32 -657.04,-573.99 -657.37,-576.74 -657.39,-579.52 -657.25,-580.97 -656.98,-582.40 -656.57,-583.82 -656.01,-585.20 -655.29,-586.51 -654.42,-587.74 -653.41,-588.85 -652.29,-589.82 -651.09,-590.67 -649.83,-591.39 -648.53,-592.00 -647.18,-592.51 -644.52,-593.25 -641.82,-593.73 -639.14,-594.00"/>
    </edge>
    <edge id=":35_2" function="internal">
        <lane id=":35_2_0" index="0" disallow="pedestrian tram rail_urban rail rail_electric rail_fast ship" speed="10.55" length="32.89" width="3.50" shape="-671.25,-588.55 -650.52,-563.01"/>
    </edge>
    <edge id=":35_3" function="internal">
        <lane id=":35_3_0" index="0" disallow="pedestrian tram rail_urban rail rail_electric rail_fast ship" speed="36.11" length="39.92" width="3.50" shape="-638.89,-590.51 -641.95,-590.28 -650.12,-589.47 -658.23,-588.30 -665.26,-586.95 -672.20,-585.24 -678.07,-583.45"/>
    </edge>
    <edge id=":35_4" function="internal">
        <lane id=":35_4_0" index="0" disallow="pedestrian tram rail_urban rail rail_electric rail_fast ship" speed="36.11" length="8.35" width="3.50" shape="-679.29,-586.73 -673.16,-588.61 -671.28,-589.07"/>
    </edge>
    <edge id=":35_5" function="internal">
        <lane id=":35_5_0" index="0" disallow="pedestrian tram rail_urban rail rail_electric rail_fast ship" speed="12.26" length="16.21" width="3.50" shape="-679.29,-586.73 -678.34,-587.06 -677.42,-587.35 -676.50,-587.61 -675.60,-587.82 -674.71,-587.99 -673.83,-588.12 -672.97,-588.22 -672.12,-588.27 -671.28,-588.29 -670.46,-588.26 -669.64,-588.20 -668.85,-588.09 -668.06,-587.95 -667.29,-587.76 -666.53,-587.54 -665.79,-587.28 -665.06,-586.98 -664.34,-586.64 -663.63,-586.25"/>
    </edge>
    <edge id=":37_0" function="internal">
        <lane id=":37_0_0" index="0" disallow="pedestrian tram rail_urban rail rail_electric rail_fast ship" speed="14.66" length="30.08" width="3.49" shape="-723.82,-601.34 -725.16,-606.35 -727.47,-616.36 -728.65,-620.30 -729.75,-623.17 -734.77,-628.65"/>
    </edge>
    <edge id=":37_1" function="internal">
        <lane id=":37_1_0" index="0" disallow="pedestrian tram rail_urban rail rail_electric rail_fast ship" speed="11.79" length="34.67" width="3.50" shape="-723.82,-601.34 -724.82,-605.25 -725.24,-607.88 -725.41,-610.54 -725.27,-613.20 -725.06,-614.51 -724.74,-615.81 -724.32,-617.07 -723.78,-618.28 -723.13,-619.45 -722.37,-620.54 -721.51,-621.56 -720.57,-622.49 -719.54,-623.34 -717.32,-624.80 -714.92,-625.96 -712.42,-626.87 -709.83,-627.57"/>
    </edge>
    <edge id=":37_2" function="internal">
        <lane id=":37_2_0" index="0" disallow="pedestrian tram rail_urban rail rail_electric rail_fast ship" speed="10.76" length="28.68" width="3.50" shape="-709.18,-624.13 -711.27,-623.56 -713.40,-622.78 -715.41,-621.81 -717.26,-620.59 -718.05,-619.92 -718.81,-619.17 -719.48,-618.36 -720.08,-617.49 -720.58,-616.57 -721.00,-615.61 -721.34,-614.60 -721.58,-613.56 -721.75,-612.51 -721.86,-610.28 -721.71,-608.03 -721.35,-605.79 -720.47,-602.36"/>
    </edge>
    <edge id=":37_3" function="internal">
        <lane id=":37_3_0" index="0" disallow="pedestrian tram rail_urban rail rail_electric rail_fast ship" speed="32.19" length="27.74" width="3.49" shape="-709.18,-624.13 -712.39,-623.44 -716.87,-622.69 -720.31,-622.35 -722.68,-622.31 -725.07,-622.51 -726.33,-622.75 -727.59,-623.15 -728.84,-623.75 -730.02,-624.64 -734.77,-628.65"/>
    </edge>
    <edge id=":37_4" function="internal">
        <lane id=":37_4_0" index="0" disallow="pedestrian tram rail_urban rail rail_electric rail_fast ship" speed="18.86" length="23.78" width="3.50" shape="-731.43,-631.08 -727.34,-626.84 -726.49,-626.33 -725.55,-626.01 -724.57,-625.83 -723.58,-625.73 -721.60,-625.71 -719.62,-625.84 -716.66,-626.22 -712.76,-626.93 -709.83,-627.57"/>
    </edge>
    <edge id=":37_5" function="internal">
        <lane id=":37_5_0" index="0" disallow="pedestrian tram rail_urban rail rail_electric rail_fast ship" speed="17.59" length="31.19" width="3.50" shape="-731.43,-631.08 -726.58,-624.64 -725.41,-621.61 -724.18,-617.51 -721.81,-607.35 -720.47,-602.36"/>
    </edge>
    <edge id=":38_0" function="internal">
        <lane id=":38_0_0" index="0" disallow="pedestrian tram rail_urban rail rail_electric rail_fast ship" speed="10.59" length="29.44" width="3.50" shape="-713.00,-556.81 -713.73,-560.12 -714.44,-562.27 -715.36,-564.34 -715.92,-565.32 -716.55,-566.26 -717.26,-567.14 -718.05,-567.95 -718.93,-568.68 -719.87,-569.30 -720.88,-569.81 -721.94,-570.20 -723.04,-570.48 -724.16,-570.65 -725.29,-570.72 -727.55,-570.61 -729.78,-570.23 -731.97,-569.64 -734.11,-568.88"/>
    </edge>
    <edge id=":38_1" function="internal">
        <lane id=":38_1_0" index="0" disallow="pedestrian tram rail_urban rail rail_electric rail_fast ship" speed="36.11" length="40.16" width="3.50" shape="-713.00,-556.81 -714.48,-564.91 -716.84,-576.00 -719.32,-585.99 -722.15,-595.89"/>
    </edge>
    <edge id=":38_2" function="internal">
        <lane id=":38_2_0" index="0" disallow="pedestrian tram rail_urban rail rail_electric rail_fast ship" speed="12.80" length="33.84" width="3.50" shape="-713.00,-556.81 -713.18,-558.05 -713.36,-560.53 -713.26,-563.06 -712.83,-565.58 -712.02,-568.04 -710.86,-570.34 -709.37,-572.44 -707.63,-574.30 -705.69,-575.91 -703.63,-577.29 -701.46,-578.49 -698.14,-579.95 -694.72,-581.13"/>
    </edge>
    <edge id=":38_3" function="internal">
        <lane id=":38_3_0" index="0" disallow="pedestrian tram rail_urban rail rail_electric rail_fast ship" speed="11.83" length="28.77" width="3.50" shape="-693.65,-577.80 -696.72,-576.75 -699.65,-575.47 -701.52,-574.45 -703.30,-573.28 -704.95,-571.94 -706.43,-570.41 -707.69,-568.69 -708.68,-566.81 -709.37,-564.79 -709.76,-562.70 -709.85,-560.57 -709.70,-558.45 -709.55,-557.42"/>
    </edge>
    <edge id=":38_4" function="internal">
        <lane id=":38_4_0" index="0" disallow="pedestrian tram rail_urban rail rail_electric rail_fast ship" speed="36.11" length="41.50" width="3.50" shape="-693.65,-577.79 -698.70,-576.44 -704.79,-575.20 -720.13,-572.69 -726.21,-571.38 -731.18,-569.93 -734.11,-568.88"/>
    </edge>
    <edge id=":38_5" function="internal">
        <lane id=":38_5_0" index="0" disallow="pedestrian tram rail_urban rail rail_electric rail_fast ship" speed="12.86" length="38.55" width="3.50" shape="-693.65,-577.79 -696.14,-577.14 -698.65,-576.70 -701.22,-576.52 -703.82,-576.64 -706.41,-577.12 -708.91,-577.99 -711.25,-579.23 -713.37,-580.80 -715.23,-582.62 -716.84,-584.62 -718.24,-586.75 -719.44,-588.97 -720.94,-592.38 -722.15,-595.89"/>
    </edge>
    <edge id=":38_6" function="internal">
        <lane id=":38_6_0" index="0" disallow="pedestrian tram rail_urban rail rail_electric rail_fast ship" speed="11.91" length="32.93" width="3.50" shape="-718.80,-596.92 -717.73,-593.79 -716.41,-590.77 -715.38,-588.84 -714.19,-587.00 -712.82,-585.28 -711.27,-583.72 -709.52,-582.39 -707.60,-581.34 -705.54,-580.59 -703.39,-580.17 -701.19,-580.05 -699.00,-580.20 -696.84,-580.57 -694.72,-581.13"/>
    </edge>
    <edge id=":38_7" function="internal">
        <lane id=":38_7_0" index="0" disallow="pedestrian tram rail_urban rail rail_electric rail_fast ship" speed="36.11" length="40.59" width="3.50" shape="-718.80,-596.92 -715.94,-586.90 -713.43,-576.79 -711.05,-565.59 -709.55,-557.42"/>
    </edge>
    <edge id=":38_8" function="internal">
        <lane id=":38_8_0" index="0" disallow="pedestrian tram rail_urban rail rail_electric rail_fast ship" speed="12.85" length="36.04" width="3.50" shape="-718.80,-596.92 -718.14,-594.42 -717.68,-591.89 -717.47,-589.32 -717.56,-586.75 -717.99,-584.22 -718.78,-581.77 -719.93,-579.47 -721.40,-577.36 -723.14,-575.46 -725.09,-573.78 -727.20,-572.31 -730.57,-570.43 -734.11,-568.88"/>
    </edge>
    <edge id=":38_9" function="internal">
        <lane id=":38_9_0" index="0" disallow="pedestrian tram rail_urban rail rail_electric rail_fast ship" speed="11.89" length="30.72" width="3.50" shape="-735.37,-572.15 -732.24,-573.51 -729.27,-575.16 -727.45,-576.42 -725.78,-577.85 -724.31,-579.43 -723.07,-581.17 -722.12,-583.06 -721.45,-585.08 -721.09,-587.18 -721.00,-589.34 -721.18,-591.53 -721.57,-593.72 -722.15,-595.89"/>
    </edge>
    <edge id=":38_10" function="internal">
        <lane id=":38_10_0" index="0" disallow="pedestrian tram rail_urban rail rail_electric rail_fast ship" speed="36.11" length="41.70" width="3.50" shape="-735.37,-572.15 -732.35,-573.23 -727.25,-574.71 -721.05,-576.06 -705.65,-578.59 -699.63,-579.82 -694.72,-581.13"/>
    </edge>
    <edge id=":38_11" function="internal">
        <lane id=":38_11_0" index="0" disallow="pedestrian tram rail_urban rail rail_electric rail_fast ship" speed="11.63" length="35.78" width="3.50" shape="-735.37,-572.15 -732.88,-573.02 -730.31,-573.72 -727.65,-574.17 -724.93,-574.31 -723.50,-574.22 -722.09,-574.01 -720.70,-573.65 -719.34,-573.15 -718.05,-572.50 -716.83,-571.70 -715.71,-570.78 -714.71,-569.75 -713.82,-568.65 -713.04,-567.49 -712.34,-566.26 -711.24,-563.81 -710.41,-561.25 -709.55,-557.42"/>
    </edge>

    <edge id="66463" from="35" to="15" priority="3" type="highway.residential" spreadType="center" length="94.12" shape="-658.42,-586.42 -577.42,-594.73">
        <lane id="66463_0" index="0" disallow="pedestrian tram rail_urban rail rail_electric rail_fast ship" speed="36.11" length="94.12" width="3.50" customShape="1" shape="-671.46,-592.03 -636.09,-594.18 -622.44,-594.74 -606.76,-594.95 -577.42,-594.73"/>
    </edge>
    <edge id="66464" from="29" to="35" priority="3" type="highway.residential" spreadType="center" length="93.91" shape="-577.42,-591.23 -658.06,-582.94">
        <lane id="66464_0" index="0" disallow="pedestrian tram rail_urban rail rail_electric rail_fast ship" speed="36.11" length="93.91" width="3.50" customShape="1" shape="-577.42,-591.23 -606.71,-591.45 -622.31,-591.24 -635.89,-590.69 -671.25,-588.55"/>
    </edge>
    <edge id="66466" from="38" to="35" priority="3" type="highway.residential" spreadType="center" length="16.42" shape="-715.49,-577.59 -658.47,-586.42">
        <lane id="66466_0" index="0" disallow="pedestrian tram rail_urban rail rail_electric rail_fast ship" speed="36.11" length="16.42" width="3.50" customShape="1" shape="-694.72,-581.13 -692.75,-581.76 -686.44,-584.09 -679.29,-586.73"/>
    </edge>
    <edge id="66467" from="35" to="38" priority="3" type="highway.residential" spreadType="center" length="16.64" shape="-657.94,-582.96 -714.96,-574.14">
        <lane id="66467_0" index="0" disallow="pedestrian tram rail_urban rail rail_electric rail_fast ship" speed="36.11" length="16.64" width="3.50" customShape="1" shape="-678.07,-583.45 -685.30,-580.78 -691.66,-578.43 -693.71,-577.78"/>
    </edge>
    <edge id="66469" from="25" to="38" priority="3" type="highway.residential" spreadType="center" length="69.99" shape="-800.63,-546.85 -715.74,-577.53">
        <lane id="66469_0" index="0" disallow="pedestrian tram rail_urban rail rail_electric rail_fast ship" speed="36.11" length="69.99" width="3.50" customShape="1" shape="-800.63,-546.85 -769.69,-558.84 -735.37,-572.15"/>
    </edge>
    <edge id="66470" from="38" to="13" priority="3" type="highway.residential" spreadType="center" length="69.99" shape="-714.55,-574.24 -799.37,-543.58">
        <lane id="66470_0" index="0" disallow="pedestrian tram rail_urban rail rail_electric rail_fast ship" speed="36.11" length="69.99" width="3.50" customShape="1" shape="-734.11,-568.88 -768.42,-555.58 -799.37,-543.58"/>
    </edge>
    <edge id="66491" from="30" to="37" priority="3" type="highway.residential" spreadType="center" length="15.54" shape="-748.08,-630.51 -719.65,-619.74">
        <lane id="66491_0" index="0" disallow="pedestrian tram rail_urban rail rail_electric rail_fast ship" speed="36.11" length="15.54" width="3.48" customShape="1" shape="-746.62,-630.90 -744.68,-631.42 -741.17,-632.10 -738.73,-632.35 -736.27,-632.35 -734.97,-632.21 -733.68,-631.95 -732.39,-631.54 -731.43,-631.08"/>
    </edge>
    <edge id="66493" from="38" to="37" priority="3" type="highway.residential" spreadType="center" length="5.74" shape="-716.90,-575.59 -722.09,-617.94">
        <lane id="66493_0" index="0" disallow="pedestrian tram rail_urban rail rail_electric rail_fast ship" speed="36.11" length="5.74" width="3.50" customShape="1" shape="-722.15,-595.89 -722.99,-598.64 -723.83,-601.38"/>
    </edge>
    <edge id="66494" from="37" to="38" priority="3" type="highway.residential" spreadType="center" length="5.70" shape="-718.62,-618.36 -713.43,-576.01">
        <lane id="66494_0" index="0" disallow="pedestrian tram rail_urban rail rail_electric rail_fast ship" speed="36.11" length="5.70" width="3.50" customShape="1" shape="-720.47,-602.36 -719.64,-599.66 -718.80,-596.91"/>
    </edge>
    <edge id="66496" from="24" to="38" priority="3" type="highway.residential" spreadType="center" length="8.33" shape="-711.59,-548.61 -716.91,-575.64">
        <lane id="66496_0" index="0" disallow="pedestrian tram rail_urban rail rail_electric rail_fast ship" speed="36.11" length="8.33" width="3.50" customShape="1" shape="-711.59,-548.61 -712.29,-552.70 -713.00,-556.82"/>
    </edge>
    <edge id="66497" from="38" to="14" priority="3" type="highway.residential" spreadType="center" length="8.34" shape="-713.48,-576.32 -708.14,-549.20">
        <lane id="66497_0" index="0" disallow="pedestrian tram rail_urban rail rail_electric rail_fast ship" speed="36.11" length="8.34" width="3.50" customShape="1" shape="-709.55,-557.42 -708.84,-553.30 -708.14,-549.20"/>
    </edge>
    <edge id="66548" from="26" to="27" priority="3" type="highway.residential" spreadType="center" length="68.42">
        <lane id="66548_0" index="0" disallow="pedestrian tram rail_urban rail rail_electric rail_fast ship" speed="36.11" length="68.42" width="3.50" customShape="1" shape="-748.60,-626.66 -753.32,-625.06 -765.04,-620.42 -783.92,-613.27 -802.18,-605.96 -812.29,-601.69"/>
    </edge>
    <edge id="66549" from="31" to="30" priority="3" type="highway.residential" spreadType="center" length="68.49">
        <lane id="66549_0" index="0" disallow="pedestrian tram rail_urban rail rail_electric rail_fast ship" speed="36.11" length="68.49" width="3.50" customShape="1" shape="-813.28,-605.07 -803.50,-609.20 -785.16,-616.55 -766.23,-623.72 -754.44,-628.38 -749.52,-630.04"/>
    </edge>
    <edge id="66581" from="23" to="37" priority="3" type="highway.residential" spreadType="center" length="28.52" shape="-681.05,-621.93 -720.19,-616.41">
        <lane id="66581_0" index="0" disallow="pedestrian tram rail_urban rail rail_electric rail_fast ship" speed="36.11" length="28.52" width="3.50" customShape="1" shape="-681.05,-621.93 -682.03,-622.09 -688.86,-623.52 -694.23,-624.62 -698.18,-625.12 -701.67,-625.20 -705.14,-624.89 -709.18,-624.14"/>
    </edge>
    <edge id="66582" from="37" to="22" priority="3" type="highway.residential" spreadType="center" length="29.75" shape="-720.67,-619.87 -680.48,-625.38">
        <lane id="66582_0" index="0" disallow="pedestrian tram rail_urban rail rail_electric rail_fast ship" speed="36.11" length="29.75" width="3.50" customShape="1" shape="-709.83,-627.57 -705.69,-628.35 -701.95,-628.69 -698.20,-628.63 -693.99,-628.13 -688.41,-627.01 -681.45,-625.54 -680.48,-625.38"/>
    </edge>
    <edge id="66621" from="28" to="35" priority="3" type="highway.residential" spreadType="center" length="5.79" shape="-652.84,-559.39 -659.92,-584.33">
        <lane id="66621_0" index="0" disallow="pedestrian tram rail_urban rail rail_electric rail_fast ship" speed="36.11" length="5.79" width="3.50" customShape="1" shape="-652.84,-559.39 -654.33,-564.16 -654.57,-564.92"/>
    </edge>
    <edge id="67220" from="37" to="26" priority="3" type="highway.residential" spreadType="center" length="10.97" shape="-720.91,-616.50 -747.10,-627.15">
        <lane id="67220_0" index="0" disallow="pedestrian tram rail_urban rail rail_electric rail_fast ship" speed="36.11" length="10.97" width="3.49" customShape="1" shape="-734.77,-628.65 -735.27,-628.77 -736.27,-628.89 -737.27,-628.93 -739.27,-628.83 -741.26,-628.56 -744.20,-627.95 -745.58,-627.57"/>
    </edge>
    <edge id="67772" from="35" to="36" priority="3" type="highway.residential" spreadType="center" length="56.82" shape="-656.57,-585.32 -652.42,-569.76">
        <lane id="67772_0" index="0" disallow="pedestrian tram rail_urban rail rail_electric rail_fast ship" speed="36.11" length="56.82" width="3.50" customShape="1" shape="-650.52,-563.01 -641.21,-590.28 -643.51,-589.87 -645.75,-589.24 -646.84,-588.82 -647.90,-588.33 -648.91,-587.74 -649.86,-587.07 -650.74,-586.30 -651.52,-585.43 -652.19,-584.48 -652.75,-583.45 -653.19,-582.37 -653.50,-581.25 -653.71,-580.10 -653.83,-578.94 -653.81,-576.61 -653.53,-574.29 -653.05,-572.01 -652.42,-569.76"/>
    </edge>
    <edge id="67799" from="35" to="36" priority="3" type="highway.residential" spreadType="center" length="20.42">
        <lane id="67799_0" index="0" disallow="pedestrian tram rail_urban rail rail_electric rail_fast ship" speed="36.11" length="20.42" width="3.50" customShape="1" shape="-663.63,-586.25 -662.84,-585.80 -661.77,-585.06 -659.81,-583.35 -658.10,-581.40 -656.61,-579.26 -655.33,-577.00 -653.72,-573.44 -652.42,-569.76"/>
    </edge>

    <junction id="13" type="dead_end" x="-799.37" y="-543.58" incLanes="66470_0" intLanes="" shape="-798.74,-541.95 -800.01,-545.21" rightOfWay="edgePriority"/>
    <junction id="14" type="dead_end" x="-708.14" y="-549.20" incLanes="66497_0" intLanes="" shape="-706.42,-549.49 -709.86,-548.90" rightOfWay="edgePriority"/>
    <junction id="15" type="dead_end" x="-577.42" y="-594.73" incLanes="66463_0" intLanes="" shape="-577.41,-596.48 -577.43,-592.98" rightOfWay="edgePriority"/>
    <junction id="22" type="dead_end" x="-680.48" y="-625.38" incLanes="66582_0" intLanes="" shape="-680.19,-627.11 -680.77,-623.66" rightOfWay="edgePriority"/>
    <junction id="23" type="dead_end" x="-681.05" y="-621.93" incLanes="" intLanes="" shape="-680.76,-623.65 -681.34,-620.20" rightOfWay="edgePriority"/>
    <junction id="24" type="dead_end" x="-711.59" y="-548.61" incLanes="" intLanes="" shape="-709.87,-548.90 -713.31,-548.31" rightOfWay="edgePriority"/>
    <junction id="25" type="dead_end" x="-800.63" y="-546.85" incLanes="" intLanes="" shape="-800.00,-545.21 -801.27,-548.48" rightOfWay="edgePriority"/>
    <junction id="26" type="priority" x="-747.10" y="-627.15" incLanes="67220_0" intLanes=":26_0_0" shape="-745.11,-625.88 -746.04,-629.25 -749.10,-628.33 -748.09,-624.98" rightOfWay="edgePriority">
        <request index="0" response="0" foes="0" cont="0"/>
    </junction>
    <junction id="27" type="dead_end" x="-812.29" y="-601.69" incLanes="66548_0" intLanes="" shape="-811.61,-600.08 -812.97,-603.30" rightOfWay="edgePriority"/>
    <junction id="28" type="dead_end" x="-652.84" y="-559.39" incLanes="" intLanes="" shape="-651.17,-559.92 -654.51,-558.87" rightOfWay="edgePriority"/>
    <junction id="29" type="dead_end" x="-577.42" y="-591.23" incLanes="" intLanes="" shape="-577.41,-592.98 -577.44,-589.48" rightOfWay="edgePriority"/>
    <junction id="30" type="priority" x="-748.08" y="-630.51" incLanes="66549_0" intLanes=":30_0_0" shape="-746.17,-629.22 -747.07,-632.58 -750.03,-631.72 -749.01,-628.36" rightOfWay="edgePriority">
        <request index="0" response="0" foes="0" cont="0"/>
    </junction>
    <junction id="31" type="dead_end" x="-813.28" y="-605.07" incLanes="" intLanes="" shape="-812.60,-603.46 -813.96,-606.68" rightOfWay="edgePriority"/>
    <junction id="35" type="priority" x="-658.20" y="-584.69" incLanes="66621_0 66464_0 66466_0" intLanes=":35_0_0 :35_1_0 :35_2_0 :35_3_0 :35_4_0 :35_5_0" shape="-656.24,-564.40 -652.90,-565.44 -648.86,-562.44 -652.17,-563.57 -671.36,-590.29 -674.60,-590.01 -675.73,-589.80 -676.83,-589.48 -678.14,-589.02 -679.89,-588.37 -677.47,-581.81 -673.94,-583.03 -670.88,-583.91 -668.28,-584.44 -666.14,-584.63 -664.47,-584.47 -663.27,-583.97 -663.97,-588.38 -662.44,-582.56 -660.56,-576.90 -658.58,-571.13 -656.98,-566.53">
        <request index="0" response="101000" foes="101000" cont="0"/>
        <request index="1" response="010100" foes="010100" cont="0"/>
        <request index="2" response="010000" foes="010010" cont="0"/>
        <request index="3" response="000000" foes="110001" cont="0"/>
        <request index="4" response="001000" foes="001110" cont="0"/>
        <request index="5" response="001000" foes="001001" cont="0"/>
    </junction>
    <junction id="36" type="dead_end" x="-652.42" y="-569.76" incLanes="67772_0 67799_0" intLanes="" shape="-650.73,-570.23 -654.10,-569.28 -650.77,-570.34 -654.06,-569.18"/>
    <junction id="37" type="priority" x="-720.36" y="-618.15" incLanes="66493_0 66581_0 66491_0" intLanes=":37_0_0 :37_1_0 :37_2_0 :37_3_0 :37_4_0 :37_5_0" shape="-725.49,-600.82 -718.80,-602.87 -719.94,-608.06 -719.97,-612.47 -718.87,-616.12 -716.66,-618.99 -713.32,-621.09 -708.86,-622.42 -710.15,-629.29 -714.12,-628.73 -717.81,-628.59 -721.24,-628.86 -724.40,-629.55 -727.28,-630.66 -729.90,-632.19 -736.82,-627.16 -734.09,-624.18 -732.33,-620.52 -730.31,-615.40 -728.03,-608.84">
        <request index="0" response="001000" foes="001000" cont="0"/>
        <request index="1" response="111000" foes="111000" cont="0"/>
        <request index="2" response="000000" foes="100000" cont="0"/>
        <request index="3" response="000000" foes="100011" cont="0"/>
        <request index="4" response="000000" foes="000010" cont="0"/>
        <request index="5" response="001100" foes="001110" cont="0"/>
    </junction>
    <junction id="38" type="priority" x="-715.17" y="-575.87" incLanes="66496_0 66467_0 66494_0 66469_0" intLanes=":38_0_0 :38_1_0 :38_2_0 :38_3_0 :38_4_0 :38_5_0 :38_6_0 :38_7_0 :38_8_0 :38_9_0 :38_10_0 :38_11_0" shape="-714.73,-556.53 -707.83,-557.71 -708.04,-561.84 -707.19,-565.54 -705.27,-568.82 -702.29,-571.68 -698.24,-574.12 -693.12,-576.13 -695.25,-582.80 -700.26,-581.80 -704.72,-582.17 -708.64,-583.92 -712.02,-587.05 -714.84,-591.55 -717.13,-597.43 -723.82,-595.38 -722.87,-590.59 -723.12,-586.28 -724.55,-582.44 -727.18,-579.08 -731.00,-576.19 -736.01,-573.78 -733.48,-567.25 -728.55,-568.66 -724.35,-568.79 -720.86,-567.65 -718.10,-565.22 -716.05,-561.51">
        <request index="0" response="000000000000" foes="000100010000" cont="0"/>
        <request index="1" response="000000000000" foes="111100110000" cont="0"/>
        <request index="2" response="000011000000" foes="110011110000" cont="0"/>
        <request index="3" response="000010000000" foes="100010000000" cont="0"/>
        <request index="4" response="000110000111" foes="100110000111" cont="0"/>
        <request index="5" response="011110000110" foes="011110000110" cont="0"/>
        <request index="6" response="000000000000" foes="010000000100" cont="0"/>
        <request index="7" response="000000000000" foes="110000111100" cont="0"/>