<routes>
	<vehicle depart="0.1" departLane="1" departPos="0" departSpeed="13.437316" id="1" type="passenger">
		<route edges="26 26 27 24"/>
	</vehicle>
	<vehicle depart="0.1" departLane="0" departPos="0" departSpeed="13.432104" id="2" type="passenger">
		<route edges="26 27 24"/>
	</vehicle>
	<vehicle depart="0.1" departLane="0" departPos="90.54626997786303" departSpeed="13.445675" id="3" type="passenger">
		<route edges="26 27 24"/>
	</vehicle>
</routes>
