<!-- generated on 2020-12-18 16:20:50.683994 by ipykernel_launcher.py v1_2_0+5214-53edc58fcd
-->
<tlLogics/>
