<routes>
	<vehicle depart="0.1" departLane="0" departPos="69.89603209387671" departSpeed="0.0" id="35" type="passenger">
		<route edges="77558 77295"/>
	</vehicle>
	<vehicle depart="0.1" departLane="0" departPos="30.822551583557757" departSpeed="0.93241002" id="36" type="passenger">
		<route edges=":37_2 77295 77491"/>
	</vehicle>
	<vehicle depart="0.1" departLane="0" departPos="24.371065413164665" departSpeed="0.017470392" id="314" type="passenger">
		<route edges="77295 77491"/>
	</vehicle>
	<vehicle depart="0.1" departLane="0" departPos="24.473933604571776" departSpeed="4.999642" id="316" type="passenger">
		<route edges=":37_1 77557"/>
	</vehicle>
	<vehicle depart="0.1" departLane="0" departPos="17.46302529728727" departSpeed="0.10637719" id="329" type="passenger">
		<route edges="77295 77491"/>
	</vehicle>
	<vehicle depart="0.1" departLane="0" departPos="2.5" departSpeed="2.5096818" id="331" type="passenger">
		<route edges=":37_0 77299"/>
	</vehicle>
	<vehicle depart="0.1" departLane="0" departPos="10.295467097124778" departSpeed="0.38430079" id="336" type="passenger">
		<route edges="77295 77491"/>
	</vehicle>
	<vehicle depart="0.1" departLane="0" departPos="18.73651828620956" departSpeed="4.7321692" id="341" type="passenger">
		<route edges="77296 77299"/>
	</vehicle>
	<vehicle depart="0.1" departLane="0" departPos="63.322539252171644" departSpeed="0.081409795" id="343" type="passenger">
		<route edges="77298 77295"/>
	</vehicle>
	<vehicle depart="0.1" departLane="0" departPos="67.29648031754837" departSpeed="0.57095361" id="347" type="motorcycle">
		<route edges="77298 77295"/>
	</vehicle>
</routes>
