<routes>
	<vehicle depart="0.1" departLane="0" departPos="38.58574953855458" departSpeed="2.7252126" id="31" type="passenger">
		<route edges=":48_1 78005 78243"/>
	</vehicle>
	<vehicle depart="0.1" departLane="0" departPos="15.201611497787248" departSpeed="0.13033168" id="34" type="passenger">
		<route edges=":48_1 78005"/>
	</vehicle>
	<vehicle depart="0.1" departLane="0" departPos="2.5" departSpeed="13.48223" id="320" type="passenger">
		<route edges="79835"/>
	</vehicle>
	<vehicle depart="0.1" departLane="0" departPos="6.455300311782874" departSpeed="2.7895268" id="328" type="passenger">
		<route edges=":49_1 78308"/>
	</vehicle>
	<vehicle depart="0.1" departLane="0" departPos="29.632618914844816" departSpeed="11.238792" id="333" type="passenger">
		<route edges=":48_0 78311 78308"/>
	</vehicle>
	<vehicle depart="0.1" departLane="0" departPos="57.95245828776826" departSpeed="6.0385484" id="334" type="passenger">
		<route edges="79834 78308"/>
	</vehicle>
	<vehicle depart="0.1" departLane="0" departPos="58.433054770844194" departSpeed="18.095731" id="336" type="passenger">
		<route edges="80023 78311"/>
	</vehicle>
	<vehicle depart="0.1" departLane="0" departPos="25.268189803084663" departSpeed="13.695329" id="337" type="passenger">
		<route edges="79834 78308"/>
	</vehicle>
	<vehicle depart="0.1" departLane="0" departPos="1.25" departSpeed="2.5119785" id="327" type="motorcycle">
		<route edges=":49_0 78308"/>
	</vehicle>
</routes>
