<!-- generated on Tue Feb  9 22:19:01 2021 by Eclipse SUMO netconvert Version 1.8.0
<configuration xmlns:xsi="http://www.w3.org/2001/XMLSchema-instance" xsi:noNamespaceSchemaLocation="http://sumo.dlr.de/xsd/netconvertConfiguration.xsd">

    <input>
        <node-files value="./converted_scenarios/scenario-factory/ITA_Foggia-11_1_I-1-1/ITA_Foggia-11_1_I-1-1.nod.xml"/>
        <edge-files value="./converted_scenarios/scenario-factory/ITA_Foggia-11_1_I-1-1/ITA_Foggia-11_1_I-1-1.edg.xml"/>
        <connection-files value="./converted_scenarios/scenario-factory/ITA_Foggia-11_1_I-1-1/ITA_Foggia-11_1_I-1-1.con.xml"/>
        <tllogic-files value="./converted_scenarios/scenario-factory/ITA_Foggia-11_1_I-1-1/ITA_Foggia-11_1_I-1-1.tll.xml"/>
        <type-files value="/home/zen/commonroad-interactive-benchmarks/install/commonroad-map-tool/crmapconverter/sumo_map/templates/DEU.typ.xml"/>
    </input>

    <output>
        <output-file value="./converted_scenarios/scenario-factory/ITA_Foggia-11_1_I-1-1/ITA_Foggia-11_1_I-1-1.net.xml"/>
    </output>

    <processing>
        <geometry.remove.keep-edges.explicit value="true"/>
        <geometry.avoid-overlap value="true"/>
        <offset.disable-normalization value="true"/>
    </processing>

    <junctions>
        <no-turnarounds value="true"/>
        <junctions.internal-link-detail value="20"/>
    </junctions>

    <report>
        <aggregate-warnings value="5"/>
    </report>

    <random_number>
        <seed value="1234"/>
    </random_number>

</configuration>
--><net xmlns:xsi="http://www.w3.org/2001/XMLSchema-instance" version="1.6" junctionCornerDetail="5" junctionLinkDetail="20" limitTurnSpeed="5.50" xsi:noNamespaceSchemaLocation="http://sumo.dlr.de/xsd/net_file.xsd">

    <location netOffset="0.00,0.00" convBoundary="-94.12,-976.59,109.16,-844.26" origBoundary="-94.12,-991.94,109.16,-844.06" projParameter="!"/>

    <type id="highway.bridleway" priority="1" speed="2.78" allow="pedestrian" oneway="1" width="2.00"/>
    <type id="highway.bus_guideway" priority="1" speed="27.78" allow="bus" oneway="1"/>
    <type id="highway.cycleway" priority="1" speed="8.33" allow="bicycle" oneway="0" width="1.00"/>
    <type id="highway.footway" priority="1" speed="2.78" allow="pedestrian" oneway="1" width="2.00"/>
    <type id="highway.ford" priority="1" speed="2.78" allow="army" oneway="0"/>
    <type id="highway.living_street" priority="2" speed="2.78" disallow="tram rail_urban rail rail_electric rail_fast ship" oneway="0"/>
    <type id="highway.motorway" priority="14" speed="39.44" allow="private emergency authority army vip passenger hov taxi bus coach delivery truck trailer motorcycle evehicle custom1 custom2" oneway="1"/>
    <type id="highway.motorway_link" priority="9" speed="22.22" allow="private emergency authority army vip passenger hov taxi bus coach delivery truck trailer motorcycle evehicle custom1 custom2" oneway="1"/>
    <type id="highway.path" priority="1" speed="2.78" allow="pedestrian bicycle" oneway="0" width="2.00"/>
    <type id="highway.pedestrian" priority="1" speed="2.78" allow="pedestrian" oneway="1" width="2.00"/>
    <type id="highway.primary" priority="12" speed="27.78" disallow="pedestrian tram rail_urban rail rail_electric rail_fast ship" oneway="0"/>
    <type id="highway.primary_link" priority="7" speed="22.22" disallow="pedestrian tram rail_urban rail rail_electric rail_fast ship" oneway="0"/>
    <type id="highway.raceway" priority="15" speed="83.33" allow="vip" oneway="0"/>
    <type id="highway.residential" priority="3" speed="13.89" disallow="pedestrian tram rail_urban rail rail_electric rail_fast ship" oneway="0"/>
    <type id="highway.secondary" priority="11" speed="27.78" disallow="pedestrian tram rail_urban rail rail_electric rail_fast ship" oneway="0"/>
    <type id="highway.secondary_link" priority="6" speed="22.22" disallow="pedestrian tram rail_urban rail rail_electric rail_fast ship" oneway="0"/>
    <type id="highway.service" priority="1" speed="5.56" allow="pedestrian delivery bicycle" oneway="0"/>
    <type id="highway.stairs" priority="1" speed="1.39" allow="pedestrian" oneway="1" width="2.00"/>
    <type id="highway.step" priority="1" speed="1.39" allow="pedestrian" oneway="1" width="2.00"/>
    <type id="highway.steps" priority="1" speed="1.39" allow="pedestrian" oneway="1" width="2.00"/>
    <type id="highway.tertiary" priority="10" speed="22.22" disallow="pedestrian tram rail_urban rail rail_electric rail_fast ship" oneway="0"/>
    <type id="highway.tertiary_link" priority="5" speed="22.22" disallow="pedestrian tram rail_urban rail rail_electric rail_fast ship" oneway="0"/>
    <type id="highway.track" priority="1" speed="5.56" allow="pedestrian motorcycle moped bicycle" oneway="0"/>
    <type id="highway.trunk" priority="13" speed="27.78" disallow="pedestrian bicycle tram rail_urban rail rail_electric rail_fast ship" oneway="0"/>
    <type id="highway.trunk_link" priority="8" speed="22.22" disallow="pedestrian bicycle tram rail_urban rail rail_electric rail_fast ship" oneway="0"/>
    <type id="highway.unclassified" priority="4" speed="13.89" disallow="pedestrian tram rail_urban rail rail_electric rail_fast ship" oneway="0"/>
    <type id="highway.unsurfaced" priority="1" speed="8.33" disallow="tram rail_urban rail rail_electric rail_fast ship" oneway="0"/>
    <type id="railway.highspeed" priority="21" speed="69.44" allow="rail_fast" oneway="1"/>
    <type id="railway.light_rail" priority="19" speed="27.78" allow="rail_urban" oneway="1"/>
    <type id="railway.preserved" priority="16" speed="27.78" allow="rail" oneway="1"/>
    <type id="railway.rail" priority="20" speed="44.44" allow="rail" oneway="1"/>
    <type id="railway.subway" priority="18" speed="27.78" allow="rail_urban" oneway="1"/>
    <type id="railway.tram" priority="17" speed="13.89" allow="tram" oneway="1"/>

    <edge id=":47_0" function="internal">
        <lane id=":47_0_0" index="0" disallow="pedestrian tram rail_urban rail rail_electric rail_fast ship" speed="36.11" length="37.95" width="3.50" shape="44.00,-966.48 22.94,-974.52 8.60,-980.16"/>
    </edge>
    <edge id=":47_1" function="internal">
        <lane id=":47_1_0" index="0" disallow="pedestrian tram rail_urban rail rail_electric rail_fast ship" speed="36.11" length="37.81" width="3.50" shape="9.98,-983.38 24.24,-977.77 45.25,-969.75"/>
    </edge>
    <edge id=":47_2" function="internal">
        <lane id=":47_2_0" index="0" disallow="pedestrian tram rail_urban rail rail_electric rail_fast ship" speed="8.52" length="19.74" width="3.50" shape="23.01,-967.88 22.86,-968.96 22.46,-970.09 21.54,-971.64 20.37,-973.01 18.56,-974.61 16.09,-976.33 12.41,-978.39 8.60,-980.16"/>
    </edge>
    <edge id=":47_3" function="internal">
        <lane id=":47_3_0" index="0" disallow="pedestrian tram rail_urban rail rail_electric rail_fast ship" speed="11.31" length="21.99" width="3.50" shape="24.67,-966.48 25.38,-967.10 27.66,-968.68 30.12,-969.93 32.21,-970.67 34.38,-971.14 36.58,-971.35 39.35,-971.23 42.07,-970.74 44.72,-969.95 45.25,-969.75"/>
    </edge>
    <edge id=":48_0" function="internal">
        <lane id=":48_0_0" index="0" disallow="pedestrian tram rail_urban rail rail_electric rail_fast ship" speed="25.06" length="50.71" width="3.50" shape="40.94,-946.25 37.93,-945.64 28.87,-943.62 20.91,-941.53 14.07,-939.39 8.34,-937.25 3.73,-935.16 0.23,-933.23 -2.22,-931.59 -4.45,-929.73 -5.78,-928.33"/>
    </edge>
    <edge id=":48_1" function="internal">
        <lane id=":48_1_0" index="0" disallow="pedestrian tram rail_urban rail rail_electric rail_fast ship" speed="36.11" length="25.32" width="3.49" shape="-8.47,-930.56 -2.08,-937.82 8.64,-949.22"/>
    </edge>
    <edge id=":48_2" function="internal">
        <lane id=":48_2_0" index="0" disallow="pedestrian tram rail_urban rail rail_electric rail_fast ship" speed="25.81" length="53.11" width="3.50" shape="-8.47,-930.56 -6.96,-932.16 -4.53,-934.22 -1.90,-936.01 1.80,-938.08 6.61,-940.30 12.56,-942.56 19.64,-944.80 27.85,-946.97 37.16,-949.06 40.28,-949.68"/>
    </edge>
    <edge id=":49_0" function="internal">
        <lane id=":49_0_0" index="0" disallow="pedestrian tram rail_urban rail rail_electric rail_fast ship" speed="30.04" length="40.30" width="3.50" shape="6.51,-921.15 -2.10,-917.63 -8.69,-914.65 -14.22,-911.84 -18.70,-909.27 -22.15,-907.00 -24.62,-905.12 -26.93,-903.06 -28.34,-901.54"/>
    </edge>
    <edge id=":49_1" function="internal">
        <lane id=":49_1_0" index="0" disallow="pedestrian tram rail_urban rail rail_electric rail_fast ship" speed="36.11" length="34.82" width="3.50" shape="-5.90,-928.17 -17.12,-914.86 -28.34,-901.54"/>
    </edge>
    <edge id=":49_2" function="internal">
        <lane id=":49_2_0" index="0" disallow="pedestrian tram rail_urban rail rail_electric rail_fast ship" speed="36.11" length="34.82" width="3.50" shape="-31.01,-903.80 -19.80,-917.11 -8.58,-930.43"/>
    </edge>
    <edge id=":49_3" function="internal">
        <lane id=":49_3_0" index="0" disallow="pedestrian tram rail_urban rail rail_electric rail_fast ship" speed="30.67" length="42.04" width="3.50" shape="-31.02,-903.80 -29.47,-905.46 -27.01,-907.68 -24.39,-909.69 -20.78,-912.08 -16.12,-914.78 -10.41,-917.70 -3.61,-920.79 5.23,-924.41"/>
    </edge>
    <edge id=":50_0" function="internal">
        <lane id=":50_0_0" index="0" disallow="pedestrian tram rail_urban rail rail_electric rail_fast ship" speed="10.54" length="25.76" width="3.50" shape="-61.39,-851.77 -62.40,-852.80 -63.24,-854.04 -63.83,-855.41 -64.14,-856.84 -64.22,-858.26 -64.10,-859.62 -63.84,-860.91 -63.48,-862.15 -63.03,-863.36 -61.99,-865.57 -60.77,-867.68 -58.75,-870.64 -55.83,-874.34"/>
    </edge>
    <edge id=":50_1" function="internal">
        <lane id=":50_1_0" index="0" disallow="pedestrian tram rail_urban rail rail_electric rail_fast ship" speed="9.54" length="20.32" width="3.49" shape="-53.15,-872.09 -55.69,-868.91 -57.44,-866.42 -58.51,-864.69 -59.46,-862.89 -59.87,-861.96 -60.22,-861.01 -60.51,-860.03 -60.69,-859.03 -60.75,-858.02 -60.64,-857.01 -60.33,-856.04 -59.81,-855.17 -59.12,-854.43"/>
    </edge>
    <edge id=":50_2" function="internal">
        <lane id=":50_2_0" index="0" disallow="pedestrian tram rail_urban rail rail_electric rail_fast ship" speed="9.47" length="20.30" width="3.27" shape="-53.15,-872.09 -54.57,-870.35 -56.59,-867.66 -58.39,-864.86 -59.39,-862.95 -60.18,-860.98 -60.46,-860.04 -60.64,-859.08 -60.72,-858.15 -60.67,-857.27 -60.49,-856.47 -60.18,-855.73 -59.73,-855.05 -59.12,-854.43"/>
    </edge>
    <edge id=":50_3" function="internal">
        <lane id=":50_3_0" index="0" disallow="pedestrian tram rail_urban rail rail_electric rail_fast ship" speed="36.11" length="30.67" width="3.50" shape="-53.15,-872.09 -64.60,-858.23 -72.43,-848.24"/>
    </edge>
    <edge id=":50_4" function="internal">
        <lane id=":50_4_0" index="0" disallow="pedestrian tram rail_urban rail rail_electric rail_fast ship" speed="36.11" length="30.67" width="3.50" shape="-53.15,-872.09 -64.41,-858.47 -72.43,-848.24"/>
    </edge>
    <edge id=":50_5" function="internal">
        <lane id=":50_5_0" index="0" disallow="pedestrian tram rail_urban rail rail_electric rail_fast ship" speed="12.18" length="33.86" width="3.50" shape="-53.15,-872.09 -54.84,-870.22 -56.69,-868.47 -58.73,-866.88 -60.96,-865.52 -63.36,-864.48 -64.67,-864.08 -65.99,-863.80 -67.33,-863.64 -68.68,-863.59 -70.02,-863.66 -71.35,-863.83 -72.67,-864.12 -75.14,-864.93 -77.48,-866.02 -79.69,-867.34 -82.72,-869.58"/>
    </edge>
    <edge id=":50_6" function="internal">
        <lane id=":50_6_0" index="0" disallow="pedestrian tram rail_urban rail rail_electric rail_fast ship" speed="11.17" length="28.31" width="3.50" shape="-80.49,-872.28 -77.87,-870.34 -76.00,-869.22 -74.03,-868.30 -71.96,-867.62 -70.89,-867.39 -69.81,-867.24 -68.73,-867.19 -67.64,-867.22 -66.55,-867.36 -65.49,-867.58 -64.44,-867.89 -62.45,-868.76 -60.59,-869.89 -58.87,-871.23 -57.29,-872.73 -55.83,-874.34"/>
    </edge>
    <edge id=":50_7" function="internal">
        <lane id=":50_7_0" index="0" disallow="pedestrian tram rail_urban rail rail_electric rail_fast ship" speed="36.11" length="30.90" width="3.50" shape="-75.25,-850.31 -67.15,-860.65 -55.83,-874.34"/>
    </edge>
    <edge id=":50_8" function="internal">
        <lane id=":50_8_0" index="0" disallow="pedestrian tram rail_urban rail rail_electric rail_fast ship" speed="36.11" length="30.89" width="3.50" shape="-75.25,-850.32 -67.34,-860.41 -55.83,-874.34"/>
    </edge>
    <edge id=":50_9" function="internal">
        <lane id=":50_9_0" index="0" disallow="pedestrian tram rail_urban rail rail_electric rail_fast ship" speed="10.43" length="25.80" width="3.50" shape="-61.39,-851.77 -62.32,-852.69 -63.09,-853.72 -63.68,-854.87 -64.07,-856.10 -64.24,-857.37 -64.24,-858.66 -64.08,-859.94 -63.79,-861.20 -62.92,-863.62 -61.78,-865.94 -59.75,-869.23 -57.46,-872.35 -55.83,-874.34"/>
    </edge>

    <edge id="78005" from="48" to="47" priority="3" type="highway.residential" spreadType="center" length="23.53">
        <lane id="78005_0" index="0" disallow="pedestrian tram rail_urban rail rail_electric rail_fast ship" speed="36.11" length="23.53" width="3.49" customShape="1" shape="9.17,-948.78 20.95,-962.76 24.33,-966.77"/>
    </edge>
    <edge id="78041" from="50" to="51" priority="3" type="highway.residential" spreadType="center" length="5.22" shape="-66.49,-859.63 -55.17,-850.97">
        <lane id="78041_0" index="0" disallow="pedestrian tram rail_urban rail rail_electric rail_fast ship" speed="36.11" length="5.22" width="3.27" customShape="1" shape="-59.12,-854.43 -59.02,-854.35 -55.14,-851.05"/>
    </edge>
    <edge id="78042" from="54" to="50" priority="3" type="highway.residential" spreadType="center" length="5.07" shape="-56.98,-849.32 -67.86,-857.60">
        <lane id="78042_0" index="0" disallow="pedestrian tram rail_urban rail rail_electric rail_fast ship" speed="36.11" length="5.07" width="1.66" customShape="1" shape="-56.94,-849.39 -61.28,-851.68 -61.41,-851.78"/>
    </edge>
    <edge id="78050" from="50" to="39" priority="3" type="highway.residential" spreadType="center" length="14.77" shape="-68.39,-856.84 -94.12,-878.97">
        <lane id="78050_0" index="0" disallow="pedestrian tram rail_urban rail rail_electric rail_fast ship" speed="36.11" length="14.77" width="3.50" customShape="1" shape="-82.72,-869.58 -88.42,-874.28 -94.12,-878.97"/>
    </edge>
    <edge id="78051" from="43" to="50" priority="3" type="highway.residential" spreadType="center" length="14.80" shape="-91.91,-881.69 -66.12,-859.49">
        <lane id="78051_0" index="0" disallow="pedestrian tram rail_urban rail rail_electric rail_fast ship" speed="36.11" length="14.80" width="3.50" customShape="1" shape="-91.91,-881.69 -86.19,-876.98 -80.49,-872.28"/>
    </edge>
    <edge id="78120" from="50" to="51" priority="3" type="highway.residential" spreadType="center" length="5.27" shape="-66.43,-859.72 -55.17,-850.97">
        <lane id="78120_0" index="0" disallow="pedestrian tram rail_urban rail rail_electric rail_fast ship" speed="36.11" length="5.27" width="3.49" customShape="1" shape="-59.12,-854.43 -59.02,-854.35 -58.91,-854.25 -55.21,-850.90"/>
    </edge>
    <edge id="78121" from="54" to="50" priority="3" type="highway.residential" spreadType="center" length="5.09" shape="-56.98,-849.32 -67.78,-857.70">
        <lane id="78121_0" index="0" disallow="pedestrian tram rail_urban rail rail_electric rail_fast ship" speed="36.11" length="5.09" width="1.39" customShape="1" shape="-57.01,-849.24 -61.25,-851.65 -61.41,-851.79"/>
    </edge>
    <edge id="78123" from="53" to="50" priority="3" type="highway.residential" spreadType="center" length="4.93" shape="-78.22,-846.37 -68.61,-859.41">
        <lane id="78123_0" index="0" disallow="pedestrian tram rail_urban rail rail_electric rail_fast ship" speed="36.11" length="4.93" width="3.50" customShape="1" shape="-78.22,-846.37 -75.25,-850.31"/>
    </edge>
    <edge id="78124" from="50" to="52" priority="3" type="highway.residential" spreadType="center" length="4.98" shape="-65.81,-857.35 -75.43,-844.26">
        <lane id="78124_0" index="0" disallow="pedestrian tram rail_urban rail rail_electric rail_fast ship" speed="36.11" length="4.98" width="3.50" customShape="1" shape="-72.43,-848.24 -75.43,-844.26"/>
    </edge>
    <edge id="78243" from="47" to="25" priority="3" type="highway.residential" spreadType="center" length="70.00" shape="25.80,-970.78 -55.09,-971.28">
        <lane id="78243_0" index="0" disallow="pedestrian tram rail_urban rail rail_electric rail_fast ship" speed="36.11" length="70.00" width="3.50" customShape="1" shape="8.60,-980.16 6.73,-980.97 -1.21,-984.22 -6.45,-986.05 -10.82,-987.26 -14.79,-988.03 -18.30,-988.40 -21.83,-988.43 -25.34,-988.09 -28.80,-987.36 -32.15,-986.25 -36.34,-984.51 -40.39,-982.46 -44.28,-980.12 -47.99,-977.50 -51.89,-974.30 -55.09,-971.28"/>
    </edge>
    <edge id="78244" from="29" to="47" priority="3" type="highway.residential" spreadType="center" length="70.02" shape="-54.53,-976.59 25.86,-974.27">
        <lane id="78244_0" index="0" disallow="pedestrian tram rail_urban rail rail_electric rail_fast ship" speed="36.11" length="70.02" width="3.50" customShape="1" shape="-54.53,-976.59 -53.54,-977.50 -49.44,-980.78 -45.53,-983.47 -41.44,-985.87 -37.18,-987.97 -32.77,-989.75 -29.19,-990.87 -25.49,-991.60 -21.72,-991.94 -17.96,-991.88 -14.24,-991.48 -10.07,-990.67 -5.49,-989.42 -0.06,-987.53 8.07,-984.20 9.99,-983.37"/>
    </edge>
    <edge id="78305" from="50" to="52" priority="3" type="highway.residential" spreadType="center" length="4.98" shape="-65.81,-857.35 -75.43,-844.26">
        <lane id="78305_0" index="0" disallow="pedestrian tram rail_urban rail rail_electric rail_fast ship" speed="36.11" length="4.98" width="3.50" customShape="1" shape="-72.43,-848.24 -72.49,-848.15 -72.57,-848.05 -75.43,-844.26"/>
    </edge>
    <edge id="78306" from="53" to="50" priority="3" type="highway.residential" spreadType="center" length="5.00" shape="-78.22,-846.37 -68.61,-859.41">
        <lane id="78306_0" index="0" disallow="pedestrian tram rail_urban rail rail_electric rail_fast ship" speed="36.11" length="5.00" width="3.50" customShape="1" shape="-78.22,-846.37 -75.36,-850.16 -75.29,-850.26 -75.21,-850.36"/>
    </edge>
    <edge id="78308" from="49" to="50" priority="3" type="highway.residential" spreadType="center" length="38.52" shape="-9.08,-917.05 -66.08,-856.99">
        <lane id="78308_0" index="0" disallow="pedestrian tram rail_urban rail rail_electric rail_fast ship" speed="36.11" length="38.52" width="3.50" customShape="1" shape="-28.34,-901.54 -40.74,-886.82 -53.16,-872.08"/>
    </edge>
    <edge id="78309" from="50" to="49" priority="3" type="highway.residential" spreadType="center" length="38.54" shape="-68.62,-859.40 -11.62,-919.46">
        <lane id="78309_0" index="0" disallow="pedestrian tram rail_urban rail rail_electric rail_fast ship" speed="36.11" length="38.54" width="3.50" customShape="1" shape="-55.83,-874.34 -43.42,-889.07 -31.00,-903.82"/>
    </edge>
    <edge id="78311" from="48" to="49" priority="3" type="highway.residential" spreadType="center" length="0.20" shape="18.75,-942.21 -9.23,-916.90">
        <lane id="78311_0" index="0" disallow="pedestrian tram rail_urban rail rail_electric rail_fast ship" speed="36.11" length="0.20" width="3.50" customShape="1" shape="-5.78,-928.33 -5.90,-928.17"/>
    </edge>
    <edge id="78312" from="49" to="48" priority="3" type="highway.residential" spreadType="center" length="0.25" shape="-11.58,-919.50 16.41,-944.80">
        <lane id="78312_0" index="0" disallow="pedestrian tram rail_urban rail rail_electric rail_fast ship" speed="36.11" length="0.25" width="3.50" customShape="1" shape="-8.58,-930.43 -8.50,-930.53 -8.42,-930.62"/>
    </edge>
    <edge id="78337" from="31" to="47" priority="3" type="highway.residential" spreadType="center" length="70.03" shape="107.90,-937.97 25.09,-970.91">
        <lane id="78337_0" index="0" disallow="pedestrian tram rail_urban rail rail_electric rail_fast ship" speed="36.11" length="70.03" width="3.50" customShape="1" shape="107.90,-937.97 105.41,-939.20 87.29,-947.82 69.97,-955.78 56.61,-961.53 43.97,-966.49"/>
    </edge>
    <edge id="78338" from="47" to="26" priority="3" type="highway.residential" spreadType="center" length="70.00" shape="26.39,-974.16 109.16,-941.25">
        <lane id="78338_0" index="0" disallow="pedestrian tram rail_urban rail rail_electric rail_fast ship" speed="36.11" length="70.00" width="3.50" customShape="1" shape="45.25,-969.75 57.92,-964.77 71.36,-958.99 88.76,-951.00 106.94,-942.35 109.16,-941.25"/>
    </edge>
    <edge id="79834" from="16" to="49" priority="3" type="highway.residential" spreadType="center" length="70.04" shape="74.38,-929.01 -10.13,-916.52">
        <lane id="79834_0" index="0" disallow="pedestrian tram rail_urban rail rail_electric rail_fast ship" speed="36.11" length="70.04" width="3.50" customShape="1" shape="74.38,-929.01 73.27,-929.41 68.46,-930.75 63.58,-931.76 58.64,-932.41 53.66,-932.69 48.67,-932.60 43.70,-932.17 38.28,-931.33 32.44,-930.04 26.20,-928.28 18.64,-925.74 6.47,-921.13"/>
    </edge>
    <edge id="79835" from="49" to="14" priority="3" type="highway.residential" spreadType="center" length="70.00" shape="-10.65,-919.98 73.17,-933.07">
        <lane id="79835_0" index="0" disallow="pedestrian tram rail_urban rail rail_electric rail_fast ship" speed="36.11" length="70.00" width="3.50" customShape="1" shape="5.23,-924.41 17.58,-929.08 25.33,-931.68 31.74,-933.48 37.77,-934.80 43.38,-935.66 48.54,-936.10 53.71,-936.18 58.89,-935.90 64.03,-935.24 69.10,-934.20 73.17,-933.07"/>
    </edge>
    <edge id="80022" from="48" to="5" priority="3" type="highway.residential" spreadType="center" length="70.01" shape="17.82,-945.24 105.74,-931.01">
        <lane id="80022_0" index="0" disallow="pedestrian tram rail_urban rail rail_electric rail_fast ship" speed="36.11" length="70.01" width="3.50" customShape="1" shape="40.28,-949.68 44.34,-950.38 49.46,-950.91 54.09,-951.03 58.72,-950.80 63.31,-950.20 67.85,-949.26 72.80,-947.83 77.63,-946.06 83.27,-943.55 89.68,-940.24 99.94,-934.34 105.74,-931.01"/>
    </edge>
    <edge id="80023" from="27" to="48" priority="3" type="highway.residential" spreadType="center" length="70.07" shape="106.15,-926.74 17.25,-941.79">
        <lane id="80023_0" index="0" disallow="pedestrian tram rail_urban rail rail_electric rail_fast ship" speed="36.11" length="70.07" width="3.50" customShape="1" shape="106.15,-926.74 98.39,-931.20 88.33,-936.99 82.11,-940.22 76.67,-942.67 72.04,-944.40 67.30,-945.79 62.97,-946.71 58.59,-947.30 54.18,-947.53 49.76,-947.42 44.85,-946.91 40.87,-946.23"/>
    </edge>

    <junction id="14" type="dead_end" x="73.17" y="-933.07" incLanes="79835_0" intLanes="" shape="73.64,-934.76 72.70,-931.38" rightOfWay="edgePriority"/>
    <junction id="16" type="dead_end" x="74.38" y="-929.01" incLanes="" intLanes="" shape="74.96,-930.66 73.80,-927.36" rightOfWay="edgePriority"/>
    <junction id="25" type="dead_end" x="-55.09" y="-971.28" incLanes="78243_0" intLanes="" shape="-53.88,-970.01 -56.29,-972.55" rightOfWay="edgePriority"/>
    <junction id="26" type="dead_end" x="109.16" y="-941.25" incLanes="78338_0" intLanes="" shape="109.93,-942.82 108.38,-939.68" rightOfWay="edgePriority"/>
    <junction id="27" type="dead_end" x="106.15" y="-926.74" incLanes="" intLanes="" shape="107.02,-928.26 105.28,-925.23" rightOfWay="edgePriority"/>
    <junction id="29" type="dead_end" x="-54.53" y="-976.59" incLanes="" intLanes="" shape="-53.34,-975.30 -55.71,-977.88" rightOfWay="edgePriority"/>
    <junction id="31" type="dead_end" x="107.90" y="-937.97" incLanes="" intLanes="" shape="108.68,-939.54 107.13,-936.40" rightOfWay="edgePriority"/>
    <junction id="39" type="dead_end" x="-94.12" y="-878.97" incLanes="78050_0" intLanes="" shape="-95.24,-877.62 -93.01,-880.32" rightOfWay="edgePriority"/>
    <junction id="43" type="dead_end" x="-91.91" y="-881.69" incLanes="" intLanes="" shape="-93.02,-880.33 -90.80,-883.04" rightOfWay="edgePriority"/>
    <junction id="47" type="priority" x="25.77" y="-972.53" incLanes="78337_0 78244_0 78005_0" intLanes=":47_0_0 :47_1_0 :47_2_0 :47_3_0" shape="43.33,-964.87 45.89,-971.38 10.68,-984.98 7.91,-978.55 13.24,-976.15 17.43,-973.99 20.51,-972.09 22.46,-970.44 23.29,-969.04 22.99,-967.89 25.66,-965.64 27.24,-966.91 29.36,-967.61 32.03,-967.76 35.25,-967.35 39.01,-966.39">
        <request index="0" response="0000" foes="1100" cont="0"/>
        <request index="1" response="0000" foes="1000" cont="0"/>
        <request index="2" response="0001" foes="0001" cont="0"/>
        <request index="3" response="0011" foes="0011" cont="0"/>
    </junction>
    <junction id="48" type="priority" x="17.58" y="-943.51" incLanes="80023_0 78312_0" intLanes=":48_0_0 :48_1_0 :48_2_0" shape="41.17,-944.51 39.99,-951.41 32.08,-950.08 24.88,-948.93 18.75,-948.03 14.07,-947.46 11.20,-947.31 10.51,-947.65 7.83,-949.90 -9.82,-931.68 -4.43,-927.21 2.68,-934.72 8.97,-939.12 15.19,-941.36 22.12,-942.37 30.52,-943.11">
        <request index="0" response="000" foes="000" cont="0"/>
        <request index="1" response="000" foes="000" cont="0"/>
        <request index="2" response="000" foes="000" cont="0"/>
    </junction>
    <junction id="49" type="priority" x="-10.35" y="-918.25" incLanes="79834_0 78311_0 78309_0" intLanes=":49_0_0 :49_1_0 :49_2_0 :49_3_0" shape="7.09,-919.50 4.61,-926.04 0.31,-924.54 -2.89,-923.70 -4.97,-923.53 -5.95,-924.04 -5.81,-925.21 -4.56,-927.05 -9.92,-931.56 -32.35,-904.93 -27.00,-900.42 -21.37,-906.54 -16.63,-910.47 -12.09,-912.97 -7.07,-914.80 -0.90,-916.72">
        <request index="0" response="0010" foes="0010" cont="0"/>
        <request index="1" response="0000" foes="1001" cont="0"/>
        <request index="2" response="0000" foes="0000" cont="0"/>
        <request index="3" response="0010" foes="0010" cont="0"/>
    </junction>
    <junction id="5" type="dead_end" x="105.74" y="-931.01" incLanes="80022_0" intLanes="" shape="106.61,-932.53 104.87,-929.50" rightOfWay="edgePriority"/>
    <junction id="50" type="priority" x="-67.32" y="-858.22" incLanes="78121_0 78308_0 78051_0 78123_0 78306_0 78042_0" intLanes=":50_0_0 :50_1_0 :50_2_0 :50_3_0 :50_4_0 :50_5_0 :50_6_0 :50_7_0 :50_8_0 :50_9_0" shape="-61.95,-851.16 -57.98,-855.75 -59.00,-858.92 -58.36,-861.22 -56.95,-863.99 -54.77,-867.24 -51.82,-870.96 -57.17,-875.47 -60.57,-872.12 -64.09,-869.98 -67.73,-869.07 -71.49,-869.37 -75.37,-870.89 -79.38,-873.63 -83.83,-868.23 -80.22,-864.95 -77.57,-861.86 -75.89,-858.96 -75.18,-856.24 -75.43,-853.70 -76.65,-851.35 -71.02,-847.20 -69.32,-849.27 -67.70,-850.77 -66.15,-851.72 -64.68,-852.09 -63.28,-851.91">
        <request index="0" response="0001000000" foes="1111111100" cont="0"/>
        <request index="1" response="0000000000" foes="0000000000" cont="0"/>
        <request index="2" response="0000000001" foes="0000000001" cont="0"/>
        <request index="3" response="0000000001" foes="1000000001" cont="0"/>
        <request index="4" response="0100000001" foes="1100000001" cont="0"/>
        <request index="5" response="1110000001" foes="1110000001" cont="0"/>
        <request index="6" response="0000000000" foes="1110000001" cont="0"/>
        <request index="7" response="0001000001" foes="1101100001" cont="0"/>
        <request index="8" response="0011000001" foes="1011110001" cont="0"/>
        <request index="9" response="0111011001" foes="0111111001" cont="0"/>
    </junction>
    <junction id="51" type="dead_end" x="-55.17" y="-850.97" incLanes="78120_0 78041_0" intLanes="" shape="-54.05,-852.21 -56.40,-849.62 -54.06,-852.28 -56.18,-849.79"/>
    <junction id="52" type="dead_end" x="-75.43" y="-844.26" incLanes="78305_0 78124_0" intLanes="" shape="-74.04,-843.21 -76.83,-845.31 -74.04,-843.21 -76.83,-845.31"/>
    <junction id="53" type="dead_end" x="-78.22" y="-846.37" incLanes="" intLanes="" shape="-76.83,-845.32 -79.62,-847.43 -76.83,-845.32 -79.62,-847.43"/>
    <junction id="54" type="dead_end" x="-56.98" y="-849.32" incLanes="" intLanes="" shape="-56.67,-849.85 -57.36,-848.64 -56.55,-850.12 -57.32,-848.66"/>

    <connection from="78005" to="78243" fromLane="0" toLane="0" contPos="-4.00" shape="21.03,-962.85 22.08,-964.32 22.60,-965.41 22.93,-966.56 23.03,-967.76 22.86,-968.96 22.46,-970.09 21.54,-971.64 20.37,-973.01 18.56,-974.61 16.09,-976.33 12.41,-978.39 8.60,-980.16" via=":47_2_0" dir="r" state="m"/>
    <connection from="78005" to="78338" fromLane="0" toLane="0" contPos="-4.00" shape="21.03,-962.85 23.29,-965.28 25.38,-967.10 27.66,-968.68 30.12,-969.93 32.21,-970.67 34.38,-971.14 36.58,-971.35 39.35,-971.23 42.07,-970.74 44.72,-969.95 45.25,-969.75" via=":47_3_0" dir="l" state="m"/>
    <connection from="78042" to="78309" fromLane="0" toLane="0" contPos="-4.00" shape="-61.39,-851.77 -62.32,-852.69 -63.09,-853.72 -63.68,-854.87 -64.07,-856.10 -64.24,-857.37 -64.24,-858.66 -64.08,-859.94 -63.79,-861.20 -62.92,-863.62 -61.78,-865.94 -59.75,-869.23 -57.46,-872.35 -55.83,-874.34" via=":50_9_0" dir="l" state="m"/>
    <connection from="78051" to="78309" fromLane="0" toLane="0" contPos="-4.00" shape="-80.49,-872.28 -77.87,-870.34 -76.00,-869.22 -74.03,-868.30 -71.96,-867.62 -70.89,-867.39 -69.81,-867.24 -68.73,-867.19 -67.64,-867.22 -66.55,-867.36 -65.49,-867.58 -64.44,-867.89 -62.45,-868.76 -60.59,-869.89 -58.87,-871.23 -57.29,-872.73 -55.83,-874.34" via=":50_6_0" dir="r" state="M"/>
    <connection from="78121" to="78309" fromLane="0" toLane="0" contPos="-4.00" shape="-61.39,-851.77 -62.40,-852.80 -63.24,-854.04 -63.83,-855.41 -64.14,-856.84 -64.22,-858.26 -64.10,-859.62 -63.84,-860.91 -63.48,-862.15 -63.03,-863.36 -61.99,-865.57 -60.77,-867.68 -58.75,-870.64 -55.83,-874.34" via=":50_0_0" dir="l" state="m"/>