<routes>
	<vehicle depart="0.1" departLane="0" departPos="74.00100603748479" departSpeed="12.0" id="200" type="passenger">
		<route edges="48959 48969 48979"/>
	</vehicle>
	<vehicle depart="0.1" departLane="0" departPos="184.8916318854458" departSpeed="22.0" id="201" type="passenger">
		<route edges="48957 48967 48977 48987"/>
	</vehicle>
	<vehicle depart="0.1" departLane="0" departPos="163.9328712771782" departSpeed="22.0" id="202" type="passenger">
		<route edges="48957 48967 48977 48987"/>
	</vehicle>
	<vehicle depart="0.1" departLane="0" departPos="0" departSpeed="18.0" id="203" type="passenger">
		<route edges="48969 48979 48987"/>
	</vehicle>
	<vehicle depart="0.1" departLane="1" departPos="0" departSpeed="24.0" id="204" type="passenger">
		<route edges="48963 48971 48981"/>
	</vehicle>
	<vehicle depart="0.1" departLane="1" departPos="45.043481528325984" departSpeed="22.0" id="205" type="passenger">
		<route edges="48967 48975 48987"/>
	</vehicle>
</routes>
