<?xml version="1.0" encoding="UTF-8"?>

<!-- generated on Fri Dec 18 15:42:20 2020 by Eclipse SUMO netconvert Version 1.8.0
<configuration xmlns:xsi="http://www.w3.org/2001/XMLSchema-instance" xsi:noNamespaceSchemaLocation="http://sumo.dlr.de/xsd/netconvertConfiguration.xsd">

    <input>
        <node-files value="./converted_scenarios/hand-crafted/DEU_A9-1_1_I-1-1/nodes.net.xml"/>
        <edge-files value="./converted_scenarios/hand-crafted/DEU_A9-1_1_I-1-1/edges.net.xml"/>
        <connection-files value="./converted_scenarios/hand-crafted/DEU_A9-1_1_I-1-1/_connections.net.xml"/>
        <tllogic-files value="./converted_scenarios/hand-crafted/DEU_A9-1_1_I-1-1/_tll.net.xml"/>
    </input>

    <output>
        <output-file value="./converted_scenarios/hand-crafted/DEU_A9-1_1_I-1-1/DEU_A9-1_1_I-1-1.net.xml"/>
    </output>

    <processing>
        <plain.extend-edge-shape value="true"/>
        <geometry.remove.keep-edges.explicit value="true"/>
        <geometry.avoid-overlap value="true"/>
        <offset.disable-normalization value="true"/>
    </processing>

    <junctions>
        <no-turnarounds value="true"/>
        <junctions.internal-link-detail value="20"/>
    </junctions>

    <report>
        <aggregate-warnings value="5"/>
    </report>

    <random_number>
        <seed value="1234"/>
    </random_number>

</configuration>
-->

<net version="1.6" junctionCornerDetail="5" junctionLinkDetail="20" limitTurnSpeed="5.50" xmlns:xsi="http://www.w3.org/2001/XMLSchema-instance" xsi:noNamespaceSchemaLocation="http://sumo.dlr.de/xsd/net_file.xsd">

    <location netOffset="0.00,0.00" convBoundary="-170.65,-89.11,2128.28,204.05" origBoundary="-171.28,-89.11,2129.00,204.05" projParameter="!"/>

    <edge id=":2_0" function="internal">
        <lane id=":2_0_0" index="0" disallow="rail_fast" speed="36.11" length="3.02" width="3.51" shape="13.34,4.54 16.35,4.64"/>
        <lane id=":2_0_1" index="1" disallow="rail_fast" speed="36.11" length="3.02" width="3.63" shape="13.21,8.29 16.23,8.37"/>
    </edge>
    <edge id=":2_2" function="internal">
        <lane id=":2_2_0" index="0" disallow="rail_fast" speed="36.11" length="3.04" width="3.19" shape="13.09,11.92 16.12,11.99"/>
        <lane id=":2_2_1" index="1" disallow="rail_fast" speed="36.11" length="3.04" width="3.52" shape="12.96,15.54 16.01,15.61"/>
    </edge>
    <edge id=":4_0" function="internal">
        <lane id=":4_0_0" index="0" disallow="bus truck rail_fast" speed="36.11" length="3.59" width="3.51" shape="13.04,0.92 16.63,1.07"/>
    </edge>
    <edge id=":5_0" function="internal">
        <lane id=":5_0_0" index="0" disallow="rail_fast" speed="36.11" length="8.02" width="3.57" shape="143.66,15.92 151.68,16.17"/>
    </edge>
    <edge id=":5_1" function="internal">
        <lane id=":5_1_0" index="0" disallow="rail_fast" speed="36.11" length="8.09" width="3.16" shape="143.54,19.62 151.63,19.90"/>
    </edge>
    <edge id=":5_2" function="internal">
        <lane id=":5_2_0" index="0" disallow="rail_fast" speed="36.11" length="7.81" width="3.75" shape="143.97,8.56 151.78,8.77"/>
    </edge>
    <edge id=":5_3" function="internal">
        <lane id=":5_3_0" index="0" disallow="rail_fast" speed="36.11" length="7.92" width="3.89" shape="143.82,12.23 151.73,12.45"/>
    </edge>
    <edge id=":6_0" function="internal">
        <lane id=":6_0_0" index="0" disallow="bus truck rail_fast" speed="36.11" length="3.00" width="3.68" shape="148.93,5.00 151.93,5.11"/>
    </edge>
    <edge id=":7_0" function="internal">
        <lane id=":7_0_0" index="0" disallow="rail_fast" speed="36.11" length="0.30" width="3.16" shape="183.53,20.44 183.82,20.45"/>
    </edge>
    <edge id=":8_0" function="internal">
        <lane id=":8_0_0" index="0" disallow="bus truck rail_fast" speed="36.11" length="16.04" width="3.51" shape="177.42,8.46 178.18,8.56 178.93,8.65 179.65,8.74 180.35,8.83 181.05,8.90 181.75,8.98 182.45,9.05 183.16,9.11 183.89,9.18 184.64,9.24 185.42,9.29 186.23,9.34 187.09,9.39 187.99,9.44 188.94,9.49 189.95,9.54 191.03,9.58 192.18,9.62 193.40,9.67"/>
    </edge>
    <edge id=":8_1" function="internal">
        <lane id=":8_1_0" index="0" disallow="rail_fast" speed="36.11" length="22.46" width="3.45" shape="170.82,12.91 193.27,13.61"/>
    </edge>
    <edge id=":8_2" function="internal">
        <lane id=":8_2_0" index="0" disallow="rail_fast" speed="36.11" length="22.44" width="3.16" shape="170.70,16.72 193.14,17.35"/>
    </edge>
    <edge id=":8_3" function="internal">
        <lane id=":8_3_0" index="0" disallow="rail_fast" speed="36.11" length="22.48" width="3.51" shape="170.93,9.06 193.40,9.67"/>
    </edge>

    <edge id="48957" from="1" to="2" priority="1" spreadType="center" length="184.89">
        <lane id="48957_0" index="0" disallow="rail_fast" speed="36.11" length="184.89" width="3.51" customShape="1" shape="-170.48,-0.51 -145.31,0.25 -126.55,0.62 -126.19,0.63 -107.07,1.27 -106.89,1.27 -91.67,1.68 -91.05,1.70 -73.28,2.21 -73.01,2.22 -44.16,3.09 -43.53,3.11 -17.95,3.67 4.53,4.20 4.65,4.20 13.34,4.54"/>
        <lane id="48957_1" index="1" disallow="rail_fast" speed="36.11" length="184.89" width="3.47" customShape="1" shape="-170.60,3.03 -145.56,3.83 -145.42,3.83 -126.65,4.41 -126.40,4.41 -107.25,4.99 -107.01,5.00 -91.79,5.33 -91.22,5.35 -73.12,5.92 -72.99,5.92 -43.91,6.77 -43.63,6.78 -18.05,7.32 -17.66,7.33 4.51,8.00 4.88,8.01 13.21,8.29"/>
        <lane id="48957_2" index="2" disallow="rail_fast" speed="36.11" length="184.89" width="3.41" customShape="1" shape="-170.71,6.71 -145.67,7.51 -126.52,8.07 -107.37,8.43 -91.34,8.95 -91.15,8.96 -73.12,9.52 -44.03,10.42 -43.65,10.43 -17.74,10.98 3.63,11.67 4.79,11.69 13.09,11.92"/>
        <lane id="48957_3" index="3" disallow="rail_fast" speed="36.11" length="184.89" width="3.30" customShape="1" shape="-170.83,10.33 -145.92,11.11 -145.77,11.12 -126.64,11.56 -126.53,11.57 -107.59,12.03 -107.46,12.03 -91.40,12.56 -91.28,12.56 -73.25,13.20 -72.90,13.22 -43.89,13.97 -43.75,13.98 -18.08,14.58 -17.81,14.58 3.52,15.27 3.93,15.28 12.96,15.54"/>
    </edge>
    <edge id="48959" from="3" to="4" priority="1" spreadType="center" length="161.07">
        <lane id="48959_0" index="0" disallow="bus truck rail_fast" speed="36.11" length="161.07" width="3.51" customShape="1" shape="-60.62,-89.11 -62.05,-87.78 -64.17,-85.63 -66.22,-82.91 -66.88,-81.99 -68.37,-79.71 -69.07,-78.55 -70.51,-76.23 -71.50,-74.41 -73.20,-70.23 -74.25,-67.22 -74.75,-65.38 -75.93,-60.50 -76.45,-54.69 -76.61,-53.04 -76.55,-51.81 -76.19,-45.49 -75.93,-43.88 -75.07,-39.67 -74.62,-38.03 -73.36,-34.37 -71.81,-30.43 -71.23,-29.16 -68.95,-25.07 -68.63,-24.54 -65.06,-20.35 -62.19,-17.12 -61.66,-16.57 -57.56,-13.51 -53.59,-10.81 -46.89,-7.77 -45.46,-7.22 -41.87,-6.09 -35.44,-4.04 -30.30,-2.72 -29.56,-2.58 -22.36,-1.33 -15.15,-0.47 -8.65,0.03 4.61,0.54 13.04,0.92"/>
    </edge>
    <edge id="48963" from="2" to="5" priority="1" spreadType="center" length="134.47">
        <lane id="48963_0" index="0" disallow="rail_fast" speed="36.11" length="134.47" width="3.19" customShape="1" shape="16.12,11.99 26.94,12.24 27.06,12.24 47.03,12.90 72.12,13.73 93.74,14.30 114.85,14.98 115.14,14.99 143.66,15.92"/>
        <lane id="48963_1" index="1" disallow="rail_fast" speed="36.11" length="134.47" width="3.52" customShape="1" shape="16.01,15.61 26.88,15.84 46.83,16.46 71.64,17.24 72.02,17.25 93.58,17.82 114.73,18.38 115.65,18.41 143.54,19.62"/>
    </edge>
    <edge id="48967" from="2" to="5" priority="1" spreadType="center" length="132.99">
        <lane id="48967_0" index="0" disallow="rail_fast" speed="36.11" length="132.99" width="3.51" customShape="1" shape="16.35,4.64 27.07,4.97 27.24,4.98 47.02,5.67 47.15,5.67 72.08,6.41 72.22,6.42 94.04,6.96 94.56,6.98 115.73,7.43 143.97,8.56"/>
        <lane id="48967_1" index="1" disallow="rail_fast" speed="36.11" length="132.99" width="3.63" customShape="1" shape="16.23,8.37 27.15,8.58 47.03,9.29 47.16,9.30 72.09,10.18 72.29,10.19 93.83,10.65 115.25,11.29 115.64,11.29 143.82,12.23"/>
    </edge>
    <edge id="48969" from="4" to="6" priority="1" spreadType="center" length="135.65">
        <lane id="48969_0" index="0" disallow="rail_fast" speed="36.11" length="135.65" width="3.51" customShape="1" shape="16.63,1.07 27.18,1.44 47.14,2.12 72.19,2.76 93.92,3.31 94.66,3.33 115.87,3.92 148.93,5.00"/>
    </edge>
    <edge id="48971" from="5" to="7" priority="1" spreadType="center" length="34.44">
        <lane id="48971_0" index="0" disallow="rail_fast" speed="36.11" length="34.44" width="3.16" customShape="1" shape="151.63,19.90 183.53,20.44"/>
    </edge>
    <edge id="48975" from="5" to="8" priority="1" spreadType="center" length="35.08">
        <lane id="48975_0" index="0" disallow="rail_fast" speed="36.11" length="35.08" width="3.89" customShape="1" shape="151.73,12.45 167.83,12.81 170.82,12.91"/>
        <lane id="48975_1" index="1" disallow="rail_fast" speed="36.11" length="35.08" width="3.57" customShape="1" shape="151.68,16.17 170.70,16.72"/>
    </edge>
    <edge id="48977" from="5" to="8" priority="1" spreadType="center" length="37.29">
        <lane id="48977_0" index="0" disallow="rail_fast" speed="36.11" length="37.29" width="3.75" customShape="1" shape="151.78,8.77 167.92,8.99 170.93,9.06"/>
    </edge>
    <edge id="48979" from="6" to="8" priority="1" spreadType="center" length="34.87">
        <lane id="48979_0" index="0" disallow="bus truck rail_fast" speed="36.11" length="34.87" width="3.68" customShape="1" shape="151.93,5.11 155.53,5.25 158.99,5.54 159.52,5.60 163.39,6.13 164.86,6.38 169.45,7.22 169.62,7.25 176.31,8.31 177.42,8.46"/>
    </edge>
    <edge id="48981" from="7" to="9" priority="1" spreadType="center" length="1960.80">
        <lane id="48981_0" index="0" disallow="rail_fast" speed="36.11" length="1960.80" width="3.16" customShape="1" shape="183.82,20.45 220.67,21.41 220.79,21.41 259.47,22.45 260.10,22.47 286.12,23.17 286.62,23.19 336.01,24.75 336.27,24.75 361.43,25.47 361.91,25.48 386.03,26.26 386.30,26.26 407.58,26.75 407.77,26.76 429.21,27.48 429.35,27.48 471.30,28.52 471.72,28.54 503.58,29.50 541.21,30.66 541.57,30.67 560.91,31.10 588.92,32.04 589.25,32.05 636.12,33.33 636.27,33.34 672.40,34.29 692.75,35.01 722.53,35.82 755.44,36.98 755.79,36.99 782.43,37.54 782.76,37.54 818.38,38.73 818.62,38.74 843.13,39.27 843.26,39.27 904.09,41.12 904.40,41.13 946.73,42.36 946.86,42.36 978.44,43.19 978.72,43.20 1024.88,44.69 1025.33,44.70 1076.86,46.22 1077.05,46.23 1118.73,47.26 1159.68,48.31 1160.26,48.33 1194.20,49.42 1258.78,51.20 1259.32,51.21 1304.37,52.58 1304.93,52.60 1338.49,53.76 1371.59,54.54 1391.96,55.30 1392.31,55.31 1411.11,55.72 1411.46,55.73 1439.54,56.97 1439.67,56.98 1467.70,58.13 1468.17,58.15 1503.68,60.31 1538.97,63.13 1539.17,63.15 1570.41,66.13 1570.65,66.16 1602.01,69.50 1602.23,69.53 1628.81,72.87 1629.29,72.93 1655.53,76.53 1656.20,76.63 1687.66,81.49 1688.00,81.54 1719.89,86.82 1759.03,94.25 1759.22,94.29 1798.26,102.42 1798.42,102.45 1845.10,113.27 1845.35,113.33 1894.60,126.38 1894.79,126.43 1930.27,136.23 1930.47,136.29 1958.46,144.71 1958.60,144.75 1981.46,152.00 1981.63,152.06 2011.85,161.93 2012.17,162.03 2038.71,171.27 2060.48,179.22 2060.60,179.26 2099.53,194.08 2099.67,194.14 2124.74,204.05"/>
    </edge>
    <edge id="48983" from="8" to="10" priority="1" spreadType="center" length="1961.99">
        <lane id="48983_0" index="0" disallow="rail_fast" speed="36.11" length="1961.99" width="3.16" customShape="1" shape="193.14,17.35 220.88,18.12 260.09,19.08 260.20,19.08 286.73,19.83 287.12,19.84 336.38,21.36 336.54,21.36 361.52,21.99 361.64,21.99 386.39,22.74 386.58,22.75 407.86,23.27 429.26,23.96 429.44,23.97 471.83,25.08 471.97,25.08 503.75,25.99 504.04,26.00 541.32,27.15 561.10,27.61 561.38,27.62 589.35,28.48 589.49,28.48 635.78,29.75 636.38,29.77 672.51,30.92 672.62,30.93 692.93,31.51 722.64,32.35 723.04,32.36 755.88,33.44 756.07,33.44 782.50,34.08 818.72,35.22 818.91,35.22 843.36,35.82 843.74,35.83 904.50,37.57 904.78,37.58 946.96,38.83 947.10,38.84 978.37,39.62 978.83,39.63 1025.44,41.16 1025.84,41.17 1077.14,42.58 1077.56,42.59 1118.90,43.74 1119.01,43.75 1160.36,44.85 1194.10,45.87 1194.30,45.88 1259.42,47.77 1259.74,47.78 1305.04,49.10 1338.63,50.33 1338.95,50.34 1371.67,51.12 1371.82,51.12 1392.28,51.77 1392.40,51.78 1411.44,52.32 1411.60,52.33 1439.54,53.46 1439.83,53.47 1468.35,54.77 1503.89,56.72 1504.15,56.73 1539.43,59.70 1570.99,62.71 1571.12,62.72 1602.64,66.23 1602.83,66.25 1629.73,69.43 1656.70,73.28 1688.54,78.08 1720.47,83.37 1721.05,83.47 1759.89,90.94 1760.17,90.99 1799.16,99.14 1799.37,99.18 1846.19,109.94 1846.50,110.01 1895.74,122.87 1931.14,132.82 1931.24,132.85 1959.66,141.24 1959.77,141.28 1982.70,148.76 2013.03,158.48 2013.37,158.59 2039.87,167.93 2040.03,167.99 2061.62,175.81 2061.73,175.85 2100.78,190.78 2100.91,190.83 2126.25,200.74"/>
    </edge>
    <edge id="48987" from="8" to="11" priority="1" spreadType="center" length="1962.89">
        <lane id="48987_0" index="0" disallow="rail_fast" speed="36.11" length="1962.89" width="3.51" customShape="1" shape="193.40,9.67 220.93,10.62 221.17,10.63 259.47,11.56 260.18,11.58 287.35,12.42 336.83,14.00 337.37,14.02 361.90,14.57 387.01,15.20 387.16,15.21 408.18,15.82 408.40,15.82 429.63,16.37 429.83,16.38 472.04,17.66 472.23,17.67 504.16,18.50 504.32,18.51 541.45,19.54 541.63,19.54 561.84,20.31 562.10,20.32 589.72,21.14 635.89,22.30 636.02,22.30 672.79,23.37 673.00,23.37 693.36,24.01 693.80,24.03 723.21,24.99 756.26,25.98 756.89,26.00 782.96,26.66 783.16,26.67 818.55,27.72 818.98,27.73 844.04,28.44 844.49,28.45 905.13,30.24 905.26,30.24 947.58,31.30 948.02,31.31 978.68,32.29 978.94,32.30 1026.40,33.70 1026.67,33.71 1077.82,35.15 1078.38,35.17 1119.44,36.37 1119.55,36.37 1160.50,37.46 1194.39,38.57 1194.82,38.58 1259.91,40.30 1305.06,41.80 1305.22,41.81 1339.52,42.91 1339.85,42.92 1372.27,43.76 1372.50,43.77 1392.56,44.36 1393.34,44.38 1411.55,45.02 1411.65,45.02 1439.90,45.99 1468.63,47.28 1468.80,47.29 1504.54,49.40 1504.87,49.42 1540.40,52.33 1540.54,52.34 1572.05,55.36 1603.76,58.68 1604.02,58.71 1630.98,62.08 1658.07,66.10 1690.04,70.85 1722.43,76.16 1761.57,83.59 1801.25,92.01 1801.74,92.12 1848.38,102.90 1848.49,102.93 1897.84,115.74 1897.95,115.77 1933.26,125.69 1933.56,125.78 1961.71,134.24 1961.94,134.31 1985.13,141.59 1985.42,141.68 2015.41,151.52 2042.50,160.92 2064.10,168.71 2064.22,168.76 2103.59,183.88 2129.00,193.78"/>
        <lane id="48987_1" index="1" disallow="rail_fast" speed="36.11" length="1962.89" width="3.45" customShape="1" shape="193.27,13.61 221.03,14.48 260.08,15.43 260.20,15.44 287.23,16.26 336.64,17.75 361.75,18.43 361.86,18.43 386.66,19.06 387.05,19.07 407.96,19.63 408.06,19.63 429.37,20.29 429.53,20.29 472.07,21.49 504.05,22.39 541.34,23.50 541.48,23.50 561.50,24.03 561.70,24.03 589.59,24.78 635.80,26.10 672.74,27.34 672.89,27.35 693.11,27.85 693.24,27.85 723.15,28.76 756.14,29.85 782.63,30.43 782.84,30.44 818.88,31.58 819.02,31.59 843.85,32.36 904.88,34.05 905.02,34.06 947.19,35.20 947.48,35.21 978.47,36.05 1025.95,37.54 1026.29,37.55 1077.66,38.92 1119.11,40.18 1119.34,40.19 1160.39,41.36 1160.56,41.36 1194.22,42.31 1259.83,44.18 1305.12,45.45 1339.06,46.76 1339.43,46.77 1371.92,47.50 1372.16,47.50 1392.41,48.14 1411.52,48.75 1439.68,49.79 1439.79,49.79 1468.51,51.19 1504.40,53.07 1504.58,53.08 1539.73,56.15 1540.08,56.18 1571.48,59.11 1571.64,59.12 1603.25,62.63 1630.26,65.83 1630.46,65.85 1657.20,69.91 1657.52,69.95 1689.11,74.52 1689.44,74.57 1721.69,79.88 1760.83,87.44 1800.13,95.77 1800.42,95.83 1847.35,106.53 1847.48,106.56 1896.77,119.33 1896.93,119.38 1932.12,129.30 1960.83,137.91 1983.84,145.22 1983.97,145.26 2014.13,155.08 2014.24,155.11 2041.26,164.52 2062.81,172.29 2062.92,172.34 2102.23,187.43 2127.58,197.33"/>
    </edge>

    <junction id="1" type="dead_end" x="-170.65" y="4.89" incLanes="" intLanes="" shape="-170.88,11.98 -170.43,-2.26"/>
    <junction id="10" type="dead_end" x="2126.25" y="200.74" incLanes="48983_0" intLanes="" shape="2126.82,199.27 2125.67,202.21"/>
    <junction id="11" type="dead_end" x="2128.28" y="195.55" incLanes="48987_0 48987_1" intLanes="" shape="2129.61,192.13 2126.96,198.94"/>
    <junction id="2" type="priority" x="14.61" y="10.12" incLanes="48957_0 48957_1 48957_2 48957_3" intLanes=":2_0_0 :2_0_1 :2_2_0 :2_2_1" shape="15.96,17.37 16.40,2.89 13.40,2.79 12.91,17.19">
        <request index="0" response="0000" foes="0000" cont="0"/>
        <request index="1" response="0000" foes="0000" cont="0"/>
        <request index="2" response="0000" foes="0000" cont="0"/>
        <request index="3" response="0000" foes="0000" cont="0"/>
    </junction>
    <junction id="3" type="dead_end" x="-60.62" y="-89.11" incLanes="" intLanes="" shape="-61.81,-90.39 -59.42,-87.82"/>
    <junction id="4" type="priority" x="14.84" y="1.00" incLanes="48959_0" intLanes=":4_0_0" shape="16.57,2.82 16.69,-0.69 13.12,-0.83 12.97,2.67">
        <request index="0" response="0" foes="0" cont="0"/>
    </junction>
    <junction id="5" type="priority" x="149.08" y="17.98" incLanes="48963_0 48963_1 48967_0 48967_1" intLanes=":5_0_0 :5_1_0 :5_2_0 :5_3_0" shape="151.62,21.48 151.82,6.90 144.05,6.81 143.42,21.37">
        <request index="0" response="0000" foes="0000" cont="0"/>
        <request index="1" response="0000" foes="0000" cont="0"/>
        <request index="2" response="0000" foes="0000" cont="0"/>
        <request index="3" response="0000" foes="0000" cont="0"/>
    </junction>
    <junction id="6" type="priority" x="150.43" y="5.05" incLanes="48969_0" intLanes=":6_0_0" shape="151.86,6.95 152.00,3.27 148.99,3.25 148.87,6.75">
        <request index="0" response="0" foes="0" cont="0"/>
    </junction>
    <junction id="7" type="priority" x="183.67" y="20.44" incLanes="48971_0" intLanes=":7_0_0" shape="183.78,22.03 183.86,18.87 183.55,18.86 183.50,22.02">
        <request index="0" response="0" foes="0" cont="0"/>
    </junction>
    <junction id="8" type="priority" x="184.20" y="15.21" incLanes="48979_0 48975_0 48975_1 48977_0" intLanes=":8_0_0 :8_1_0 :8_2_0 :8_3_0" shape="193.08,18.87 193.46,7.91 170.97,7.19 170.89,10.93 184.11,11.10 192.49,10.91 196.02,10.37 194.70,9.47 188.54,8.22 177.53,6.61 177.30,10.30 179.48,10.63 180.36,10.88 179.94,11.03 178.22,11.10 175.20,11.07 170.88,10.96 170.65,18.50">
        <request index="0" response="1000" foes="1000" cont="0"/>
        <request index="1" response="0000" foes="0000" cont="0"/>
        <request index="2" response="0000" foes="0000" cont="0"/>
        <request index="3" response="0010" foes="0011" cont="0"/>
    </junction>
    <junction id="9" type="dead_end" x="2124.74" y="204.05" incLanes="48981_0" intLanes="" shape="2125.32,202.58 2124.16,205.52"/>

    <connection from="48957" to="48967" fromLane="0" toLane="0" contPos="-4.00" via=":2_0_0" dir="s" state="M"/>
    <connection from="48957" to="48967" fromLane="1" toLane="1" contPos="-4.00" via=":2_0_1" dir="s" state="M"/>
    <connection from="48957" to="48963" fromLane="2" toLane="0" contPos="-4.00" via=":2_2_0" dir="s" state="M"/>
    <connection from="48957" to="48963" fromLane="3" toLane="1" contPos="-4.00" via=":2_2_1" dir="s" state="M"/>
    <connection from="48959" to="48969" fromLane="0" toLane="0" contPos="-4.00" via=":4_0_0" dir="r" state="M"/>
    <connection from="48963" to="48975" fromLane="0" toLane="1" contPos="-4.00" via=":5_0_0" dir="R" state="M"/>
    <connection from="48963" to="48971" fromLane="1" toLane="0" contPos="-4.00" via=":5_1_0" dir="s" state="M"/>
    <connection from="48967" to="48977" fromLane="0" toLane="0" contPos="-4.00" via=":5_2_0" dir="s" state="M"/>
    <connection from="48967" to="48975" fromLane="1" toLane="0" contPos="-4.00" via=":5_3_0" dir="R" state="M"/>
    <connection from="48969" to="48979" fromLane="0" toLane="0" contPos="-4.00" via=":6_0_0" dir="s" state="M"/>
    <connection from="48971" to="48981" fromLane="0" toLane="0" contPos="-4.00" via=":7_0_0" dir="s" state="M"/>
    <connection from="48975" to="48987" fromLane="0" toLane="1" contPos="-4.00" via=":8_1_0" dir="s" state="M"/>
    <connection from="48975" to="48983" fromLane="1" toLane="0" contPos="-4.00" via=":8_2_0" dir="s" state="M"/>
    <connection from="48977" to="48987" fromLane="0" toLane="0" contPos="-4.00" via=":8_3_0" dir="s" state="m"/>
    <connection from="48979" to="48987" fromLane="0" toLane="0" contPos="-4.00" via=":8_0_0" dir="s" state="m"/>

    <connection from=":2_0" to="48967" fromLane="0" toLane="0" dir="s" state="M"/>
    <connection from=":2_0" to="48967" fromLane="1" toLane="1" dir="s" state="M"/>
    <connection from=":2_2" to="48963" fromLane="0" toLane="0" dir="s" state="M"/>
    <connection from=":2_2" to="48963" fromLane="1" toLane="1" dir="s" state="M"/>
    <connection from=":4_0" to="48969" fromLane="0" toLane="0" dir="r" state="M"/>
    <connection from=":5_0" to="48975" fromLane="0" toLane="1" dir="R" state="M"/>
    <connection from=":5_1" to="48971" fromLane="0" toLane="0" dir="s" state="M"/>
    <connection from=":5_2" to="48977" fromLane="0" toLane="0" dir="s" state="M"/>
    <connection from=":5_3" to="48975" fromLane="0" toLane="0" dir="R" state="M"/>
    <connection from=":6_0" to="48979" fromLane="0" toLane="0" dir="s" state="M"/>
    <connection from=":7_0" to="48981" fromLane="0" toLane="0" dir="s" state="M"/>
    <connection from=":8_0" to="48987" fromLane="0" toLane="0" dir="s" state="M"/>
    <connection from=":8_1" to="48987" fromLane="0" toLane="1" dir="s" state="M"/>
    <connection from=":8_2" to="48983" fromLane="0" toLane="0" dir="s" state="M"/>
    <connection from=":8_3" to="48987" fromLane="0" toLane="0" dir="s" state="M"/>

</net>
