<!-- generated on 2020-12-18 15:42:20.643594 by ipykernel_launcher.py v1_2_0+5214-53edc58fcd
-->
<edges>
	<edge from="1" function="normal" id="48957" length="184.8916318854458" numLanes="4" priority="1" speed="36.11111111111111" spreadType="center" to="2">
		<lane allow="pedestrian rail private passenger ship delivery vip emergency bicycle rail_electric army rail_urban trailer coach bus custom2 tram taxi evehicle custom1 motorcycle authority truck hov moped" index="0" length="184.8916318854458" shape="-170.0306,-0.49444999999999995 -145.3111,0.24735000000000007 -126.55025,0.6211499999999999 -126.1918,0.6305000000000001 -107.06645,1.26804 -106.8868,1.274975 -91.67295,1.675915 -91.05295000000001,1.697365 -73.2799,2.2104850000000003 -73.0056,2.219055 -44.155950000000004,3.0902 -43.53385,3.10845 -17.952550000000002,3.6717500000000003 4.52595,4.1975 4.6548,4.2026 14.78865,4.59495" speed="36.11111111111111" width="3.5057330331900634"/>
		<lane allow="pedestrian rail private passenger ship delivery vip emergency bicycle rail_electric army rail_urban trailer coach bus custom2 tram taxi evehicle custom1 motorcycle authority truck hov moped" index="1" length="184.8916318854458" shape="-170.43695000000002,3.0325 -145.5553,3.8264 -145.42005,3.83075 -126.6486,4.4052999999999995 -126.401,4.4148499999999995 -107.255,4.9902 -107.00745,4.9985 -91.79035,5.33215 -91.2176,5.34945 -73.11695,5.91985 -72.9875,5.9238 -43.9096,6.770300000000001 -43.63415,6.7781 -18.045099999999998,7.3186 -17.6553,7.3296 4.51235,7.996049999999999 4.88455,8.0077 14.71335,8.3361" speed="36.11111111111111" width="3.473929471074506"/>
		<lane allow="pedestrian rail private passenger ship delivery vip emergency bicycle rail_electric army rail_urban trailer coach bus custom2 tram taxi evehicle custom1 motorcycle authority truck hov moped" index="2" length="184.8916318854458" shape="-170.8715,6.70825 -145.66525000000001,7.511749999999999 -145.63785000000001,7.512550000000001 -126.51675,8.06725 -126.4438,8.0687 -107.37385,8.43235 -91.344,8.9537 -91.15090000000001,8.96025 -73.12475,9.5215 -73.10385,9.52215 -44.027950000000004,10.42295 -43.6533,10.434349999999998 -17.74045,10.984 -17.6978,10.9851 3.6291,11.666450000000001 4.788399999999999,11.69495 14.52395,11.95575" speed="36.11111111111111" width="3.411348229073075"/>
		<lane allow="pedestrian rail private passenger ship delivery vip emergency bicycle rail_electric army rail_urban trailer coach bus custom2 tram taxi evehicle custom1 motorcycle authority truck hov moped" index="3" length="184.8916318854458" shape="-171.2803,10.3139 -145.9219,11.1141 -145.76625,11.1183 -126.64465,11.563 -126.5311,11.5659 -107.59075,12.0286 -107.46045000000001,12.03155 -91.40415,12.55805 -91.27615,12.56295 -73.253,13.2044 -72.89585,13.21755 -43.88995,13.9743 -43.7538,13.97865 -18.07875,14.5777 -17.8061,14.583749999999998 3.5208000000000004,15.265600000000001 3.93195,15.27585 14.4131,15.57775" speed="36.11111111111111" width="3.3012453846995395"/>
	</edge>
	<edge from="3" function="normal" id="48959" length="161.06750377888588" numLanes="1" priority="1" speed="36.11111111111111" spreadType="center" to="4">
		<lane allow="pedestrian rail private passenger ship delivery vip emergency bicycle rail_electric army rail_urban trailer coach custom2 tram taxi evehicle custom1 motorcycle authority hov moped" index="0" length="161.06750377888588" shape="-60.61515,-89.1079 -62.04545,-87.78305 -64.17360000000001,-85.63045 -66.22194999999999,-82.914 -66.88245,-81.9949 -68.3697,-79.707 -69.07374999999999,-78.55305 -70.50715,-76.22805 -71.4994,-74.40595 -73.20384999999999,-70.22575 -74.24725000000001,-67.2202 -74.75184999999999,-65.3784 -75.92984999999999,-60.5005 -76.4452,-54.6892 -76.6148,-53.03595 -76.55305000000001,-51.807249999999996 -76.18575,-45.49015 -75.92904999999999,-43.8781 -75.069,-39.6747 -74.6181,-38.033699999999996 -73.35685000000001,-34.3661 -71.8147,-30.43445 -71.22935000000001,-29.16325 -68.9482,-25.07215 -68.6317,-24.54165 -65.0601,-20.35265 -62.188900000000004,-17.11645 -61.66205,-16.5719 -57.5638,-13.51025 -53.5914,-10.812650000000001 -46.8919,-7.7688999999999995 -45.457499999999996,-7.2185 -41.8686,-6.092300000000001 -35.441649999999996,-4.0404 -30.3003,-2.7185795 -29.56095,-2.57589 -22.36275,-1.3298 -15.150400000000001,-0.47314999999999985 -8.65195,0.02949999999999997 4.60885,0.5423000000000001 14.83575,1.002625" speed="36.11111111111111" width="3.50581228996933"/>
	</edge>
	<edge from="2" function="normal" id="48963" length="134.46654429415554" numLanes="2" priority="1" speed="36.11111111111111" spreadType="center" to="5">
		<lane allow="pedestrian rail private passenger ship delivery vip emergency bicycle rail_electric army rail_urban trailer coach bus custom2 tram taxi evehicle custom1 motorcycle authority truck hov moped" index="0" length="134.46654429415554" shape="14.52395,11.95575 26.938450000000003,12.2355 27.05745,12.2377 47.0303,12.89545 72.1221,13.7274 72.2037,13.7301 93.73814999999999,14.299949999999999 93.764,14.300899999999999 114.84805,14.982099999999999 115.13544999999999,14.99415 148.9259,16.09575" speed="36.11111111111111" width="3.1939140329695785"/>
		<lane allow="pedestrian rail private passenger ship delivery vip emergency bicycle rail_electric army rail_urban trailer coach bus custom2 tram taxi evehicle custom1 motorcycle authority truck hov moped" index="1" length="134.46654429415554" shape="14.4131,15.57775 26.87515,15.84195 46.82695,16.45975 46.9056,16.4622 71.6434,17.2444 72.01835,17.25405 93.57730000000001,17.818199999999997 93.63884999999999,17.81995 114.73435,18.3778 115.65455,18.41115 149.2395,19.8642" speed="36.11111111111111" width="3.5214294057953226"/>
	</edge>
	<edge from="2" function="normal" id="48967" length="132.9903505692969" numLanes="2" priority="1" speed="36.11111111111111" spreadType="center" to="5">
		<lane allow="pedestrian rail private passenger ship delivery vip emergency bicycle rail_electric army rail_urban trailer coach bus custom2 tram taxi evehicle custom1 motorcycle authority truck hov moped" index="0" length="132.9903505692969" shape="14.78865,4.59495 27.074550000000002,4.97205 27.2411,4.9771 47.0239,5.66765 47.14595,5.67145 72.08365,6.41265 72.21685,6.41685 94.04429999999999,6.9636 94.56139999999999,6.9761500000000005 115.7313,7.42825 147.71224999999998,8.715" speed="36.11111111111111" width="3.505463890842409"/>
		<lane allow="pedestrian rail private passenger ship delivery vip emergency bicycle rail_electric army rail_urban trailer coach bus custom2 tram taxi evehicle custom1 motorcycle authority truck hov moped" index="1" length="132.9903505692969" shape="14.71335,8.3361 27.146,8.5756 47.03335,9.293299999999999 47.156,9.29765 72.0916,10.17935 72.29165,10.1854 93.82655,10.6541 93.91565,10.65645 115.2462,11.28545 115.6446,11.29355 147.85660000000001,12.36815" speed="36.11111111111111" width="3.6318479318385566"/>
	</edge>
	<edge from="4" function="normal" id="48969" length="135.65424614" numLanes="1" priority="1" speed="36.11111111111111" spreadType="center" to="6">
		<lane allow="pedestrian rail private passenger ship delivery vip emergency bicycle rail_electric army rail_urban trailer coach bus custom2 tram taxi evehicle custom1 motorcycle authority truck hov moped" index="0" length="135.65424614" shape="14.83575,1.002625 27.182850000000002,1.4362949999999999 47.14355,2.117095 72.1912,2.75935 93.9245,3.311 94.65555,3.3337000000000003 115.8651,3.9249 150.42860000000002,5.0514" speed="36.11111111111111" width="3.505650337669174"/>
	</edge>
	<edge from="5" function="normal" id="48971" length="34.43902087549095" numLanes="1" priority="1" speed="36.11111111111111" spreadType="center" to="7">
		<lane allow="pedestrian rail private passenger ship delivery vip emergency bicycle rail_electric army rail_urban trailer coach bus custom2 tram taxi evehicle custom1 motorcycle authority truck hov moped" index="0" length="34.43902087549095" shape="149.2395,19.8642 183.67365,20.4434" speed="36.11111111111111" width="3.158440198895651"/>
	</edge>
	<edge from="5" function="normal" id="48975" length="35.08084143531907" numLanes="2" priority="1" speed="36.11111111111111" spreadType="center" to="8">
		<lane allow="pedestrian rail private passenger ship delivery vip emergency bicycle rail_electric army rail_urban trailer coach bus custom2 tram taxi evehicle custom1 motorcycle authority truck hov moped" index="0" length="35.08084143531907" shape="147.85660000000001,12.36815 167.82795,12.813199999999998 184.41075,13.3326" speed="36.11111111111111" width="3.893241761052093"/>
		<lane allow="pedestrian rail private passenger ship delivery vip emergency bicycle rail_electric army rail_urban trailer coach bus custom2 tram taxi evehicle custom1 motorcycle authority truck hov moped" index="1" length="35.08084143531907" shape="148.9259,16.09575 183.9925,17.09525" speed="36.11111111111111" width="3.5711200273863657"/>
	</edge>
	<edge from="5" function="normal" id="48977" length="37.28611472653817" numLanes="1" priority="1" speed="36.11111111111111" spreadType="center" to="8">
		<lane allow="pedestrian rail private passenger ship delivery vip emergency bicycle rail_electric army rail_urban trailer coach bus custom2 tram taxi evehicle custom1 motorcycle authority truck hov moped" index="0" length="37.28611472653817" shape="147.71224999999998,8.715 167.92284999999998,8.99385 183.9189,9.347 184.9921,9.37785" speed="36.11111111111111" width="3.7481441514434835"/>
	</edge>
	<edge from="6" function="normal" id="48979" length="34.87099627619131" numLanes="1" priority="1" speed="36.11111111111111" spreadType="center" to="8">
		<lane allow="pedestrian rail private passenger ship delivery vip emergency bicycle rail_electric army rail_urban trailer coach custom2 tram taxi evehicle custom1 motorcycle authority hov moped" index="0" length="34.87099627619131" shape="150.42860000000002,5.0514 155.5335,5.24505 158.99450000000002,5.535 159.52155,5.6 163.39235,6.129049999999999 164.86155,6.3812999999999995 169.4545,7.22165 169.61874999999998,7.2528999999999995 176.30915,8.3102 183.78325,9.30355 184.9921,9.37785" speed="36.11111111111111" width="3.6838145895253733"/>
	</edge>
	<edge from="7" function="normal" id="48981" length="1960.8045738240223" numLanes="1" priority="1" speed="36.11111111111111" spreadType="center" to="9">
		<lane allow="pedestrian rail private passenger ship delivery vip emergency bicycle rail_electric army rail_urban trailer coach bus custom2 tram taxi evehicle custom1 motorcycle authority truck hov moped" index="0" length="1960.8045738240223" shape="183.67365,20.4434 220.6727,21.4057 220.78625,21.408450000000002 259.46810000000005,22.451900000000002 260.10249999999996,22.4698 286.12260000000003,23.173299999999998 286.6236,23.1881 336.01480000000004,24.74525 336.27185,24.752850000000002 361.43365,25.47035 361.91485,25.4846 386.0258,26.25755 386.29885,26.264650000000003 407.576,26.7524 407.77215,26.75795 429.20995,27.48045 429.35080000000005,27.48435 471.3026,28.5247 471.72315000000003,28.53725 503.57550000000003,29.5012 503.6408,29.50305 541.21075,30.6645 541.5687,30.67425 560.90885,31.09875 561.00015,31.10135 588.91635,32.03715 589.2505,32.04745 636.11765,33.3326 636.2743,33.33665 672.39825,34.2889 692.74945,35.0107 692.8468,35.01365 722.52835,35.8245 755.4399000000001,36.982 755.7927,36.9898 782.43245,37.537 782.7638,37.54465 818.3827,38.7308 818.6237,38.736850000000004 843.12705,39.26695 843.2579499999999,39.27045 904.09365,41.1188 904.3978999999999,41.127449999999996 946.7325000000001,42.3585 946.8597,42.36215 978.444,43.1907 978.7156,43.198499999999996 1024.8757500000002,44.69085 1025.32845,44.70485 1076.85885,46.22265 1077.0459,46.227500000000006 1118.7256000000002,47.25915 1118.796,47.26105 1159.68065,48.3117 1160.25835,48.3266 1194.2001,49.41974999999999 1194.2717,49.4217 1258.7825,51.1969 1259.31525,51.213049999999996 1304.37005,52.57975 1304.93005,52.597350000000006 1338.4919,53.758250000000004 1338.52465,53.759100000000004 1371.59155,54.5412 1371.68855,54.54405 1391.9623000000001,55.2981 1392.30545,55.3073 1411.1114499999999,55.7188 1411.45815,55.73025 1439.5395,56.97405 1439.6748,56.9797 1467.69675,58.13065 1468.1695,58.1549 1503.68275,60.31485 1538.97245,63.1333 1539.16735,63.1503 1570.4063500000002,66.13215 1570.6453000000001,66.15625 1602.0137,69.5019 1602.2341999999999,69.5275 1628.8139500000002,72.8715 1629.2866,72.93285 1655.5264499999998,76.5329 1656.19695,76.63005 1687.65545,81.48564999999999 1687.99905,81.54055 1719.8946,86.8175 1719.9687,86.83125 1759.0338000000002,94.25205 1759.2176,94.2886 1798.2595000000001,102.4163 1798.4222,102.45145 1845.0965,113.26509999999999 1845.3506,113.32735 1894.5997,126.3784 1894.7892,126.42935 1930.26665,136.23255 1930.4675000000002,136.28955000000002 1958.4553999999998,144.70555000000002 1958.60005,144.74835000000002 1981.4630499999998,152.0026 1981.62995,152.05805 2011.8515,161.92755 2012.1698999999999,162.03295 2038.7085000000002,171.27069999999998 2060.4751,179.2158 2060.6000999999997,179.2631 2099.53075,194.0836 2099.66665,194.13545 2124.73665,204.04895" speed="36.11111111111111" width="3.158440198895651"/>
	</edge>
	<edge from="8" function="normal" id="48983" length="1961.9883383833621" numLanes="1" priority="1" speed="36.11111111111111" spreadType="center" to="10">
		<lane allow="pedestrian rail private passenger ship delivery vip emergency bicycle rail_electric army rail_urban trailer coach bus custom2 tram taxi evehicle custom1 motorcycle authority truck hov moped" index="0" length="1961.9883383833621" shape="183.9925,17.09525 220.88105000000002,18.116999999999997 220.92605,18.118299999999998 260.0943,19.08115 260.2012,19.0843 286.73,19.832700000000003 287.11995,19.844450000000002 336.37505,21.3601 336.53679999999997,21.3649 361.52265,21.98625 361.64295,21.9893 386.39250000000004,22.7447 386.579,22.74975 407.86105,23.2671 407.88875,23.26795 429.25525,23.962049999999998 429.43795,23.9675 471.82665,25.08115 471.96810000000005,25.084899999999998 503.74585,25.98845 504.03725,25.99745 541.31575,27.1491 541.385,27.151 561.0978,27.6141 561.3826,27.62205 589.3498999999999,28.48 589.4907000000001,28.483800000000002 635.7786,29.748649999999998 636.38375,29.76775 672.51255,30.9221 672.62405,30.9261 692.9304,31.505049999999997 693.0018,31.5068 722.6351,32.35155 723.0388499999999,32.3638 755.87725,33.436 756.0686000000001,33.44175 782.4951000000001,34.08235 782.53725,34.08335 818.7162,35.21915 818.90885,35.2244 843.35725,35.819599999999994 843.7397000000001,35.83 904.49845,37.57205 904.7801999999999,37.5803 946.95955,38.83415 947.0987,38.837900000000005 978.3688,39.6183 978.83285,39.63195 1025.4398,41.156549999999996 1025.83995,41.16905 1077.13525,42.582350000000005 1077.56235,42.5935 1118.8962000000001,43.74485 1119.0142500000002,43.748000000000005 1160.3573999999999,44.8502 1160.4416,44.853 1194.09825,45.87305 1194.3013,45.87985 1259.4213,47.7672 1259.7357499999998,47.7763 1305.0414,49.1037 1338.62995,50.33245 1338.95055,50.3424 1371.67,51.1192 1371.82005,51.123400000000004 1392.28145,51.77315 1392.4017,51.777249999999995 1411.4371500000002,52.3228 1411.5990000000002,52.32785 1439.5363499999999,53.4568 1439.8323,53.47055 1468.34945,54.767849999999996 1503.89265,56.7151 1504.1523499999998,56.73135 1539.4333000000001,59.69755000000001 1539.4929,59.70295 1570.9908,62.71185 1571.11825,62.724599999999995 1602.63715,66.2307 1602.83365,66.25405 1629.72665,69.4327 1629.79485,69.4408 1656.69715,73.283 1688.53965,78.0781 1720.46605,83.36914999999999 1721.05235,83.4733 1759.8937500000002,90.93635 1760.17315,90.9921 1799.158,99.13665 1799.37005,99.1833 1846.1879,109.939 1846.4957,110.01365000000001 1895.7350000000001,122.87355 1895.8081000000002,122.8928 1931.13535,132.81515 1931.2388999999998,132.84539999999998 1959.65755,141.24225 1959.7703999999999,141.27715 1982.69605,148.7614 1982.7117,148.7666 2013.0259500000002,158.4802 2013.3650499999999,158.59494999999998 2039.871,167.92784999999998 2040.0327499999999,167.9856 2061.6183499999997,175.81175000000002 2061.7306,175.8536 2100.7781999999997,190.78365 2100.9077500000003,190.83319999999998 2126.2483,200.7403" speed="36.11111111111111" width="3.1590028885710013"/>
	</edge>
	<edge from="8" function="normal" id="48987" length="1962.8944179165856" numLanes="2" priority="1" speed="36.11111111111111" spreadType="center" to="11">
		<lane allow="pedestrian rail private passenger ship delivery vip emergency bicycle rail_electric army rail_urban trailer coach bus custom2 tram taxi evehicle custom1 motorcycle authority truck hov moped" index="0" length="1962.8944179165856" shape="184.9921,9.37785 220.9293,10.6198 221.171,10.626000000000001 259.47484999999995,11.5608 260.17835,11.5816 287.35285,12.419550000000001 287.4293,12.4221 336.83115,14.00105 337.3721,14.019200000000001 361.9026,14.56665 361.9821,14.56915 387.01155,15.20365 387.15935,15.20735 408.1794,15.8178 408.39815,15.82425 429.6272,16.374650000000003 429.82745,16.3799 472.03795,17.66495 472.2283,17.6703 504.15909999999997,18.50415 504.3229,18.5086 541.45095,19.5384 541.6291,19.54335 561.8389999999999,20.307499999999997 562.1002000000001,20.316499999999998 589.7153,21.1356 635.8894,22.2982 636.01875,22.30155 672.78955,23.36775 672.9989,23.3746 693.36085,24.011850000000003 693.7950000000001,24.02605 723.2062,24.9937 723.2625499999999,24.995350000000002 756.2556999999999,25.9829 756.89185,25.99895 782.9581,26.662300000000002 783.1605999999999,26.668300000000002 818.548,27.7215 818.98035,27.732599999999998 844.0358000000001,28.4431 844.49425,28.45375 905.13465,30.23975 905.25555,30.24315 947.5783,31.30185 948.01835,31.313850000000002 978.6800000000001,32.29495 978.9439,32.303349999999995 1026.3965,33.701049999999995 1026.67415,33.70895 1077.8207000000002,35.14905 1078.3820500000002,35.166 1119.4437,36.371300000000005 1119.5534499999999,36.374300000000005 1160.4973,37.46265 1160.5223999999998,37.463350000000005 1194.38755,38.5706 1194.8151,38.58355 1259.90935,40.2974 1259.9683,40.29965 1305.05505,41.80145 1305.22465,41.80585000000001 1339.52195,42.912049999999994 1339.8503,42.91985 1372.2741,43.762550000000005 1372.498,43.769800000000004 1392.5615,44.362449999999995 1393.3386,44.3836 1411.54555,45.01875 1411.64685,45.0219 1439.8999,45.9923 1439.9592,45.994550000000004 1468.6327,47.2792 1468.80115,47.2889 1504.5403999999999,49.4025 1504.87245,49.42445 1540.404,52.326049999999995 1540.5386,52.337050000000005 1572.0497500000001,55.361599999999996 1603.757,58.683350000000004 1604.0205,58.7127 1630.98475,62.082750000000004 1658.07415,66.09795 1658.1039,66.10255000000001 1690.0401000000002,70.84785 1690.1179499999998,70.86015 1722.4254,76.15950000000001 1761.5659,83.58885000000001 1761.62885,83.60075 1801.25425,92.00890000000001 1801.73895,92.11525 1848.38015,102.90289999999999 1848.4902,102.92945 1897.84105,115.73949999999999 1897.9495499999998,115.76925 1933.25855,125.6876 1933.5623500000002,125.7755 1961.70955,134.238 1961.94045,134.309 1985.1300999999999,141.5855 1985.41725,141.67775 2015.4127,151.52495 2015.4859000000001,151.5501 2042.5023,160.9216 2042.55215,160.9395 2064.10415,168.71355 2064.21935,168.75625000000002 2103.5869000000002,183.88415 2103.61765,183.8962 2128.9995,193.77935" speed="36.11111111111111" width="3.511143244016114"/>
		<lane allow="pedestrian rail private passenger ship delivery vip emergency bicycle rail_electric army rail_urban trailer coach bus custom2 tram taxi evehicle custom1 motorcycle authority truck hov moped" index="1" length="1962.8944179165856" shape="184.41075,13.3326 221.03320000000002,14.47655 221.09205,14.478 260.07894999999996,15.4323 260.2028,15.435550000000001 287.2288,16.26165 287.30060000000003,16.2639 336.639,17.7539 336.72485,17.756 361.75334999999995,18.4294 361.86235,18.43285 386.65819999999997,19.06175 387.0537,19.0706 407.956,19.6312 408.0615,19.6344 429.36879999999996,20.288600000000002 429.5314,20.29315 472.0704,21.485799999999998 472.12265,21.4874 504.0514,22.3913 504.14745,22.39415 541.3405,23.4964 541.4843000000001,23.500700000000002 561.4968,24.0265 561.7027,24.0324 589.5881999999999,24.7784 589.6039,24.7788 635.79585,26.0989 635.88405,26.10155 672.7436,27.34375 672.8896,27.347450000000002 693.1052,27.8487 693.23945,27.85255 723.15165,28.7567 756.1367,29.8457 782.63355,30.4337 782.8435,30.4394 818.8802499999999,31.5826 819.0191,31.5874 843.8541,32.364999999999995 843.9431500000001,32.3679 904.8804,34.0522 905.01705,34.056 947.19,35.2041 947.4811500000001,35.211349999999996 978.4665500000001,36.04975 978.5525,36.0525 1025.9466,37.5388 1026.29015,37.5483 1077.66115,38.9165 1077.71085,38.91785 1119.11335,40.18065 1119.33585,40.18745 1160.3903500000001,41.357600000000005 1160.56155,41.362899999999996 1194.22155,42.307050000000004 1194.27,42.30855 1259.8306499999999,44.17745 1305.12235,45.449200000000005 1305.1655500000002,45.45075 1339.06485,46.76305 1339.4274500000001,46.77395 1371.9203,47.497749999999996 1372.1628,47.50385 1392.4058,48.14375 1392.4504000000002,48.1453 1411.5225,48.75065 1411.5445,48.75145 1439.6815000000001,49.7851 1439.7869500000002,49.78945 1468.5137,51.19005 1468.5774000000001,51.193200000000004 1504.39995,53.0687 1504.57565,53.0801 1539.734,56.150450000000006 1540.0781,56.181749999999994 1571.47695,59.1061 1571.6443,59.12295 1603.24615,62.6326 1603.3285999999998,62.64165 1630.26305,65.82695000000001 1630.4646,65.8538 1657.2024000000001,69.90555 1657.52335,69.9537 1689.1126,74.518 1689.44345,74.56855 1721.68605,79.87819999999999 1760.83485,87.43865 1760.9158,87.45545 1800.1262,95.7694 1800.4155,95.83295000000001 1847.3499,106.53175 1847.4796000000001,106.5626 1896.7675,119.33070000000001 1896.9326999999998,119.37514999999999 1932.1178,129.3038 1932.2019500000001,129.3279 1960.8315499999999,137.91345 1983.8434000000002,145.219 1983.96565,145.25775 2014.1349500000001,155.0755 2014.2388,155.1106 2041.25675,164.5221 2062.8058499999997,172.2944 2062.9239500000003,172.33925 2102.2259,187.42899999999997 2127.5533,197.31925" speed="36.11111111111111" width="3.447797304076908"/>
	</edge>
</edges>
