<routes>
	<vehicle depart="0.1" departLane="0" departPos="69.90385174825862" departSpeed="0.0" id="39" type="bicycle">
		<route edges="47674 47731"/>
	</vehicle>
	<vehicle depart="0.1" departLane="0" departPos="34.896185853627614" departSpeed="1.39684" id="345" type="bus">
		<route edges="47674 47731"/>
	</vehicle>
	<vehicle depart="0.1" departLane="0" departPos="18.04904932114655" departSpeed="1.8722325" id="349" type="bus">
		<route edges="47674 47731"/>
	</vehicle>
	<vehicle depart="0.1" departLane="0" departPos="69.83380478224079" departSpeed="0.33795793" id="323" type="passenger">
		<route edges="47674 47731"/>
	</vehicle>
	<vehicle depart="0.1" departLane="0" departPos="61.8767717824817" departSpeed="0.21676472" id="329" type="passenger">
		<route edges="47674 47731"/>
	</vehicle>
	<vehicle depart="0.1" departLane="0" departPos="48.48564203669862" departSpeed="0.40205058" id="336" type="passenger">
		<route edges="47674 47731"/>
	</vehicle>
	<vehicle depart="0.1" departLane="0" departPos="53.91829406908203" departSpeed="0.22148381" id="332" type="motorcycle">
		<route edges="47674 47731"/>
	</vehicle>
	<vehicle depart="0.1" departLane="0" departPos="40.6956234014954" departSpeed="0.77882515" id="340" type="motorcycle">
		<route edges="47674 47731"/>
	</vehicle>
	<vehicle depart="0.1" departLane="0" departPos="10.948340467305329" departSpeed="11.893289" id="341" type="motorcycle">
		<route edges="47676 47731"/>
	</vehicle>
</routes>
