<routes>
	<vehicle depart="0.1" departLane="0" departPos="15.496371646502505" departSpeed="2.5760124" id="358" type="bicycle">
		<route edges="164 71"/>
	</vehicle>
	<vehicle depart="0.1" departLane="0" departPos="88.4724129206781" departSpeed="10.364437" id="31" type="passenger">
		<route edges="142 383 7"/>
	</vehicle>
	<vehicle depart="0.1" departLane="0" departPos="43.53285085312773" departSpeed="0.0" id="34" type="passenger">
		<route edges="73 70"/>
	</vehicle>
	<vehicle depart="0.1" departLane="0" departPos="17.20581302115518" departSpeed="0.0" id="35" type="passenger">
		<route edges="7 65"/>
	</vehicle>
	<vehicle depart="0.1" departLane="0" departPos="36.45313198441879" departSpeed="0.0" id="36" type="passenger">
		<route edges="73 70"/>
	</vehicle>
	<vehicle depart="0.1" departLane="0" departPos="15.475901994836823" departSpeed="0.51817379" id="39" type="passenger">
		<route edges=":51_3 67 160"/>
	</vehicle>
	<vehicle depart="0.1" departLane="0" departPos="29.758792203654394" departSpeed="0.0" id="315" type="passenger">
		<route edges="73 70"/>
	</vehicle>
	<vehicle depart="0.1" departLane="0" departPos="107.64587229678365" departSpeed="9.1226383" id="316" type="passenger">
		<route edges="142 383 7"/>
	</vehicle>
	<vehicle depart="0.1" departLane="0" departPos="51.00835268150384" departSpeed="0.0" id="320" type="passenger">
		<route edges="73 70"/>
	</vehicle>
	<vehicle depart="0.1" departLane="0" departPos="19.4056476580759" departSpeed="12.39486" id="331" type="passenger">
		<route edges="74"/>
	</vehicle>
	<vehicle depart="0.1" departLane="0" departPos="2.5" departSpeed="0.89439145" id="332" type="passenger">
		<route edges=":51_0 67 64 61 146"/>
	</vehicle>
	<vehicle depart="0.1" departLane="0" departPos="28.301599882118225" departSpeed="12.864441" id="335" type="passenger">
		<route edges="142 383"/>
	</vehicle>
	<vehicle depart="0.1" departLane="0" departPos="4.929848880498346" departSpeed="8.501796" id="336" type="passenger">
		<route edges="70 67 64"/>
	</vehicle>
	<vehicle depart="0.1" departLane="0" departPos="15.874542484465454" departSpeed="12.323251" id="337" type="passenger">
		<route edges="62 65 68"/>
	</vehicle>
	<vehicle depart="0.1" departLane="0" departPos="64.07298089681689" departSpeed="2.0921754" id="338" type="passenger">
		<route edges="164 67 64 61 146"/>
	</vehicle>
	<vehicle depart="0.1" departLane="0" departPos="22.89980900335229" departSpeed="0.0" id="339" type="passenger">
		<route edges="73 70"/>
	</vehicle>
	<vehicle depart="0.1" departLane="0" departPos="54.04369697460743" departSpeed="2.769481" id="343" type="passenger">
		<route edges="164 67 64 61"/>
	</vehicle>
	<vehicle depart="0.1" departLane="0" departPos="2.5" departSpeed="7.4137275" id="344" type="passenger">
		<route edges=":53_4 70 67"/>
	</vehicle>
	<vehicle depart="0.1" departLane="0" departPos="71.62686158106108" departSpeed="8.4397613" id="347" type="passenger">
		<route edges="11 62 8"/>
	</vehicle>
	<vehicle depart="0.1" departLane="0" departPos="44.20515130643268" departSpeed="3.1326704" id="348" type="passenger">
		<route edges="164 71"/>
	</vehicle>
	<vehicle depart="0.1" departLane="0" departPos="14.804963952040776" departSpeed="0.00030555361" id="349" type="passenger">
		<route edges="161 68"/>
	</vehicle>
	<vehicle depart="0.1" departLane="0" departPos="15.653207132645264" departSpeed="0.0" id="351" type="passenger">
		<route edges="73 70"/>
	</vehicle>
	<vehicle depart="0.1" departLane="0" departPos="34.26357395323234" departSpeed="3.14997" id="353" type="passenger">
		<route edges="164 71"/>
	</vehicle>
	<vehicle depart="0.1" departLane="0" departPos="47.09328844647769" departSpeed="5.8761052" id="354" type="passenger">
		<route edges="11 62 8"/>
	</vehicle>
	<vehicle depart="0.1" departLane="0" departPos="24.197447297672653" departSpeed="2.9854739" id="356" type="passenger">
		<route edges="164 71"/>
	</vehicle>
	<vehicle depart="0.1" departLane="0" departPos="9.645877789723937" departSpeed="4.8809622" id="362" type="passenger">
		<route edges="118 74"/>
	</vehicle>
	<vehicle depart="0.1" departLane="0" departPos="51.14312620771253" departSpeed="0.0" id="330" type="motorcycle">
		<route edges="73 70"/>
	</vehicle>
	<vehicle depart="0.1" departLane="0" departPos="6.951405094880846" departSpeed="8.3956909" id="345" type="motorcycle">
		<route edges="119"/>
	</vehicle>
	<vehicle depart="0.1" departLane="0" departPos="7.180403700625249" departSpeed="7.8512519" id="324" type="truck">
		<route edges="383 7 65"/>
	</vehicle>
	<vehicle depart="0.1" departLane="0" departPos="24.203102326720845" departSpeed="0.0" id="341" type="truck">
		<route edges="161 68"/>
	</vehicle>
	<vehicle depart="0.1" departLane="0" departPos="9.161900476134216" departSpeed="1.5906056" id="363" type="truck">
		<route edges="164 71"/>
	</vehicle>
</routes>
