<routes>
	<vehicle depart="0.1" departLane="0" departPos="32.8964679831554" departSpeed="1.507763" id="335" type="passenger">
		<route edges="1505 262"/>
	</vehicle>
	<vehicle depart="0.1" departLane="0" departPos="23.903187872106837" departSpeed="1.2264582" id="339" type="passenger">
		<route edges="1505 262"/>
	</vehicle>
	<vehicle depart="0.1" departLane="0" departPos="16.37684095556251" departSpeed="0.44023045" id="345" type="passenger">
		<route edges="1505 262"/>
	</vehicle>
	<vehicle depart="0.1" departLane="0" departPos="7.303081465118206" departSpeed="0.97973688" id="349" type="passenger">
		<route edges="1505 262"/>
	</vehicle>
	<vehicle depart="0.1" departLane="0" departPos="4.823338488311111" departSpeed="4.5705814" id="33" type="motorcycle">
		<route edges=":90_3 266"/>
	</vehicle>
	<vehicle depart="0.1" departLane="0" departPos="39.15931838255712" departSpeed="2.4252405" id="321" type="motorcycle">
		<route edges="1505 266"/>
	</vehicle>
</routes>
