<!-- generated on Tue Feb  9 22:18:12 2021 by Eclipse SUMO netconvert Version 1.8.0
<configuration xmlns:xsi="http://www.w3.org/2001/XMLSchema-instance" xsi:noNamespaceSchemaLocation="http://sumo.dlr.de/xsd/netconvertConfiguration.xsd">

    <input>
        <node-files value="./converted_scenarios/scenario-factory/ESP_Toledo-5_1_I-1-1/ESP_Toledo-5_1_I-1-1.nod.xml"/>
        <edge-files value="./converted_scenarios/scenario-factory/ESP_Toledo-5_1_I-1-1/ESP_Toledo-5_1_I-1-1.edg.xml"/>
        <connection-files value="./converted_scenarios/scenario-factory/ESP_Toledo-5_1_I-1-1/ESP_Toledo-5_1_I-1-1.con.xml"/>
        <tllogic-files value="./converted_scenarios/scenario-factory/ESP_Toledo-5_1_I-1-1/ESP_Toledo-5_1_I-1-1.tll.xml"/>
        <type-files value="/home/zen/commonroad-interactive-benchmarks/install/commonroad-map-tool/crmapconverter/sumo_map/templates/DEU.typ.xml"/>
    </input>

    <output>
        <output-file value="./converted_scenarios/scenario-factory/ESP_Toledo-5_1_I-1-1/ESP_Toledo-5_1_I-1-1.net.xml"/>
    </output>

    <processing>
        <geometry.remove.keep-edges.explicit value="true"/>
        <geometry.avoid-overlap value="true"/>
        <offset.disable-normalization value="true"/>
    </processing>

    <junctions>
        <no-turnarounds value="true"/>
        <junctions.internal-link-detail value="20"/>
    </junctions>

    <report>
        <aggregate-warnings value="5"/>
    </report>

    <random_number>
        <seed value="1234"/>
    </random_number>

</configuration>
--><net xmlns:xsi="http://www.w3.org/2001/XMLSchema-instance" version="1.6" junctionCornerDetail="5" junctionLinkDetail="20" limitTurnSpeed="5.50" xsi:noNamespaceSchemaLocation="http://sumo.dlr.de/xsd/net_file.xsd">

    <location netOffset="0.00,0.00" convBoundary="448.06,-312.28,614.23,-63.09" origBoundary="448.06,-312.28,615.73,-62.38" projParameter="!"/>

    <type id="highway.bridleway" priority="1" speed="2.78" allow="pedestrian" oneway="1" width="2.00"/>
    <type id="highway.bus_guideway" priority="1" speed="27.78" allow="bus" oneway="1"/>
    <type id="highway.cycleway" priority="1" speed="8.33" allow="bicycle" oneway="0" width="1.00"/>
    <type id="highway.footway" priority="1" speed="2.78" allow="pedestrian" oneway="1" width="2.00"/>
    <type id="highway.ford" priority="1" speed="2.78" allow="army" oneway="0"/>
    <type id="highway.living_street" priority="2" speed="2.78" disallow="tram rail_urban rail rail_electric rail_fast ship" oneway="0"/>
    <type id="highway.motorway" priority="14" speed="39.44" allow="private emergency authority army vip passenger hov taxi bus coach delivery truck trailer motorcycle evehicle custom1 custom2" oneway="1"/>
    <type id="highway.motorway_link" priority="9" speed="22.22" allow="private emergency authority army vip passenger hov taxi bus coach delivery truck trailer motorcycle evehicle custom1 custom2" oneway="1"/>
    <type id="highway.path" priority="1" speed="2.78" allow="pedestrian bicycle" oneway="0" width="2.00"/>
    <type id="highway.pedestrian" priority="1" speed="2.78" allow="pedestrian" oneway="1" width="2.00"/>
    <type id="highway.primary" priority="12" speed="27.78" disallow="pedestrian tram rail_urban rail rail_electric rail_fast ship" oneway="0"/>
    <type id="highway.primary_link" priority="7" speed="22.22" disallow="pedestrian tram rail_urban rail rail_electric rail_fast ship" oneway="0"/>
    <type id="highway.raceway" priority="15" speed="83.33" allow="vip" oneway="0"/>
    <type id="highway.residential" priority="3" speed="13.89" disallow="pedestrian tram rail_urban rail rail_electric rail_fast ship" oneway="0"/>
    <type id="highway.secondary" priority="11" speed="27.78" disallow="pedestrian tram rail_urban rail rail_electric rail_fast ship" oneway="0"/>
    <type id="highway.secondary_link" priority="6" speed="22.22" disallow="pedestrian tram rail_urban rail rail_electric rail_fast ship" oneway="0"/>
    <type id="highway.service" priority="1" speed="5.56" allow="pedestrian delivery bicycle" oneway="0"/>
    <type id="highway.stairs" priority="1" speed="1.39" allow="pedestrian" oneway="1" width="2.00"/>
    <type id="highway.step" priority="1" speed="1.39" allow="pedestrian" oneway="1" width="2.00"/>
    <type id="highway.steps" priority="1" speed="1.39" allow="pedestrian" oneway="1" width="2.00"/>
    <type id="highway.tertiary" priority="10" speed="22.22" disallow="pedestrian tram rail_urban rail rail_electric rail_fast ship" oneway="0"/>
    <type id="highway.tertiary_link" priority="5" speed="22.22" disallow="pedestrian tram rail_urban rail rail_electric rail_fast ship" oneway="0"/>
    <type id="highway.track" priority="1" speed="5.56" allow="pedestrian motorcycle moped bicycle" oneway="0"/>
    <type id="highway.trunk" priority="13" speed="27.78" disallow="pedestrian bicycle tram rail_urban rail rail_electric rail_fast ship" oneway="0"/>
    <type id="highway.trunk_link" priority="8" speed="22.22" disallow="pedestrian bicycle tram rail_urban rail rail_electric rail_fast ship" oneway="0"/>
    <type id="highway.unclassified" priority="4" speed="13.89" disallow="pedestrian tram rail_urban rail rail_electric rail_fast ship" oneway="0"/>
    <type id="highway.unsurfaced" priority="1" speed="8.33" disallow="tram rail_urban rail rail_electric rail_fast ship" oneway="0"/>
    <type id="railway.highspeed" priority="21" speed="69.44" allow="rail_fast" oneway="1"/>
    <type id="railway.light_rail" priority="19" speed="27.78" allow="rail_urban" oneway="1"/>
    <type id="railway.preserved" priority="16" speed="27.78" allow="rail" oneway="1"/>
    <type id="railway.rail" priority="20" speed="44.44" allow="rail" oneway="1"/>
    <type id="railway.subway" priority="18" speed="27.78" allow="rail_urban" oneway="1"/>
    <type id="railway.tram" priority="17" speed="13.89" allow="tram" oneway="1"/>

    <edge id=":29_0" function="internal">
        <lane id=":29_0_0" index="0" disallow="pedestrian tram rail_urban rail rail_electric rail_fast ship" speed="36.11" length="41.25" width="3.50" shape="577.50,-161.11 572.79,-153.26 568.27,-145.28 564.02,-137.17 560.05,-128.90 558.20,-124.69"/>
        <lane id=":29_0_1" index="1" disallow="pedestrian tram rail_urban rail rail_electric rail_fast ship" speed="36.11" length="41.78" width="3.50" shape="574.53,-162.95 569.75,-154.99 565.18,-146.91 560.86,-138.69 556.85,-130.32 554.98,-126.07"/>
    </edge>
    <edge id=":29_2" function="internal">
        <lane id=":29_2_0" index="0" disallow="pedestrian tram rail_urban rail rail_electric rail_fast ship" speed="13.60" length="39.47" width="3.50" shape="574.53,-162.95 572.29,-159.69 570.10,-157.12 568.05,-155.17 565.81,-153.48 563.36,-152.08 560.75,-151.02 558.01,-150.35 555.21,-150.05 552.39,-150.11 549.60,-150.48 546.31,-151.26 542.58,-152.57 540.51,-153.46"/>
    </edge>
    <edge id=":29_3" function="internal">
        <lane id=":29_3_0" index="0" disallow="pedestrian tram rail_urban rail rail_electric rail_fast ship" speed="12.23" length="31.70" width="3.50" shape="541.98,-156.63 544.60,-155.59 547.33,-154.85 549.57,-154.53 551.84,-154.49 554.08,-154.77 556.27,-155.37 558.35,-156.27 560.29,-157.42 562.52,-159.17 564.53,-161.17 566.67,-163.80 568.57,-166.63"/>
    </edge>
    <edge id=":29_4" function="internal">
        <lane id=":29_4_0" index="0" disallow="pedestrian tram rail_urban rail rail_electric rail_fast ship" speed="13.02" length="37.85" width="3.50" shape="541.98,-156.63 545.60,-154.78 548.54,-152.90 550.83,-151.09 552.89,-149.03 554.33,-147.20 555.54,-145.21 556.47,-143.08 557.11,-140.84 557.44,-138.53 557.48,-136.20 557.18,-133.31 556.54,-130.46 555.42,-127.15 554.98,-126.07"/>
    </edge>
    <edge id=":29_5" function="internal">
        <lane id=":29_5_0" index="0" disallow="pedestrian tram rail_urban rail rail_electric rail_fast ship" speed="11.54" length="29.52" width="3.50" shape="548.54,-128.81 549.76,-132.07 550.51,-134.87 550.92,-137.74 550.95,-140.05 550.64,-142.34 549.97,-144.56 549.22,-146.12 547.92,-148.04 546.33,-149.72 544.53,-151.17 542.06,-152.69 540.51,-153.46"/>
    </edge>
    <edge id=":29_6" function="internal">
        <lane id=":29_6_0" index="0" disallow="pedestrian tram rail_urban rail rail_electric rail_fast ship" speed="36.11" length="42.83" width="3.50" shape="548.54,-128.81 550.46,-133.17 554.57,-141.76 558.99,-150.18 563.67,-158.47 568.57,-166.63"/>
        <lane id=":29_6_1" index="1" disallow="pedestrian tram rail_urban rail rail_electric rail_fast ship" speed="36.11" length="42.30" width="3.50" shape="551.76,-127.45 553.65,-131.72 557.70,-140.19 562.07,-148.52 566.70,-156.71 571.55,-164.79"/>
    </edge>
    <edge id=":30_0" function="internal">
        <lane id=":30_0_0" index="0" disallow="pedestrian tram rail_urban rail rail_electric rail_fast ship" speed="36.11" length="36.94" width="3.50" shape="520.38,-163.72 513.93,-166.96 504.57,-171.13 491.29,-176.56 486.51,-178.43"/>
    </edge>
    <edge id=":30_1" function="internal">
        <lane id=":30_1_0" index="0" disallow="pedestrian tram rail_urban rail rail_electric rail_fast ship" speed="12.16" length="33.99" width="3.50" shape="520.38,-163.71 517.00,-165.78 514.93,-167.37 513.03,-169.16 511.37,-171.17 510.66,-172.26 510.03,-173.40 509.50,-174.60 509.08,-175.83 508.76,-177.10 508.55,-178.38 508.45,-179.68 508.55,-182.29 508.99,-184.86 509.72,-187.37 510.67,-189.79 511.82,-192.17"/>
    </edge>
    <edge id=":30_2" function="internal">
        <lane id=":30_2_0" index="0" disallow="pedestrian tram rail_urban rail rail_electric rail_fast ship" speed="11.16" length="28.41" width="3.50" shape="514.92,-190.54 513.92,-188.48 513.10,-186.38 512.48,-184.26 512.10,-182.11 512.02,-179.94 512.11,-178.92 512.27,-177.88 512.53,-176.87 512.87,-175.88 513.29,-174.92 513.80,-173.99 514.36,-173.13 515.75,-171.44 517.34,-169.94 519.10,-168.59 522.01,-166.81"/>
    </edge>
    <edge id=":30_3" function="internal">
        <lane id=":30_3_0" index="0" disallow="pedestrian tram rail_urban rail rail_electric rail_fast ship" speed="12.80" length="34.56" width="3.50" shape="514.92,-190.54 512.98,-187.20 511.51,-185.10 509.88,-183.13 508.07,-181.33 506.07,-179.74 503.88,-178.42 501.52,-177.43 499.04,-176.79 496.50,-176.53 493.94,-176.60 491.41,-176.97 488.93,-177.59 486.51,-178.43"/>
    </edge>
    <edge id=":30_4" function="internal">
        <lane id=":30_4_0" index="0" disallow="pedestrian tram rail_urban rail rail_electric rail_fast ship" speed="11.84" length="29.44" width="3.50" shape="487.75,-181.70 489.88,-180.97 492.01,-180.43 494.16,-180.12 496.30,-180.07 498.41,-180.30 500.45,-180.83 502.39,-181.66 504.21,-182.77 505.89,-184.12 507.43,-185.67 508.83,-187.38 510.10,-189.20 511.82,-192.17"/>
    </edge>
    <edge id=":30_5" function="internal">
        <lane id=":30_5_0" index="0" disallow="pedestrian tram rail_urban rail rail_electric rail_fast ship" speed="36.11" length="37.38" width="3.50" shape="487.75,-181.70 492.60,-179.81 506.00,-174.33 515.47,-170.10 522.01,-166.81"/>
    </edge>
    <edge id=":31_0" function="internal">
        <lane id=":31_0_0" index="0" disallow="pedestrian tram rail_urban rail rail_electric rail_fast ship" speed="36.11" length="63.03" width="3.50" shape="558.98,-274.78 544.39,-246.85 529.80,-218.91"/>
    </edge>
    <edge id=":31_1" function="internal">
        <lane id=":31_1_0" index="0" disallow="pedestrian tram rail_urban rail rail_electric rail_fast ship" speed="33.69" length="62.79" width="3.50" shape="532.51,-281.13 533.49,-267.55 533.98,-256.05 534.06,-246.63 533.82,-239.31 533.32,-233.06 532.57,-227.88 531.65,-223.80 530.66,-220.82 529.80,-218.91"/>
    </edge>
    <edge id=":31_2" function="internal">
        <lane id=":31_2_0" index="0" disallow="pedestrian tram rail_urban rail rail_electric rail_fast ship" speed="33.17" length="60.85" width="3.50" shape="526.68,-220.51 527.46,-222.23 528.36,-225.00 529.22,-228.87 529.91,-233.85 530.37,-239.92 530.58,-247.05 530.48,-256.25 529.99,-267.52 529.02,-280.84"/>
    </edge>
    <edge id=":31_3" function="internal">
        <lane id=":31_3_0" index="0" disallow="pedestrian tram rail_urban rail rail_electric rail_fast ship" speed="36.11" length="63.06" width="3.50" shape="526.68,-220.51 541.29,-248.47 555.88,-276.40"/>
    </edge>

    <edge id="61959" from="31" to="25" priority="3" type="highway.residential" spreadType="center" length="31.26" shape="537.11,-258.36 526.38,-311.99">
        <lane id="61959_0" index="0" disallow="pedestrian tram rail_urban rail rail_electric rail_fast ship" speed="36.11" length="31.26" width="3.50" customShape="1" shape="529.02,-280.84 527.70,-296.40 526.38,-311.99"/>
    </edge>
    <edge id="61960" from="27" to="31" priority="3" type="highway.residential" spreadType="center" length="31.27" shape="529.87,-312.28 540.54,-259.05">
        <lane id="61960_0" index="0" disallow="pedestrian tram rail_urban rail rail_electric rail_fast ship" speed="36.11" length="31.27" width="3.50" customShape="1" shape="529.87,-312.28 531.19,-296.70 532.51,-281.12"/>
    </edge>
    <edge id="62021" from="30" to="11" priority="3" type="highway.residential" spreadType="center" length="70.00" shape="506.07,-177.58 448.06,-230.84">
        <lane id="62021_0" index="0" disallow="pedestrian tram rail_urban rail rail_electric rail_fast ship" speed="36.11" length="70.00" width="3.50" customShape="1" shape="486.51,-178.43 480.40,-180.79 475.32,-183.00 471.76,-184.89 468.80,-186.80 466.02,-188.98 463.09,-191.74 460.40,-194.75 458.00,-197.98 455.62,-201.84 453.56,-205.88 452.19,-209.13 451.00,-212.98 450.04,-217.42 448.06,-230.84"/>
    </edge>
    <edge id="62022" from="20" to="30" priority="3" type="highway.residential" spreadType="center" length="70.02" shape="451.07,-235.05 508.46,-180.13">
        <lane id="62022_0" index="0" disallow="pedestrian tram rail_urban rail rail_electric rail_fast ship" speed="36.11" length="70.02" width="3.50" customShape="1" shape="451.07,-235.05 451.25,-233.38 453.25,-219.53 454.08,-215.21 455.10,-211.49 456.29,-208.38 458.20,-204.44 460.42,-200.68 462.66,-197.54 465.17,-194.62 467.95,-191.95 470.56,-189.85 473.35,-188.01 476.76,-186.19 481.72,-184.03 487.77,-181.69"/>
    </edge>
    <edge id="62024" from="29" to="30" priority="3" type="highway.residential" spreadType="center" length="22.64" shape="553.92,-147.61 506.25,-177.44">
        <lane id="62024_0" index="0" disallow="pedestrian tram rail_urban rail rail_electric rail_fast ship" speed="36.11" length="22.64" width="3.50" customShape="1" shape="540.51,-153.46 532.17,-157.49 520.34,-163.74"/>
    </edge>
    <edge id="62025" from="30" to="29" priority="3" type="highway.residential" spreadType="center" length="22.47" shape="508.11,-180.41 555.78,-150.58">
        <lane id="62025_0" index="0" disallow="pedestrian tram rail_urban rail rail_electric rail_fast ship" speed="36.11" length="22.47" width="3.50" customShape="1" shape="522.01,-166.81 533.73,-160.62 542.03,-156.61"/>
    </edge>
    <edge id="62161" from="29" to="13" priority="3" type="highway.residential" spreadType="center" length="69.87" shape="552.00,-151.12 608.26,-224.33">
        <lane id="62161_0" index="0" disallow="pedestrian tram rail_urban rail rail_electric rail_fast ship" speed="36.11" length="70.14" width="3.50" customShape="1" shape="568.57,-166.63 585.48,-193.98 593.95,-207.06 601.64,-218.24 606.85,-225.37"/>
        <lane id="62161_1" index="1" disallow="pedestrian tram rail_urban rail rail_electric rail_fast ship" speed="36.11" length="69.87" width="3.50" customShape="1" shape="571.55,-164.78 588.42,-192.08 596.85,-205.10 604.50,-216.23 609.67,-223.30"/>
    </edge>
    <edge id="62164" from="21" to="29" priority="3" type="highway.residential" spreadType="center" length="69.86" shape="614.23,-220.64 557.54,-146.86">
        <lane id="62164_0" index="0" disallow="pedestrian tram rail_urban rail rail_electric rail_fast ship" speed="36.11" length="69.86" width="3.50" customShape="1" shape="615.64,-219.61 610.33,-212.34 602.71,-201.27 594.31,-188.30 577.50,-161.11"/>
        <lane id="62164_1" index="1" disallow="pedestrian tram rail_urban rail rail_electric rail_fast ship" speed="36.11" length="70.15" width="3.50" customShape="1" shape="612.82,-221.68 607.41,-214.29 599.78,-203.18 591.37,-190.19 574.52,-162.94"/>
    </edge>
    <edge id="62166" from="22" to="29" priority="3" type="highway.residential" spreadType="center" length="69.67" shape="518.42,-65.91 551.65,-150.50">
        <lane id="62166_0" index="0" disallow="pedestrian tram rail_urban rail rail_electric rail_fast ship" speed="36.11" length="69.67" width="3.50" customShape="1" shape="516.97,-66.90 517.15,-67.14 521.60,-73.70 526.00,-80.88 530.33,-88.68 534.79,-97.53 539.56,-107.88 548.55,-128.83"/>
        <lane id="62166_1" index="1" disallow="pedestrian tram rail_urban rail rail_electric rail_fast ship" speed="36.11" length="70.34" width="3.50" customShape="1" shape="519.88,-64.92 524.56,-71.84 529.02,-79.11 533.41,-87.01 537.92,-95.96 542.73,-106.40 551.76,-127.45"/>
    </edge>
    <edge id="62169" from="29" to="14" priority="3" type="highway.residential" spreadType="center" length="69.67" shape="558.16,-147.94 524.98,-63.09">
        <lane id="62169_0" index="0" disallow="pedestrian tram rail_urban rail rail_electric rail_fast ship" speed="36.11" length="70.33" width="3.50" customShape="1" shape="558.20,-124.69 548.97,-103.20 544.04,-92.54 539.43,-83.42 534.95,-75.38 530.39,-67.96 526.43,-62.11"/>
        <lane id="62169_1" index="1" disallow="pedestrian tram rail_urban rail rail_electric rail_fast ship" speed="36.11" length="69.67" width="3.50" customShape="1" shape="554.98,-126.07 545.85,-104.80 540.98,-94.25 536.42,-85.22 531.98,-77.25 527.48,-69.90 523.53,-64.07"/>
    </edge>
    <edge id="62207" from="31" to="26" priority="3" type="highway.residential" spreadType="center" length="30.99" shape="537.37,-259.76 570.21,-303.88">
        <lane id="62207_0" index="0" disallow="pedestrian tram rail_urban rail rail_electric rail_fast ship" speed="36.11" length="30.99" width="3.50" customShape="1" shape="555.88,-276.40 563.05,-290.15 570.21,-303.88"/>
    </edge>
    <edge id="62208" from="28" to="31" priority="3" type="highway.residential" spreadType="center" length="31.01" shape="573.32,-302.27 540.18,-257.67">
        <lane id="62208_0" index="0" disallow="pedestrian tram rail_urban rail rail_electric rail_fast ship" speed="36.11" length="31.01" width="3.50" customShape="1" shape="573.32,-302.27 566.15,-288.53 558.98,-274.78"/>
    </edge>
    <edge id="62210" from="30" to="31" priority="3" type="highway.residential" spreadType="center" length="32.04" shape="505.60,-179.54 537.20,-259.44">
        <lane id="62210_0" index="0" disallow="pedestrian tram rail_urban rail rail_electric rail_fast ship" speed="36.11" length="32.04" width="3.50" customShape="1" shape="511.82,-192.17 519.25,-206.34 526.70,-220.54"/>
    </edge>
    <edge id="62211" from="31" to="30" priority="3" type="highway.residential" spreadType="center" length="32.04" shape="540.45,-258.15 508.85,-178.25">
        <lane id="62211_0" index="0" disallow="pedestrian tram rail_urban rail rail_electric rail_fast ship" speed="36.11" length="32.04" width="3.50" customShape="1" shape="529.80,-218.91 522.35,-204.72 514.92,-190.54"/>
    </edge>

    <junction id="11" type="dead_end" x="448.06" y="-230.84" incLanes="62021_0" intLanes="" shape="446.33,-230.58 449.79,-231.10" rightOfWay="edgePriority"/>
    <junction id="13" type="dead_end" x="608.26" y="-224.33" incLanes="62161_0 62161_1" intLanes="" shape="605.44,-226.40 611.08,-222.27" rightOfWay="edgePriority"/>
    <junction id="14" type="dead_end" x="524.98" y="-63.09" incLanes="62169_0 62169_1" intLanes="" shape="527.87,-61.13 522.08,-65.05" rightOfWay="edgePriority"/>
    <junction id="20" type="dead_end" x="451.07" y="-235.05" incLanes="" intLanes="" shape="449.33,-234.86 452.81,-235.23" rightOfWay="edgePriority"/>
    <junction id="21" type="dead_end" x="614.23" y="-220.64" incLanes="" intLanes="" shape="611.41,-222.71 617.06,-218.57" rightOfWay="edgePriority"/>
    <junction id="22" type="dead_end" x="518.42" y="-65.91" incLanes="" intLanes="" shape="521.33,-63.94 515.52,-67.88" rightOfWay="edgePriority"/>
    <junction id="25" type="dead_end" x="526.38" y="-311.99" incLanes="61959_0" intLanes="" shape="524.64,-311.85 528.13,-312.14" rightOfWay="edgePriority"/>
    <junction id="26" type="dead_end" x="570.21" y="-303.88" incLanes="62207_0" intLanes="" shape="568.66,-304.69 571.77,-303.07" rightOfWay="edgePriority"/>
    <junction id="27" type="dead_end" x="529.87" y="-312.28" incLanes="" intLanes="" shape="528.13,-312.13 531.62,-312.42" rightOfWay="edgePriority"/>
    <junction id="28" type="dead_end" x="573.32" y="-302.27" incLanes="" intLanes="" shape="571.77,-303.08 574.87,-301.46" rightOfWay="edgePriority"/>
    <junction id="29" type="priority" x="554.85" y="-149.09" incLanes="62164_0 62164_1 62025_0 62166_0 62166_1" intLanes=":29_0_0 :29_0_1 :29_2_0 :29_3_0 :29_4_0 :29_5_0 :29_6_0 :29_6_1" shape="578.99,-160.19 567.08,-167.55 563.62,-162.78 559.92,-159.29 555.99,-157.08 551.82,-156.16 547.42,-156.53 542.79,-158.18 539.75,-151.88 543.81,-149.40 546.73,-146.41 548.50,-142.94 549.12,-138.96 548.60,-134.49 546.94,-129.52 559.80,-124.00 563.28,-132.01 565.98,-137.88 568.39,-142.62 571.03,-147.25 574.39,-152.77">
        <request index="0" response="00000000" foes="00010000" cont="0"/>
        <request index="1" response="00000000" foes="00010000" cont="0"/>
        <request index="2" response="11100000" foes="11110000" cont="0"/>
        <request index="3" response="11000000" foes="11000000" cont="0"/>
        <request index="4" response="11000111" foes="11000111" cont="0"/>
        <request index="5" response="00000000" foes="00000100" cont="0"/>
        <request index="6" response="00000000" foes="00011100" cont="0"/>
        <request index="7" response="00000000" foes="00011100" cont="0"/>
    </junction>
    <junction id="30" type="priority" x="507.23" y="-178.90" incLanes="62024_0 62211_0 62022_0" intLanes=":30_0_0 :30_1_0 :30_2_0 :30_3_0 :30_4_0 :30_5_0" shape="519.56,-162.17 522.83,-168.36 518.83,-170.97 516.01,-173.96 514.36,-177.33 513.89,-181.09 514.59,-185.22 516.47,-189.73 510.27,-192.98 507.47,-188.53 504.33,-185.22 500.86,-183.04 497.04,-182.00 492.89,-182.09 488.40,-183.32 485.88,-176.79 493.20,-174.01 498.62,-171.97 503.06,-170.22 507.42,-168.30 512.62,-165.77">
        <request index="0" response="000000" foes="001000" cont="0"/>
        <request index="1" response="110000" foes="111000" cont="0"/>
        <request index="2" response="100000" foes="100000" cont="0"/>
        <request index="3" response="100011" foes="100011" cont="0"/>
        <request index="4" response="000000" foes="000010" cont="0"/>
        <request index="5" response="000000" foes="001110" cont="0"/>
    </junction>
    <junction id="31" type="priority" x="538.81" y="-258.76" incLanes="62208_0 61960_0 62210_0" intLanes=":31_0_0 :31_1_0 :31_2_0 :31_3_0" shape="560.53,-273.98 554.33,-277.21 551.08,-273.22 547.00,-271.26 542.67,-271.21 538.71,-272.94 535.71,-276.34 534.25,-281.28 527.28,-280.69 528.66,-269.18 530.24,-259.15 531.36,-249.98 531.33,-241.04 529.48,-231.70 525.15,-221.35 531.34,-218.10">
        <request index="0" response="0000" foes="0010" cont="0"/>
        <request index="1" response="1001" foes="1001" cont="0"/>
        <request index="2" response="0000" foes="0000" cont="0"/>
        <request index="3" response="0000" foes="0010" cont="0"/>
    </junction>

    <connection from="61960" to="62211" fromLane="0" toLane="0" contPos="-4.00" shape="532.51,-281.12 533.49,-267.55 533.98,-256.05 534.06,-246.63 533.82,-239.31 533.32,-233.06 532.57,-227.88 531.65,-223.80 530.66,-220.82 529.80,-218.91" via=":31_1_0" dir="s" state="m"/>
    <connection from="62022" to="62210" fromLane="0" toLane="0" contPos="-4.00" shape="487.75,-181.70 489.88,-180.97 492.01,-180.43 494.16,-180.12 496.30,-180.07 498.41,-180.30 500.45,-180.83 502.39,-181.66 504.21,-182.77 505.89,-184.12 507.43,-185.67 508.83,-187.38 510.10,-189.20 511.82,-192.17" via=":30_4_0" dir="r" state="M"/>
    <connection from="62022" to="62025" fromLane="0" toLane="0" contPos="-4.00" shape="487.75,-181.70 492.60,-179.81 506.00,-174.33 515.47,-170.10 522.01,-166.81" via=":30_5_0" dir="s" state="M"/>
    <connection from="62024" to="62021" fromLane="0" toLane="0" contPos="-4.00" shape="520.34,-163.74 513.93,-166.96 504.57,-171.13 491.29,-176.56 486.51,-178.43" via=":30_0_0" dir="s" state="M"/>
    <connection from="62024" to="62210" fromLane="0" toLane="0" contPos="-4.00" shape="520.34,-163.74 517.00,-165.78 514.93,-167.37 513.03,-169.16 511.37,-171.17 510.66,-172.26 510.03,-173.40 509.50,-174.60 509.08,-175.83 508.76,-177.10 508.55,-178.38 508.45,-179.68 508.55,-182.29 508.99,-184.86 509.72,-187.37 510.67,-189.79 511.82,-192.17" via=":30_1_0" dir="l" state="m"/>
    <connection from="62025" to="62161" fromLane="0" toLane="0" contPos="-4.00" shape="541.98,-156.63 544.60,-155.59 547.33,-154.85 549.57,-154.53 551.84,-154.49 554.08,-154.77 556.27,-155.37 558.35,-156.27 560.29,-157.42 562.52,-159.17 564.53,-161.17 566.67,-163.80 568.57,-166.63" via=":29_3_0" dir="r" state="m"/>
    <connection from="62025" to="62169" fromLane="0" toLane="1" contPos="-4.00" shape="541.98,-156.63 545.60,-154.78 548.54,-152.90 550.83,-151.09 552.89,-149.03 554.33,-147.20 555.54,-145.21 556.47,-143.08 557.11,-140.84 557.44,-138.53 557.48,-136.20 557.18,-133.31 556.54,-130.46 555.42,-127.15 554.98,-126.07" via=":29_4_0" dir="l" state="m"/>
    <connection from="62164" to="62169" fromLane="0" toLane="0" contPos="-4.00" shape="577.50,-161.11 572.79,-153.26 568.27,-145.28 564.02,-137.17 560.05,-128.90 558.20,-124.69" via=":29_0_0" dir="s" state="M"/>
    <connection from="62164" to="62169" fromLane="1" toLane="1" contPos="-4.00" shape="574.52,-162.94 569.75,-154.99 565.18,-146.91 560.86,-138.69 556.85,-130.32 554.98,-126.07" via=":29_0_1" dir="s" state="M"/>
    <connection from="62164" to="62024" fromLane="1" toLane="0" contPos="-4.00" shape="574.52,-162.94 572.29,-159.69 570.10,-157.12 568.05,-155.17 565.81,-153.48 563.36,-152.08 560.75,-151.02 558.01,-150.35 555.21,-150.05 552.39,-150.11 549.60,-150.48 546.31,-151.26 542.58,-152.57 540.51,-153.46" via=":29_2_0" dir="l" state="m"/>
    <connection from="62166" to="62024" fromLane="0" toLane="0" contPos="-4.00" shape="548.54,-128.81 549.76,-132.07 550.51,-134.87 550.92,-137.74 550.95,-140.05 550.64,-142.34 549.97,-144.56 549.22,-146.12 547.92,-148.04 546.33,-149.72 544.53,-151.17 542.06,-152.69 540.51,-153.46" via=":29_5_0" dir="r" state="M"/>
    <connection from="62166" to="62161" fromLane="0" toLane="0" contPos="-4.00" shape="548.54,-128.81 550.46,-133.17 554.57,-141.76 558.99,-150.18 563.67,-158.47 568.57,-166.63" via=":29_6_0" dir="s" state="M"/>
    <connection from="62166" to="62161" fromLane="1" toLane="1" contPos="-4.00" shape="551.76,-127.45 553.65,-131.72 557.70,-140.19 562.07,-148.52 566.70,-156.71 571.55,-164.78" via=":29_6_1" dir="s" state="M"/>
    <connection from="62208" to="62211" fromLane="0" toLane="0" contPos="-4.00" shape="558.98,-274.78 544.39,-246.85 529.80,-218.91" via=":31_0_0" dir="s" state="M"/>
    <connection from="62210" to="61959" fromLane="0" toLane="0" contPos="-4.00" shape="526.68,-220.51 527.46,-222.23 528.36,-225.00 529.22,-228.87 529.91,-233.85 530.37,-239.92 530.58,-247.05 530.48,-256.25 529.99,-267.52 529.02,-280.84" via=":31_2_0" dir="R" state="M"/>
    <connection from="62210" to="62207" fromLane="0" toLane="0" contPos="-4.00" shape="526.68,-220.51 541.29,-248.47 555.88,-276.40" via=":31_3_0" dir="s" state="M"/>
    <connection from="62211" to="62025" fromLane="0" toLane="0" contPos="-4.00" shape="514.92,-190.54 513.92,-188.48 513.10,-186.38 512.48,-184.26 512.10,-182.11 512.02,-179.94 512.11,-178.92 512.27,-177.88 512.53,-176.87 512.87,-175.88 513.29,-174.92 513.80,-173.99 514.36,-173.13 515.75,-171.44 517.34,-169.94 519.10,-168.59 522.01,-166.81" via=":30_2_0" dir="r" state="m"/>
    <connection from="62211" to="62021" fromLane="0" toLane="0" contPos="-4.00" shape="514.92,-190.54 512.98,-187.20 511.51,-185.10 509.88,-183.13 508.07,-181.33 506.07,-179.74 503.88,-178.42 501.52,-177.43 499.04,-176.79 496.50,-176.53 493.94,-176.60 491.41,-176.97 488.93,-177.59 486.51,-178.43" via=":30_3_0" dir="l" state="m"/>

    <connection from=":29_0" to="62169" fromLane="0" toLane="0" dir="s" state="M"/>
    <connection from=":29_0" to="62169" fromLane="1" toLane="1" dir="s" state="M"/>
    <connection from=":29_2" to="62024" fromLane="0" toLane="0" dir="l" state="M"/>
    <connection from=":29_3" to="62161" fromLane="0" toLane="0" dir="r" state="M"/>
    <connection from=":29_4" to="62169" fromLane="0" toLane="1" dir="l" state="M"/>
    <connection from=":29_5" to="62024" fromLane="0" toLane="0" dir="r" state="M"/>
    <connection from=":29_6" to="62161" fromLane="0" toLane="0" dir="s" state="M"/>
    <connection from=":29_6" to="62161" fromLane="1" toLane="1" dir="s" state="M"/>
    <connection from=":30_0" to="62021" fromLane="0" toLane="0" dir="s" state="M"/>
    <connection from=":30_1" to="62210" fromLane="0" toLane="0" dir="l" state="M"/>
    <connection from=":30_2" to="62025" fromLane="0" toLane="0" dir="r" state="M"/>
    <connection from=":30_3" to="62021" fromLane="0" toLane="0" dir="l" state="M"/>
    <connection from=":30_4" to="62210" fromLane="0" toLane="0" dir="r" state="M"/>
    <connection from=":30_5" to="62025" fromLane="0" toLane="0" dir="s" state="M"/>
    <connection from=":31_0" to="62211" fromLane="0" toLane="0" dir="s" state="M"/>
    <connection from=":31_1" to="62211" fromLane="0" toLane="0" dir="s" state="M"/>
    <connection from=":31_2" to="61959" fromLane="0" toLane="0" dir="R" state="M"/>
    <connection from=":31_3" to="62207" fromLane="0" toLane="0" dir="s" state="M"/>

</net>