<routes>
	<vehicle depart="0.1" departLane="0" departPos="34.09595310258639" departSpeed="3.0892488" id="311" type="bicycle">
		<route edges=":29_4 62169"/>
	</vehicle>
	<vehicle depart="0.1" departLane="1" departPos="57.721173201122625" departSpeed="0.26241655" id="356" type="bus">
		<route edges="62166 62161"/>
	</vehicle>
	<vehicle depart="0.1" departLane="0" departPos="30.36271565986075" departSpeed="2.5364815" id="35" type="passenger">
		<route edges=":29_2 62024"/>
	</vehicle>
	<vehicle depart="0.1" departLane="1" departPos="67.33797822620956" departSpeed="0.93599955" id="310" type="passenger">
		<route edges="62164 62024"/>
	</vehicle>
	<vehicle depart="0.1" departLane="0" departPos="10.86247734925649" departSpeed="0.6566074" id="318" type="passenger">
		<route edges="62024 62210"/>
	</vehicle>
	<vehicle depart="0.1" departLane="0" departPos="69.02192456158201" departSpeed="0.0" id="319" type="passenger">
		<route edges="62166 62024"/>
	</vehicle>
	<vehicle depart="0.1" departLane="0" departPos="27.25284101533214" departSpeed="9.1779394" id="345" type="passenger">
		<route edges=":30_5 62025 62169"/>
	</vehicle>
	<vehicle depart="0.1" departLane="0" departPos="6.380635376634932" departSpeed="20.216612" id="381" type="passenger">
		<route edges=":29_0 62169"/>
	</vehicle>
	<vehicle depart="0.1" departLane="0" departPos="17.890061474718667" departSpeed="1.5396734" id="37" type="motorcycle">
		<route edges="62024 62210"/>
	</vehicle>
	<vehicle depart="0.1" departLane="0" departPos="14.435424299141243" departSpeed="1.410459" id="339" type="truck">
		<route edges="62025 62169"/>
	</vehicle>
</routes>
