<routes>
	<vehicle depart="0.1" departLane="0" departPos="26.832392627853526" departSpeed="9.5538428" id="38" type="bicycle">
		<route edges=":36_2 45060"/>
	</vehicle>
	<vehicle depart="0.1" departLane="0" departPos="69.53777945448778" departSpeed="0.0" id="31" type="passenger">
		<route edges="45059 44770"/>
	</vehicle>
	<vehicle depart="0.1" departLane="0" departPos="62.88720198426382" departSpeed="0.0" id="319" type="passenger">
		<route edges="45059 44770"/>
	</vehicle>
	<vehicle depart="0.1" departLane="0" departPos="51.6911417727213" departSpeed="6.6617909" id="325" type="passenger">
		<route edges="44771 44774"/>
	</vehicle>
	<vehicle depart="0.1" departLane="0" departPos="10.485674287447281" departSpeed="0.0" id="327" type="passenger">
		<route edges=":35_1 44738"/>
	</vehicle>
	<vehicle depart="0.1" departLane="0" departPos="4.6675310687363725" departSpeed="6.4775381" id="332" type="passenger">
		<route edges=":36_4 44774"/>
	</vehicle>
	<vehicle depart="0.1" departLane="0" departPos="72.50000004698448" departSpeed="1.5921181" id="333" type="passenger">
		<route edges="44823 45220"/>
	</vehicle>
	<vehicle depart="0.1" departLane="0" departPos="40.47659964945912" departSpeed="3.5790239" id="337" type="passenger">
		<route edges="44771 44774"/>
	</vehicle>
	<vehicle depart="0.1" departLane="0" departPos="17.2914936185537" departSpeed="0.067937454" id="30" type="truck">
		<route edges=":34_0 44773"/>
	</vehicle>
	<vehicle depart="0.1" departLane="0" departPos="5.813738948913425" departSpeed="1.3460249" id="323" type="truck">
		<route edges=":36_3 44770"/>
	</vehicle>
</routes>
