<!-- generated on Tue Feb  9 22:18:21 2021 by Eclipse SUMO netconvert Version 1.8.0
<configuration xmlns:xsi="http://www.w3.org/2001/XMLSchema-instance" xsi:noNamespaceSchemaLocation="http://sumo.dlr.de/xsd/netconvertConfiguration.xsd">

    <input>
        <node-files value="./converted_scenarios/scenario-factory/DEU_Backnang-7_2_I-1-1/DEU_Backnang-7_2_I-1-1.nod.xml"/>
        <edge-files value="./converted_scenarios/scenario-factory/DEU_Backnang-7_2_I-1-1/DEU_Backnang-7_2_I-1-1.edg.xml"/>
        <connection-files value="./converted_scenarios/scenario-factory/DEU_Backnang-7_2_I-1-1/DEU_Backnang-7_2_I-1-1.con.xml"/>
        <tllogic-files value="./converted_scenarios/scenario-factory/DEU_Backnang-7_2_I-1-1/DEU_Backnang-7_2_I-1-1.tll.xml"/>
        <type-files value="/home/zen/commonroad-interactive-benchmarks/install/commonroad-map-tool/crmapconverter/sumo_map/templates/DEU.typ.xml"/>
    </input>

    <output>
        <output-file value="./converted_scenarios/scenario-factory/DEU_Backnang-7_2_I-1-1/DEU_Backnang-7_2_I-1-1.net.xml"/>
    </output>

    <processing>
        <geometry.remove.keep-edges.explicit value="true"/>
        <geometry.avoid-overlap value="true"/>
        <offset.disable-normalization value="true"/>
    </processing>

    <junctions>
        <no-turnarounds value="true"/>
        <junctions.internal-link-detail value="20"/>
    </junctions>

    <report>
        <aggregate-warnings value="5"/>
    </report>

    <random_number>
        <seed value="1234"/>
    </random_number>

</configuration>
--><net xmlns:xsi="http://www.w3.org/2001/XMLSchema-instance" version="1.6" junctionCornerDetail="5" junctionLinkDetail="20" limitTurnSpeed="5.50" xsi:noNamespaceSchemaLocation="http://sumo.dlr.de/xsd/net_file.xsd">

    <location netOffset="0.00,0.00" convBoundary="-412.50,-531.03,-187.11,-353.51" origBoundary="-412.50,-531.03,-187.11,-347.92" projParameter="!"/>

    <type id="highway.bridleway" priority="1" speed="2.78" allow="pedestrian" oneway="1" width="2.00"/>
    <type id="highway.bus_guideway" priority="1" speed="27.78" allow="bus" oneway="1"/>
    <type id="highway.cycleway" priority="1" speed="8.33" allow="bicycle" oneway="0" width="1.00"/>
    <type id="highway.footway" priority="1" speed="2.78" allow="pedestrian" oneway="1" width="2.00"/>
    <type id="highway.ford" priority="1" speed="2.78" allow="army" oneway="0"/>
    <type id="highway.living_street" priority="2" speed="2.78" disallow="tram rail_urban rail rail_electric rail_fast ship" oneway="0"/>
    <type id="highway.motorway" priority="14" speed="39.44" allow="private emergency authority army vip passenger hov taxi bus coach delivery truck trailer motorcycle evehicle custom1 custom2" oneway="1"/>
    <type id="highway.motorway_link" priority="9" speed="22.22" allow="private emergency authority army vip passenger hov taxi bus coach delivery truck trailer motorcycle evehicle custom1 custom2" oneway="1"/>
    <type id="highway.path" priority="1" speed="2.78" allow="pedestrian bicycle" oneway="0" width="2.00"/>
    <type id="highway.pedestrian" priority="1" speed="2.78" allow="pedestrian" oneway="1" width="2.00"/>
    <type id="highway.primary" priority="12" speed="27.78" disallow="pedestrian tram rail_urban rail rail_electric rail_fast ship" oneway="0"/>
    <type id="highway.primary_link" priority="7" speed="22.22" disallow="pedestrian tram rail_urban rail rail_electric rail_fast ship" oneway="0"/>
    <type id="highway.raceway" priority="15" speed="83.33" allow="vip" oneway="0"/>
    <type id="highway.residential" priority="3" speed="13.89" disallow="pedestrian tram rail_urban rail rail_electric rail_fast ship" oneway="0"/>
    <type id="highway.secondary" priority="11" speed="27.78" disallow="pedestrian tram rail_urban rail rail_electric rail_fast ship" oneway="0"/>
    <type id="highway.secondary_link" priority="6" speed="22.22" disallow="pedestrian tram rail_urban rail rail_electric rail_fast ship" oneway="0"/>
    <type id="highway.service" priority="1" speed="5.56" allow="pedestrian delivery bicycle" oneway="0"/>
    <type id="highway.stairs" priority="1" speed="1.39" allow="pedestrian" oneway="1" width="2.00"/>
    <type id="highway.step" priority="1" speed="1.39" allow="pedestrian" oneway="1" width="2.00"/>
    <type id="highway.steps" priority="1" speed="1.39" allow="pedestrian" oneway="1" width="2.00"/>
    <type id="highway.tertiary" priority="10" speed="22.22" disallow="pedestrian tram rail_urban rail rail_electric rail_fast ship" oneway="0"/>
    <type id="highway.tertiary_link" priority="5" speed="22.22" disallow="pedestrian tram rail_urban rail rail_electric rail_fast ship" oneway="0"/>
    <type id="highway.track" priority="1" speed="5.56" allow="pedestrian motorcycle moped bicycle" oneway="0"/>
    <type id="highway.trunk" priority="13" speed="27.78" disallow="pedestrian bicycle tram rail_urban rail rail_electric rail_fast ship" oneway="0"/>
    <type id="highway.trunk_link" priority="8" speed="22.22" disallow="pedestrian bicycle tram rail_urban rail rail_electric rail_fast ship" oneway="0"/>
    <type id="highway.unclassified" priority="4" speed="13.89" disallow="pedestrian tram rail_urban rail rail_electric rail_fast ship" oneway="0"/>
    <type id="highway.unsurfaced" priority="1" speed="8.33" disallow="tram rail_urban rail rail_electric rail_fast ship" oneway="0"/>
    <type id="railway.highspeed" priority="21" speed="69.44" allow="rail_fast" oneway="1"/>
    <type id="railway.light_rail" priority="19" speed="27.78" allow="rail_urban" oneway="1"/>
    <type id="railway.preserved" priority="16" speed="27.78" allow="rail" oneway="1"/>
    <type id="railway.rail" priority="20" speed="44.44" allow="rail" oneway="1"/>
    <type id="railway.subway" priority="18" speed="27.78" allow="rail_urban" oneway="1"/>
    <type id="railway.tram" priority="17" speed="13.89" allow="tram" oneway="1"/>

    <edge id=":18_0" function="internal">
        <lane id=":18_0_0" index="0" disallow="pedestrian tram rail_urban rail rail_electric rail_fast ship" speed="36.11" length="0.10" width="3.50" shape="-246.30,-488.93 -246.30,-488.93"/>
    </edge>
    <edge id=":34_0" function="internal">
        <lane id=":34_0_0" index="0" disallow="pedestrian tram rail_urban rail rail_electric rail_fast ship" speed="23.73" length="30.68" width="3.50" shape="-272.09,-435.70 -274.28,-432.19 -276.20,-428.58 -277.85,-424.84 -279.21,-420.98 -280.25,-417.03 -280.98,-413.01 -281.38,-408.94 -281.46,-406.93"/>
    </edge>
    <edge id=":34_1" function="internal">
        <lane id=":34_1_0" index="0" disallow="pedestrian tram rail_urban rail rail_electric rail_fast ship" speed="11.80" length="32.10" width="3.50" shape="-272.08,-435.69 -273.72,-433.51 -275.56,-431.58 -276.59,-430.73 -277.68,-429.95 -278.84,-429.29 -280.05,-428.73 -281.32,-428.31 -282.62,-428.02 -283.95,-427.86 -285.28,-427.82 -286.62,-427.91 -289.24,-428.40 -291.78,-429.23 -294.23,-430.32 -297.71,-432.30 -299.91,-433.79"/>
    </edge>
    <edge id=":34_2" function="internal">
        <lane id=":34_2_0" index="0" disallow="pedestrian tram rail_urban rail rail_electric rail_fast ship" speed="10.72" length="26.46" width="3.50" shape="-297.95,-436.69 -295.96,-435.34 -292.93,-433.60 -290.87,-432.67 -288.75,-431.95 -286.57,-431.51 -285.54,-431.43 -284.49,-431.43 -283.45,-431.54 -282.43,-431.74 -281.45,-432.05 -280.50,-432.46 -279.58,-432.97 -278.71,-433.57 -277.91,-434.23 -276.36,-435.82 -275.01,-437.61"/>
    </edge>
    <edge id=":34_3" function="internal">
        <lane id=":34_3_0" index="0" disallow="pedestrian tram rail_urban rail rail_electric rail_fast ship" speed="16.38" length="35.50" width="3.50" shape="-297.95,-436.69 -294.34,-433.88 -291.83,-431.58 -289.50,-429.08 -287.39,-426.37 -285.55,-423.47 -284.02,-420.37 -282.83,-417.12 -282.01,-413.76 -281.56,-410.34 -281.46,-406.93"/>
    </edge>
    <edge id=":34_4" function="internal">
        <lane id=":34_4_0" index="0" disallow="pedestrian tram rail_urban rail rail_electric rail_fast ship" speed="15.56" length="32.02" width="3.50" shape="-284.96,-406.99 -285.05,-410.07 -285.46,-413.14 -286.20,-416.16 -287.27,-419.07 -288.66,-421.84 -290.33,-424.46 -292.25,-426.90 -294.37,-429.16 -296.66,-431.25 -299.91,-433.79"/>
    </edge>
    <edge id=":34_5" function="internal">
        <lane id=":34_5_0" index="0" disallow="pedestrian tram rail_urban rail rail_electric rail_fast ship" speed="24.94" length="32.64" width="3.50" shape="-284.96,-406.99 -284.87,-409.16 -284.44,-413.48 -283.67,-417.78 -282.56,-421.99 -281.11,-426.10 -279.36,-430.09 -277.32,-433.92 -275.01,-437.61"/>
    </edge>
    <edge id=":35_0" function="internal">
        <lane id=":35_0_0" index="0" disallow="pedestrian tram rail_urban rail rail_electric rail_fast ship" speed="8.16" length="13.07" width="3.50" shape="-261.66,-443.27 -262.29,-443.18 -264.45,-442.50 -266.45,-441.46 -268.27,-440.12 -269.89,-438.54 -271.65,-436.33 -271.97,-435.86"/>
    </edge>
    <edge id=":35_1" function="internal">
        <lane id=":35_1_0" index="0" disallow="pedestrian tram rail_urban rail rail_electric rail_fast ship" speed="7.68" length="12.43" width="3.50" shape="-259.05,-448.71 -259.27,-449.07 -259.95,-450.67 -260.42,-452.35 -260.69,-454.65 -260.61,-456.97 -260.10,-459.83 -259.81,-460.77"/>
    </edge>
    <edge id=":35_2" function="internal">
        <lane id=":35_2_0" index="0" disallow="pedestrian tram rail_urban rail rail_electric rail_fast ship" speed="36.11" length="27.40" width="3.50" shape="-274.88,-437.81 -265.94,-451.39 -261.16,-459.19 -260.21,-460.94"/>
    </edge>
    <edge id=":36_0" function="internal">
        <lane id=":36_0_0" index="0" disallow="pedestrian tram rail_urban rail rail_electric rail_fast ship" speed="10.58" length="30.61" width="3.50" shape="-277.13,-358.13 -277.61,-359.36 -278.68,-361.50 -279.29,-362.41 -279.99,-363.25 -280.77,-363.98 -281.62,-364.57 -282.55,-365.02 -283.55,-365.32 -284.60,-365.47 -285.68,-365.48 -286.80,-365.37 -287.92,-365.14 -289.03,-364.83 -291.31,-363.96 -293.50,-362.86 -295.64,-361.59 -298.77,-359.46 -301.78,-357.14"/>
    </edge>
    <edge id=":36_1" function="internal">
        <lane id=":36_1_0" index="0" disallow="pedestrian tram rail_urban rail rail_electric rail_fast ship" speed="36.11" length="47.27" width="3.50" shape="-277.13,-358.13 -277.55,-359.28 -279.77,-366.23 -281.66,-373.30 -282.99,-379.44 -284.01,-385.64 -284.71,-391.89 -285.06,-398.18 -285.03,-404.46"/>
    </edge>
    <edge id=":36_2" function="internal">
        <lane id=":36_2_0" index="0" disallow="pedestrian tram rail_urban rail rail_electric rail_fast ship" speed="36.11" length="45.79" width="3.48" shape="-281.53,-404.37 -281.56,-398.25 -281.21,-392.15 -280.53,-386.08 -279.52,-380.05 -278.23,-374.08 -276.39,-367.20 -274.23,-360.41 -273.91,-359.48"/>
    </edge>
    <edge id=":36_3" function="internal">
        <lane id=":36_3_0" index="0" disallow="pedestrian tram rail_urban rail rail_electric rail_fast ship" speed="21.94" length="53.05" width="3.50" shape="-281.53,-404.37 -281.63,-402.21 -282.08,-396.88 -282.84,-391.56 -283.96,-386.30 -285.14,-382.14 -286.60,-378.06 -288.36,-374.09 -290.44,-370.27 -292.82,-366.62 -295.53,-363.20 -298.52,-360.03 -301.78,-357.14"/>
    </edge>
    <edge id=":36_4" function="internal">
        <lane id=":36_4_0" index="0" disallow="pedestrian tram rail_urban rail rail_electric rail_fast ship" speed="21.31" length="50.03" width="3.50" shape="-303.98,-359.85 -300.93,-362.56 -298.13,-365.54 -295.61,-368.75 -293.38,-372.17 -291.44,-375.77 -289.80,-379.51 -288.43,-383.36 -287.32,-387.30 -286.26,-392.30 -285.54,-397.35 -285.12,-402.44 -285.03,-404.46"/>
    </edge>
    <edge id=":36_5" function="internal">
        <lane id=":36_5_0" index="0" disallow="pedestrian tram rail_urban rail rail_electric rail_fast ship" speed="11.61" length="37.37" width="3.48" shape="-303.98,-359.85 -300.57,-362.48 -296.99,-364.90 -294.49,-366.34 -291.90,-367.58 -289.19,-368.56 -287.79,-368.91 -286.37,-369.13 -284.93,-369.21 -283.50,-369.11 -282.09,-368.82 -280.74,-368.32 -279.48,-367.62 -278.35,-366.74 -277.33,-365.72 -276.44,-364.59 -275.67,-363.38 -274.41,-360.79 -273.91,-359.48"/>
    </edge>
    <edge id=":37_0" function="internal">
        <lane id=":37_0_0" index="0" disallow="pedestrian tram rail_urban rail rail_electric rail_fast ship" speed="36.11" length="36.20" width="3.50" shape="-310.13,-440.40 -310.97,-440.88 -315.58,-443.21 -320.33,-445.22 -325.20,-446.96 -331.17,-448.74 -337.23,-450.22 -344.37,-451.61"/>
    </edge>
    <edge id=":37_1" function="internal">
        <lane id=":37_1_0" index="0" disallow="pedestrian tram rail_urban rail rail_electric rail_fast ship" speed="12.78" length="32.85" width="3.50" shape="-310.13,-440.40 -313.21,-442.34 -316.12,-444.61 -317.94,-446.35 -319.59,-448.27 -321.02,-450.39 -322.16,-452.70 -322.97,-455.17 -323.41,-457.72 -323.48,-460.30 -323.23,-462.84 -322.70,-465.31 -321.94,-467.68"/>
    </edge>
    <edge id=":37_2" function="internal">
        <lane id=":37_2_0" index="0" disallow="pedestrian tram rail_urban rail rail_electric rail_fast ship" speed="11.81" length="27.91" width="3.50" shape="-318.66,-466.45 -319.30,-464.43 -319.75,-462.33 -319.96,-460.19 -319.88,-458.04 -319.50,-455.93 -318.81,-453.90 -317.83,-451.98 -316.62,-450.21 -315.21,-448.59 -313.64,-447.11 -311.09,-445.14 -308.36,-443.42"/>
    </edge>
    <edge id=":37_3" function="internal">
        <lane id=":37_3_0" index="0" disallow="pedestrian tram rail_urban rail rail_electric rail_fast ship" speed="12.98" length="32.74" width="3.50" shape="-318.66,-466.45 -320.11,-463.10 -321.32,-460.91 -322.75,-458.83 -324.41,-456.91 -326.32,-455.20 -328.46,-453.75 -330.78,-452.62 -333.21,-451.82 -335.71,-451.34 -338.22,-451.14 -340.73,-451.18 -344.37,-451.61"/>
    </edge>
    <edge id=":37_4" function="internal">
        <lane id=":37_4_0" index="0" disallow="pedestrian tram rail_urban rail rail_electric rail_fast ship" speed="12.00" length="27.87" width="3.50" shape="-343.79,-455.06 -340.60,-454.69 -338.45,-454.65 -336.31,-454.82 -334.20,-455.23 -332.17,-455.89 -330.24,-456.83 -328.46,-458.04 -326.87,-459.47 -325.46,-461.09 -324.25,-462.86 -323.21,-464.74 -321.94,-467.68"/>
    </edge>
    <edge id=":37_5" function="internal">
        <lane id=":37_5_0" index="0" disallow="pedestrian tram rail_urban rail rail_electric rail_fast ship" speed="36.11" length="37.48" width="3.50" shape="-343.79,-455.06 -336.44,-453.63 -330.19,-452.10 -324.04,-450.26 -319.00,-448.45 -314.07,-446.36 -309.29,-443.95 -308.36,-443.42"/>
    </edge>

    <edge id="44693" from="37" to="15" priority="3" type="highway.residential" spreadType="center" length="70.00" shape="-324.80,-452.37 -412.50,-467.17">
        <lane id="44693_0" index="0" disallow="pedestrian tram rail_urban rail rail_electric rail_fast ship" speed="36.11" length="70.00" width="3.50" customShape="1" shape="-344.37,-451.61 -365.37,-455.18 -378.32,-457.64 -388.70,-459.98 -398.00,-462.47 -407.19,-465.34 -412.50,-467.17"/>
    </edge>
    <edge id="44694" from="31" to="37" priority="3" type="highway.residential" spreadType="center" length="70.01" shape="-411.91,-470.67 -324.22,-455.82">
        <lane id="44694_0" index="0" disallow="pedestrian tram rail_urban rail rail_electric rail_fast ship" speed="36.11" length="70.01" width="3.50" customShape="1" shape="-411.91,-470.67 -405.87,-468.59 -396.81,-465.76 -387.64,-463.32 -377.40,-461.02 -364.60,-458.60 -343.78,-455.06"/>
    </edge>
    <edge id="44738" from="35" to="18" priority="3" type="highway.residential" spreadType="center" length="31.30">
        <lane id="44738_0" index="0" disallow="pedestrian tram rail_urban rail rail_electric rail_fast ship" speed="36.11" length="31.30" width="3.50" customShape="1" shape="-260.01,-460.86 -254.42,-474.09 -251.54,-480.11 -248.80,-485.04 -246.30,-488.93"/>
    </edge>
    <edge id="44770" from="36" to="26" priority="3" type="highway.residential" spreadType="center" length="70.00" shape="-286.81,-372.23 -369.31,-353.51">
        <lane id="44770_0" index="0" disallow="pedestrian tram rail_urban rail rail_electric rail_fast ship" speed="36.11" length="70.00" width="3.50" customShape="1" shape="-301.78,-357.14 -302.58,-356.50 -305.50,-354.52 -308.60,-352.81 -311.83,-351.38 -315.67,-350.10 -319.60,-349.16 -324.09,-348.45 -329.12,-348.01 -334.17,-347.92 -339.72,-348.19 -345.74,-348.86 -353.22,-350.11 -369.31,-353.51"/>
    </edge>
    <edge id="44771" from="32" to="36" priority="3" type="highway.residential" spreadType="center" length="70.05" shape="-371.65,-357.53 -287.57,-375.64">
        <lane id="44771_0" index="0" disallow="pedestrian tram rail_urban rail rail_electric rail_fast ship" speed="36.11" length="70.05" width="3.50" customShape="1" shape="-371.65,-357.53 -370.25,-357.27 -353.96,-353.83 -346.59,-352.53 -340.68,-351.80 -335.25,-351.46 -330.33,-351.47 -325.42,-351.82 -321.06,-352.45 -317.26,-353.30 -313.57,-354.47 -310.47,-355.78 -307.52,-357.39 -304.71,-359.28 -303.95,-359.88"/>
    </edge>
    <edge id="44773" from="34" to="36" priority="3" type="highway.residential" spreadType="center" length="2.58" shape="-283.47,-426.20 -285.49,-373.80">
        <lane id="44773_0" index="0" disallow="pedestrian tram rail_urban rail rail_electric rail_fast ship" speed="36.11" length="2.58" width="3.50" customShape="1" shape="-281.46,-406.93 -281.49,-405.63 -281.53,-404.35"/>
    </edge>
    <edge id="44774" from="36" to="34" priority="3" type="highway.residential" spreadType="center" length="2.56" shape="-288.99,-373.93 -286.97,-426.34">
        <lane id="44774_0" index="0" disallow="pedestrian tram rail_urban rail rail_electric rail_fast ship" speed="36.11" length="2.56" width="3.50" customShape="1" shape="-285.03,-404.46 -284.99,-405.73 -284.96,-407.02"/>
    </edge>
    <edge id="44776" from="37" to="34" priority="3" type="highway.residential" spreadType="center" length="12.49" shape="-323.58,-455.57 -284.21,-427.70">
        <lane id="44776_0" index="0" disallow="pedestrian tram rail_urban rail rail_electric rail_fast ship" speed="36.11" length="12.49" width="3.50" customShape="1" shape="-308.36,-443.42 -303.92,-440.72 -297.88,-436.64"/>
    </edge>
    <edge id="44777" from="34" to="37" priority="3" type="highway.residential" spreadType="center" length="12.23" shape="-286.23,-424.84 -325.60,-452.71">
        <lane id="44777_0" index="0" disallow="pedestrian tram rail_urban rail rail_electric rail_fast ship" speed="36.11" length="12.23" width="3.50" customShape="1" shape="-299.91,-433.79 -305.80,-437.77 -310.18,-440.43"/>
    </edge>
    <edge id="44779" from="28" to="37" priority="3" type="highway.residential" spreadType="center" length="70.06" shape="-289.06,-529.80 -322.96,-453.36">
        <lane id="44779_0" index="0" disallow="pedestrian tram rail_urban rail rail_electric rail_fast ship" speed="36.11" length="70.06" width="3.50" customShape="1" shape="-289.06,-529.80 -291.41,-523.37 -294.38,-516.40 -298.33,-508.21 -307.74,-490.34 -312.51,-480.87 -316.05,-473.05 -318.69,-466.39"/>
    </edge>
    <edge id="44780" from="37" to="16" priority="3" type="highway.residential" spreadType="center" length="70.00" shape="-326.16,-454.78 -292.33,-531.03">
        <lane id="44780_0" index="0" disallow="pedestrian tram rail_urban rail rail_electric rail_fast ship" speed="36.11" length="70.00" width="3.50" customShape="1" shape="-321.94,-467.68 -319.32,-474.31 -315.77,-482.17 -311.00,-491.65 -301.64,-509.43 -297.73,-517.50 -294.79,-524.35 -292.39,-530.87 -292.33,-531.03"/>
    </edge>
    <edge id="44823" from="30" to="35" priority="3" type="highway.residential" spreadType="center" length="81.20">
        <lane id="44823_0" index="0" disallow="pedestrian tram rail_urban rail rail_electric rail_fast ship" speed="36.11" length="81.20" width="3.50" customShape="1" shape="-187.11,-410.94 -197.35,-415.85 -260.35,-446.00"/>
    </edge>
    <edge id="45059" from="33" to="36" priority="3" type="highway.residential" spreadType="center" length="69.86" shape="-217.01,-374.96 -287.21,-372.18">
        <lane id="45059_0" index="0" disallow="pedestrian tram rail_urban rail rail_electric rail_fast ship" speed="36.11" length="69.86" width="3.50" customShape="1" shape="-217.01,-374.96 -220.01,-373.56 -224.33,-371.11 -229.86,-367.47 -241.54,-359.16 -246.64,-355.87 -250.51,-353.76 -254.04,-352.20 -257.19,-351.19 -259.89,-350.64 -262.64,-350.41 -265.39,-350.55 -268.09,-351.08 -270.70,-351.97 -273.16,-353.21 -274.50,-354.18 -275.64,-355.38 -276.54,-356.76 -277.13,-358.13"/>
    </edge>
    <edge id="45060" from="36" to="27" priority="3" type="highway.residential" spreadType="center" length="64.24" shape="-287.34,-375.66 -218.44,-378.15">
        <lane id="45060_0" index="0" disallow="pedestrian tram rail_urban rail rail_electric rail_fast ship" speed="36.11" length="64.24" width="3.48" customShape="1" shape="-273.91,-359.48 -273.42,-358.32 -272.73,-357.33 -271.75,-356.49 -270.62,-355.81 -268.45,-354.87 -266.15,-354.25 -263.77,-353.97 -261.37,-354.03 -258.97,-354.41 -256.59,-355.06 -253.78,-356.13 -250.58,-357.69 -247.03,-359.76 -242.25,-362.93 -231.04,-370.91 -225.64,-374.41 -221.38,-376.79 -218.44,-378.15"/>
    </edge>
    <edge id="45220" from="35" to="34" priority="3" type="highway.residential" spreadType="center" length="0.25" shape="-262.76,-443.38 -284.08,-424.94">
        <lane id="45220_0" index="0" disallow="pedestrian tram rail_urban rail rail_electric rail_fast ship" speed="36.11" length="0.25" width="3.50" customShape="1" shape="-271.97,-435.86 -272.04,-435.76 -272.11,-435.65"/>
    </edge>
    <edge id="45221" from="34" to="35" priority="3" type="highway.residential" spreadType="center" length="0.24" shape="-286.37,-427.59 -265.04,-446.02">
        <lane id="45221_0" index="0" disallow="pedestrian tram rail_urban rail rail_electric rail_fast ship" speed="36.11" length="0.24" width="3.50" customShape="1" shape="-275.01,-437.61 -274.95,-437.71 -274.88,-437.81"/>
    </edge>
    <edge id="45603" from="18" to="29" priority="3" type="highway.residential" spreadType="center" length="25.89">
        <lane id="45603_0" index="0" disallow="pedestrian tram rail_urban rail rail_electric rail_fast ship" speed="36.11" length="25.89" width="3.50" customShape="1" shape="-246.30,-488.93 -244.61,-491.10 -242.65,-493.04 -240.89,-494.37 -238.97,-495.44 -236.91,-496.23 -234.76,-496.73 -232.57,-496.95 -229.82,-496.87 -227.09,-496.46 -223.90,-495.62 -223.37,-495.45"/>
    </edge>

    <junction id="15" type="dead_end" x="-412.50" y="-467.17" incLanes="44693_0" intLanes="" shape="-413.07,-465.52 -411.93,-468.83" rightOfWay="edgePriority"/>
    <junction id="16" type="dead_end" x="-292.33" y="-531.03" incLanes="44780_0" intLanes="" shape="-294.01,-531.54 -290.66,-530.51" rightOfWay="edgePriority"/>
    <junction id="18" type="priority" x="-246.30" y="-488.93" incLanes="44738_0" intLanes=":18_0_0" shape="-244.87,-487.92 -247.63,-490.06 -247.73,-489.94 -247.77,-489.86" rightOfWay="edgePriority">
        <request index="0" response="0" foes="0" cont="0"/>
    </junction>
    <junction id="26" type="dead_end" x="-369.31" y="-353.51" incLanes="44770_0" intLanes="" shape="-369.67,-351.80 -368.95,-355.22" rightOfWay="edgePriority"/>
    <junction id="27" type="dead_end" x="-218.44" y="-378.15" incLanes="45060_0" intLanes="" shape="-219.17,-379.73 -217.70,-376.57" rightOfWay="edgePriority"/>
    <junction id="28" type="dead_end" x="-289.06" y="-529.80" incLanes="" intLanes="" shape="-290.70,-530.40 -287.41,-529.20" rightOfWay="edgePriority"/>
    <junction id="29" type="dead_end" x="-223.37" y="-495.45" incLanes="45603_0" intLanes="" shape="-222.83,-497.11 -223.91,-493.78" rightOfWay="edgePriority"/>
    <junction id="30" type="dead_end" x="-187.11" y="-410.94" incLanes="" intLanes="" shape="-186.35,-412.52 -187.86,-409.37" rightOfWay="edgePriority"/>
    <junction id="31" type="dead_end" x="-411.91" y="-470.67" incLanes="" intLanes="" shape="-412.48,-469.02 -411.34,-472.32" rightOfWay="edgePriority"/>
    <junction id="32" type="dead_end" x="-371.65" y="-357.53" incLanes="" intLanes="" shape="-371.96,-355.81 -371.33,-359.25" rightOfWay="edgePriority"/>
    <junction id="33" type="dead_end" x="-217.01" y="-374.96" incLanes="" intLanes="" shape="-217.76,-376.54 -216.27,-373.37" rightOfWay="edgePriority"/>
    <junction id="34" type="priority" x="-285.22" y="-426.27" incLanes="45220_0 44776_0 44774_0" intLanes=":34_0_0 :34_1_0 :34_2_0 :34_3_0 :34_4_0 :34_5_0" shape="-270.62,-434.73 -276.47,-438.57 -278.85,-435.81 -281.64,-434.12 -284.85,-433.51 -288.47,-433.98 -292.52,-435.52 -296.97,-438.13 -300.89,-432.34 -296.44,-428.89 -292.82,-425.14 -290.04,-421.08 -288.09,-416.71 -286.98,-412.04 -286.71,-407.07 -279.71,-406.88 -279.47,-413.18 -278.99,-417.91 -278.08,-421.74 -276.52,-425.36 -274.10,-429.47">
        <request index="0" response="000000" foes="001000" cont="0"/>
        <request index="1" response="110000" foes="111000" cont="0"/>
        <request index="2" response="100000" foes="100000" cont="0"/>
        <request index="3" response="100011" foes="100011" cont="0"/>
        <request index="4" response="000000" foes="000010" cont="0"/>
        <request index="5" response="000000" foes="001110" cont="0"/>
    </junction>
    <junction id="35" type="priority" x="-263.98" y="-444.63" incLanes="44823_0 45221_0" intLanes=":35_0_0 :35_1_0 :35_2_0" shape="-261.11,-444.42 -259.60,-447.57 -260.99,-449.70 -261.02,-451.55 -260.59,-453.91 -259.72,-456.78 -258.40,-460.18 -261.62,-461.54 -264.02,-456.30 -266.10,-452.59 -268.12,-449.70 -270.33,-446.91 -272.98,-443.51 -276.33,-438.79 -270.52,-434.89 -268.28,-438.10 -266.30,-440.67 -264.60,-442.58 -263.17,-443.84 -262.00,-444.46">
        <request index="0" response="000" foes="000" cont="0"/>
        <request index="1" response="100" foes="100" cont="0"/>
        <request index="2" response="000" foes="010" cont="0"/>
    </junction>
    <junction id="36" type="priority" x="-287.24" y="-373.92" incLanes="45059_0 44773_0 44771_0" intLanes=":36_0_0 :36_1_0 :36_2_0 :36_3_0 :36_4_0 :36_5_0" shape="-278.75,-357.46 -272.30,-360.15 -275.90,-369.04 -278.22,-375.81 -279.52,-381.59 -280.04,-387.51 -280.04,-394.71 -279.78,-404.32 -286.78,-404.51 -287.51,-395.12 -289.17,-386.61 -291.75,-378.96 -295.25,-372.19 -299.68,-366.29 -305.03,-361.25 -300.69,-355.76 -296.03,-359.20 -291.67,-361.73 -287.69,-363.10 -284.17,-363.03 -281.16,-361.24">
        <request index="0" response="000000" foes="001000" cont="0"/>
        <request index="1" response="110000" foes="111000" cont="0"/>
        <request index="2" response="100000" foes="100000" cont="0"/>
        <request index="3" response="100011" foes="100011" cont="0"/>
        <request index="4" response="000000" foes="000010" cont="0"/>
        <request index="5" response="000000" foes="001110" cont="0"/>
    </junction>
    <junction id="37" type="priority" x="-324.54" y="-454.10" incLanes="44777_0 44779_0 44694_0" intLanes=":37_0_0 :37_1_0 :37_2_0 :37_3_0 :37_4_0 :37_5_0" shape="-311.09,-438.94 -307.45,-444.92 -311.71,-447.93 -314.91,-451.12 -317.05,-454.50 -318.12,-458.07 -318.12,-461.82 -317.06,-465.75 -323.57,-468.32 -325.66,-464.12 -328.24,-460.83 -331.31,-458.45 -334.88,-456.98 -338.94,-456.43 -343.49,-456.79 -344.66,-449.89 -337.18,-448.69 -331.57,-447.78 -327.00,-446.75 -322.63,-445.20 -317.60,-442.73">
        <request index="0" response="000000" foes="001000" cont="0"/>
        <request index="1" response="110000" foes="111000" cont="0"/>
        <request index="2" response="100000" foes="100000" cont="0"/>
        <request index="3" response="100011" foes="100011" cont="0"/>
        <request index="4" response="000000" foes="000010" cont="0"/>
        <request index="5" response="000000" foes="001110" cont="0"/>
    </junction>

    <connection from="44694" to="44780" fromLane="0" toLane="0" contPos="-4.00" shape="-343.79,-455.06 -340.60,-454.69 -338.45,-454.65 -336.31,-454.82 -334.20,-455.23 -332.17,-455.89 -330.24,-456.83 -328.46,-458.04 -326.87,-459.47 -325.46,-461.09 -324.25,-462.86 -323.21,-464.74 -321.94,-467.68" via=":37_4_0" dir="r" state="M"/>
    <connection from="44694" to="44776" fromLane="0" toLane="0" contPos="-4.00" shape="-343.79,-455.06 -336.44,-453.63 -330.19,-452.10 -324.04,-450.26 -319.00,-448.45 -314.07,-446.36 -309.29,-443.95 -308.36,-443.42" via=":37_5_0" dir="s" state="M"/>
    <connection from="44738" to="45603" fromLane="0" toLane="0" contPos="-4.00" via=":18_0_0" dir="l" state="M"/>
    <connection from="44771" to="44774" fromLane="0" toLane="0" contPos="-4.00" shape="-303.98,-359.85 -300.93,-362.56 -298.13,-365.54 -295.61,-368.75 -293.38,-372.17 -291.44,-375.77 -289.80,-379.51 -288.43,-383.36 -287.32,-387.30 -286.26,-392.30 -285.54,-397.35 -285.12,-402.44 -285.03,-404.46" via=":36_4_0" dir="r" state="M"/>
    <connection from="44771" to="45060" fromLane="0" toLane="0" contPos="-4.00" shape="-303.98,-359.85 -300.57,-362.48 -296.99,-364.90 -294.49,-366.34 -291.90,-367.58 -289.19,-368.56 -287.79,-368.91 -286.37,-369.13 -284.93,-369.21 -283.50,-369.11 -282.09,-368.82 -280.74,-368.32 -279.48,-367.62 -278.35,-366.74 -277.33,-365.72 -276.44,-364.59 -275.67,-363.38 -274.41,-360.79 -273.91,-359.48" via=":36_5_0" dir="s" state="M"/>
    <connection from="44773" to="45060" fromLane="0" toLane="0" contPos="-4.00" shape="-281.53,-404.35 -281.56,-398.25 -281.21,-392.15 -280.53,-386.08 -279.52,-380.05 -278.23,-374.08 -276.39,-367.20 -274.23,-360.41 -273.91,-359.48" via=":36_2_0" dir="r" state="m"/>
    <connection from="44773" to="44770" fromLane="0" toLane="0" contPos="-4.00" shape="-281.53,-404.35 -281.63,-402.21 -282.08,-396.88 -282.84,-391.56 -283.96,-386.30 -285.14,-382.14 -286.60,-378.06 -288.36,-374.09 -290.44,-370.27 -292.82,-366.62 -295.53,-363.20 -298.52,-360.03 -301.78,-357.14" via=":36_3_0" dir="l" state="m"/>