<routes>
	<vehicle depart="0.1" departLane="0" departPos="25.997606006208905" departSpeed="0.0" id="311" type="bicycle">
		<route edges="94662 94698"/>
	</vehicle>
	<vehicle depart="0.1" departLane="0" departPos="26.13994578825831" departSpeed="0.15628442" id="39" type="passenger">
		<route edges=":46_0 94698"/>
	</vehicle>
	<vehicle depart="0.1" departLane="0" departPos="25.969106647102844" departSpeed="0.0" id="323" type="passenger">
		<route edges="94662 94698"/>
	</vehicle>
	<vehicle depart="0.1" departLane="0" departPos="13.669178913920952" departSpeed="0.56309754" id="327" type="passenger">
		<route edges=":46_3 94663"/>
	</vehicle>
	<vehicle depart="0.1" departLane="0" departPos="23.652257845268178" departSpeed="0.23260115" id="330" type="passenger">
		<route edges="94695 94698"/>
	</vehicle>
	<vehicle depart="0.1" departLane="0" departPos="2.5" departSpeed="0.39552243" id="333" type="passenger">
		<route edges="94695 94698"/>
	</vehicle>
	<vehicle depart="0.1" departLane="0" departPos="18.65998752600689" departSpeed="0.0063393287" id="337" type="passenger">
		<route edges="94662 94698"/>
	</vehicle>
	<vehicle depart="0.1" departLane="0" departPos="14.680342230454764" departSpeed="0.76864966" id="37" type="motorcycle">
		<route edges="94698 94701"/>
	</vehicle>
	<vehicle depart="0.1" departLane="0" departPos="6.950612938683664" departSpeed="1.4508756" id="321" type="truck">
		<route edges="94698 94845"/>
	</vehicle>
</routes>
