<routes>
	<vehicle depart="0.1" departLane="0" departPos="27.733365668473134" departSpeed="1.002789" id="339" type="bicycle">
		<route edges="4627 4508"/>
	</vehicle>
	<vehicle depart="0.1" departLane="0" departPos="62.47625105279017" departSpeed="1.7164465" id="36" type="passenger">
		<route edges="4625 4628"/>
	</vehicle>
	<vehicle depart="0.1" departLane="0" departPos="69.00541410424884" departSpeed="0.0" id="39" type="passenger">
		<route edges="4507 4624"/>
	</vehicle>
	<vehicle depart="0.1" departLane="0" departPos="48.91122351991627" departSpeed="0.32664673" id="314" type="passenger">
		<route edges="4627 4508"/>
	</vehicle>
	<vehicle depart="0.1" departLane="0" departPos="24.568077052855244" departSpeed="1.4003852" id="324" type="passenger">
		<route edges=":33_9 4508"/>
	</vehicle>
	<vehicle depart="0.1" departLane="0" departPos="22.459110346712112" departSpeed="9.4866532" id="327" type="passenger">
		<route edges=":33_7 4504"/>
	</vehicle>
	<vehicle depart="0.1" departLane="0" departPos="9.96940222806961" departSpeed="0.099189978" id="329" type="passenger">
		<route edges=":33_5 4508"/>
	</vehicle>
	<vehicle depart="0.1" departLane="0" departPos="42.76567476045666" departSpeed="0.79558586" id="336" type="passenger">
		<route edges="4627 4508"/>
	</vehicle>
	<vehicle depart="0.1" departLane="0" departPos="13.288229793807671" departSpeed="15.466463" id="328" type="motorcycle">
		<route edges=":35_4 4505 4508"/>
	</vehicle>
	<vehicle depart="0.1" departLane="0" departPos="25.648585464609667" departSpeed="6.7067624" id="30" type="truck">
		<route edges=":33_8 4624"/>
	</vehicle>
</routes>
