<!-- generated on 2020-12-18 16:05:31.181589 by ipykernel_launcher.py v1_2_0+5214-53edc58fcd
-->
<connections>
	<connection contPos="-4.0" from="134" fromLane="0" keepClear="true" to="153" toLane="0"/>
	<connection contPos="-4.0" from="134" fromLane="0" keepClear="true" to="152" toLane="0"/>
	<connection contPos="-4.0" from="134" fromLane="0" keepClear="true" to="148" toLane="0"/>
	<connection contPos="-4.0" from="136" fromLane="0" keepClear="true" to="146" toLane="0"/>
	<connection contPos="-4.0" from="136" fromLane="0" keepClear="true" to="142" toLane="0"/>
	<connection contPos="-4.0" from="136" fromLane="0" keepClear="true" to="151" toLane="0"/>
	<connection contPos="-4.0" from="139" fromLane="0" keepClear="true" to="147" toLane="0"/>
	<connection contPos="-4.0" from="139" fromLane="0" keepClear="true" to="149" toLane="0"/>
	<connection contPos="-4.0" from="139" fromLane="0" keepClear="true" to="145" toLane="0"/>
	<connection contPos="-4.0" from="141" fromLane="0" keepClear="true" to="144" toLane="0"/>
	<connection contPos="-4.0" from="141" fromLane="0" keepClear="true" to="150" toLane="0"/>
	<connection contPos="-4.0" from="141" fromLane="0" keepClear="true" to="143" toLane="0"/>
	<connection contPos="-4.0" from="142" fromLane="0" keepClear="true" to="140" toLane="0"/>
	<connection contPos="-4.0" from="143" fromLane="0" keepClear="true" to="138" toLane="0"/>
	<connection contPos="-4.0" from="144" fromLane="0" keepClear="true" to="137" toLane="0"/>
	<connection contPos="-4.0" from="145" fromLane="0" keepClear="true" to="135" toLane="0"/>
	<connection contPos="-4.0" from="146" fromLane="0" keepClear="true" to="138" toLane="0"/>
	<connection contPos="-4.0" from="147" fromLane="0" keepClear="true" to="140" toLane="0"/>
	<connection contPos="-4.0" from="148" fromLane="0" keepClear="true" to="138" toLane="0"/>
	<connection contPos="-4.0" from="149" fromLane="0" keepClear="true" to="137" toLane="0"/>
	<connection contPos="-4.0" from="150" fromLane="0" keepClear="true" to="135" toLane="0"/>
	<connection contPos="-4.0" from="151" fromLane="0" keepClear="true" to="135" toLane="0"/>
	<connection contPos="-4.0" from="152" fromLane="0" keepClear="true" to="137" toLane="0"/>
	<connection contPos="-4.0" from="153" fromLane="0" keepClear="true" to="140" toLane="0"/>
</connections>
