<?xml version="1.0" encoding="UTF-8"?>

<!-- generated on Fri Dec 18 16:05:31 2020 by Eclipse SUMO netconvert Version 1.8.0
<configuration xmlns:xsi="http://www.w3.org/2001/XMLSchema-instance" xsi:noNamespaceSchemaLocation="http://sumo.dlr.de/xsd/netconvertConfiguration.xsd">

    <input>
        <node-files value="./converted_scenarios/SUMO/DEU_Muc-16_1_I-1-1/nodes.net.xml"/>
        <edge-files value="./converted_scenarios/SUMO/DEU_Muc-16_1_I-1-1/edges.net.xml"/>
        <connection-files value="./converted_scenarios/SUMO/DEU_Muc-16_1_I-1-1/_connections.net.xml"/>
        <tllogic-files value="./converted_scenarios/SUMO/DEU_Muc-16_1_I-1-1/_tll.net.xml"/>
    </input>

    <output>
        <output-file value="./converted_scenarios/SUMO/DEU_Muc-16_1_I-1-1/DEU_Muc-16_1_I-1-1.net.xml"/>
    </output>

    <processing>
        <plain.extend-edge-shape value="true"/>
        <geometry.remove.keep-edges.explicit value="true"/>
        <geometry.avoid-overlap value="true"/>
        <offset.disable-normalization value="true"/>
    </processing>

    <junctions>
        <no-turnarounds value="true"/>
        <junctions.internal-link-detail value="20"/>
    </junctions>

    <report>
        <aggregate-warnings value="5"/>
    </report>

    <random_number>
        <seed value="1234"/>
    </random_number>

</configuration>
-->

<net version="1.6" junctionCornerDetail="5" junctionLinkDetail="20" limitTurnSpeed="5.50" xmlns:xsi="http://www.w3.org/2001/XMLSchema-instance" xsi:noNamespaceSchemaLocation="http://sumo.dlr.de/xsd/net_file.xsd">

    <location netOffset="0.00,0.00" convBoundary="-108.36,-49.88,167.42,41.91" origBoundary="-108.36,-49.88,167.42,41.91" projParameter="!"/>

    <edge id=":12_0" function="internal">
        <lane id=":12_0_0" index="0" disallow="bus truck rail_fast" speed="7.07" length="7.69" width="2.50" shape="9.61,0.89 8.93,0.96 8.28,1.03 7.67,1.11 7.09,1.20 6.54,1.29 6.03,1.38 5.55,1.48 5.11,1.58 4.70,1.69 4.32,1.81 3.98,1.93 3.67,2.06 3.40,2.19 3.16,2.32 2.96,2.46 2.78,2.61 2.65,2.76 2.54,2.92 2.47,3.08"/>
    </edge>
    <edge id=":12_1" function="internal">
        <lane id=":12_1_0" index="0" disallow="bus truck rail_fast" speed="36.11" length="8.79" width="2.50" shape="9.61,0.89 0.86,1.71"/>
    </edge>
    <edge id=":12_2" function="internal">
        <lane id=":12_2_0" index="0" disallow="bus truck rail_fast" speed="7.77" length="8.98" width="2.50" shape="9.61,0.89 8.88,0.96 8.17,1.00 7.50,1.03 6.86,1.04 6.26,1.04 5.68,1.02 5.14,0.99 4.63,0.94 4.15,0.87 3.71,0.78 3.29,0.68 2.91,0.57 2.56,0.43 2.24,0.28 1.96,0.12 1.70,-0.06 1.48,-0.26 1.29,-0.47 1.14,-0.70"/>
    </edge>
    <edge id=":13_0" function="internal">
        <lane id=":13_0_0" index="0" disallow="bus truck rail_fast" speed="12.33" length="8.40" width="2.50" shape="1.03,-0.88 0.72,-1.41 0.45,-1.89 0.20,-2.34 -0.01,-2.75 -0.19,-3.13 -0.35,-3.49 -0.48,-3.83 -0.58,-4.16 -0.67,-4.49 -0.73,-4.82 -0.78,-5.16 -0.81,-5.51 -0.83,-5.88 -0.84,-6.28 -0.83,-6.71 -0.82,-7.18 -0.81,-7.69 -0.78,-8.25 -0.76,-8.86"/>
    </edge>
    <edge id=":13_1" function="internal">
        <lane id=":13_1_0" index="0" disallow="bus truck rail_fast" speed="36.11" length="6.73" width="2.50" shape="-1.57,-2.19 -1.48,-2.69 -1.40,-3.14 -1.33,-3.54 -1.27,-3.91 -1.21,-4.24 -1.16,-4.55 -1.11,-4.84 -1.06,-5.11 -1.02,-5.38 -0.98,-5.64 -0.95,-5.91 -0.92,-6.19 -0.89,-6.48 -0.87,-6.79 -0.84,-7.13 -0.82,-7.50 -0.80,-7.91 -0.78,-8.36 -0.76,-8.86"/>
    </edge>
    <edge id=":13_2" function="internal">
        <lane id=":13_2_0" index="0" disallow="bus truck rail_fast" speed="36.11" length="8.83" width="2.50" shape="-1.01,-0.04 -0.76,-8.86"/>
    </edge>
    <edge id=":16_0" function="internal">
        <lane id=":16_0_0" index="0" disallow="bus truck rail_fast" speed="6.12" length="7.87" width="2.50" shape="1.75,-9.13 1.73,-8.37 1.71,-7.66 1.71,-6.99 1.71,-6.35 1.73,-5.76 1.75,-5.21 1.79,-4.69 1.83,-4.22 1.88,-3.79 1.95,-3.39 2.02,-3.04 2.10,-2.73 2.19,-2.46 2.30,-2.23 2.41,-2.03 2.53,-1.88 2.66,-1.77 2.80,-1.70 2.95,-1.67"/>
    </edge>
    <edge id=":16_1" function="internal">
        <lane id=":16_1_0" index="0" disallow="bus truck rail_fast" speed="36.11" length="10.17" width="2.50" shape="1.75,-9.13 1.46,1.04"/>
    </edge>
    <edge id=":16_2" function="internal">
        <lane id=":16_2_0" index="0" disallow="bus truck rail_fast" speed="8.81" length="9.79" width="2.50" shape="1.75,-9.13 1.71,-8.32 1.67,-7.54 1.61,-6.80 1.54,-6.10 1.47,-5.43 1.38,-4.80 1.28,-4.21 1.17,-3.65 1.06,-3.13 0.93,-2.64 0.79,-2.20 0.64,-1.78 0.48,-1.41 0.31,-1.07 0.13,-0.77 -0.06,-0.50 -0.26,-0.27 -0.48,-0.08 -0.70,0.08"/>
    </edge>
    <edge id=":2_0" function="internal">
        <lane id=":2_0_0" index="0" disallow="bus truck rail_fast" speed="6.62" length="8.24" width="2.50" shape="-9.22,0.01 -8.47,-0.02 -7.76,-0.05 -7.09,-0.09 -6.45,-0.14 -5.86,-0.20 -5.30,-0.27 -4.78,-0.34 -4.30,-0.43 -3.86,-0.53 -3.46,-0.63 -3.10,-0.75 -2.78,-0.87 -2.49,-1.00 -2.25,-1.15 -2.04,-1.30 -1.87,-1.46 -1.74,-1.63 -1.65,-1.81 -1.60,-2.00"/>
    </edge>
    <edge id=":2_1" function="internal">
        <lane id=":2_1_0" index="0" disallow="bus truck rail_fast" speed="36.11" length="8.88" width="2.50" shape="-9.22,0.01 -0.37,-0.69"/>
    </edge>
    <edge id=":2_2" function="internal">
        <lane id=":2_2_0" index="0" disallow="bus truck rail_fast" speed="8.15" length="9.02" width="2.50" shape="-9.22,0.01 -8.47,-0.01 -7.76,-0.01 -7.07,0.01 -6.42,0.03 -5.81,0.07 -5.22,0.12 -4.67,0.18 -4.16,0.26 -3.68,0.34 -3.23,0.44 -2.81,0.56 -2.43,0.68 -2.08,0.81 -1.77,0.96 -1.49,1.12 -1.24,1.30 -1.02,1.48 -0.84,1.68 -0.69,1.89"/>
    </edge>
    <edge id=":3_0" function="internal">
        <lane id=":3_0_0" index="0" disallow="bus truck rail_fast" speed="36.11" length="6.05" width="2.50" shape="-2.87,2.84 -3.32,2.78 -3.72,2.73 -4.09,2.69 -4.42,2.65 -4.72,2.62 -5.00,2.59 -5.26,2.56 -5.51,2.54 -5.75,2.52 -5.99,2.50 -6.23,2.49 -6.48,2.48 -6.75,2.47 -7.03,2.47 -7.33,2.47 -7.67,2.47 -8.03,2.48 -8.44,2.49 -8.89,2.50"/>
    </edge>
    <edge id=":3_1" function="internal">
        <lane id=":3_1_0" index="0" disallow="bus truck rail_fast" speed="36.11" length="9.59" width="2.50" shape="0.66,1.73 -8.89,2.50"/>
    </edge>
    <edge id=":3_2" function="internal">
        <lane id=":3_2_0" index="0" disallow="bus truck rail_fast" speed="13.52" length="8.53" width="2.50" shape="-0.87,0.18 -1.40,0.51 -1.89,0.80 -2.34,1.06 -2.75,1.29 -3.13,1.49 -3.49,1.67 -3.83,1.82 -4.16,1.96 -4.49,2.07 -4.82,2.16 -5.15,2.24 -5.51,2.30 -5.88,2.35 -6.28,2.39 -6.71,2.42 -7.18,2.45 -7.70,2.46 -8.27,2.48 -8.89,2.50"/>
    </edge>
    <edge id=":6_0" function="internal">
        <lane id=":6_0_0" index="0" disallow="bus truck rail_fast" speed="6.16" length="7.63" width="2.50" shape="-1.27,10.02 -1.26,9.31 -1.25,8.63 -1.26,7.99 -1.28,7.38 -1.30,6.82 -1.34,6.29 -1.38,5.80 -1.44,5.35 -1.50,4.93 -1.57,4.56 -1.66,4.22 -1.75,3.91 -1.85,3.65 -1.96,3.42 -2.09,3.24 -2.22,3.08 -2.36,2.97 -2.51,2.90 -2.67,2.86"/>
    </edge>
    <edge id=":6_1" function="internal">
        <lane id=":6_1_0" index="0" disallow="rail_fast" speed="36.11" length="9.87" width="2.50" shape="-1.27,10.02 -1.01,0.16"/>
    </edge>
    <edge id=":6_2" function="internal">
        <lane id=":6_2_0" index="0" disallow="bus truck rail_fast" speed="8.54" length="9.52" width="2.50" shape="-1.27,10.02 -1.24,9.24 -1.21,8.49 -1.16,7.77 -1.10,7.09 -1.03,6.45 -0.95,5.84 -0.86,5.27 -0.76,4.73 -0.64,4.22 -0.52,3.75 -0.38,3.32 -0.23,2.92 -0.07,2.55 0.10,2.22 0.28,1.93 0.47,1.67 0.68,1.45 0.89,1.26 1.12,1.10"/>
    </edge>
    <edge id=":7_0" function="internal">
        <lane id=":7_0_0" index="0" disallow="bus truck rail_fast" speed="36.11" length="6.73" width="2.50" shape="2.41,3.27 2.26,3.75 2.12,4.18 2.00,4.57 1.89,4.93 1.79,5.25 1.70,5.56 1.63,5.84 1.56,6.11 1.50,6.37 1.45,6.63 1.41,6.90 1.37,7.18 1.34,7.47 1.32,7.78 1.30,8.12 1.28,8.49 1.26,8.90 1.25,9.35 1.24,9.85"/>
    </edge>
    <edge id=":7_1" function="internal">
        <lane id=":7_1_0" index="0" disallow="rail_fast" speed="36.11" length="8.62" width="2.50" shape="1.46,1.24 1.24,9.85"/>
    </edge>
    <edge id=":7_2" function="internal">
        <lane id=":7_2_0" index="0" disallow="bus truck rail_fast" speed="12.28" length="8.21" width="2.50" shape="-0.59,2.06 -0.28,2.58 -0.01,3.05 0.23,3.48 0.44,3.88 0.62,4.25 0.78,4.60 0.91,4.93 1.01,5.26 1.10,5.58 1.17,5.90 1.22,6.23 1.25,6.57 1.27,6.94 1.28,7.33 1.28,7.74 1.28,8.20 1.27,8.70 1.25,9.25 1.24,9.85"/>
    </edge>
    <edge id=":9_0" function="internal">
        <lane id=":9_0_0" index="0" disallow="bus truck rail_fast" speed="36.11" length="6.58" width="2.50" shape="3.15,-1.65 3.64,-1.62 4.08,-1.58 4.48,-1.55 4.85,-1.53 5.18,-1.50 5.48,-1.48 5.77,-1.46 6.04,-1.45 6.30,-1.44 6.56,-1.44 6.83,-1.44 7.10,-1.44 7.39,-1.45 7.69,-1.46 8.02,-1.48 8.38,-1.51 8.78,-1.54 9.22,-1.58 9.71,-1.63"/>
    </edge>
    <edge id=":9_1" function="internal">
        <lane id=":9_1_0" index="0" disallow="bus truck rail_fast" speed="36.11" length="9.93" width="2.50" shape="-0.17,-0.71 9.71,-1.63"/>
    </edge>
    <edge id=":9_2" function="internal">
        <lane id=":9_2_0" index="0" disallow="bus truck rail_fast" speed="16.80" length="8.96" width="2.50" shape="1.29,1.00 1.86,0.67 2.38,0.37 2.86,0.10 3.29,-0.14 3.69,-0.35 4.07,-0.53 4.43,-0.69 4.77,-0.82 5.11,-0.94 5.45,-1.05 5.80,-1.14 6.17,-1.21 6.56,-1.28 6.97,-1.34 7.42,-1.40 7.92,-1.45 8.46,-1.51 9.05,-1.56 9.71,-1.63"/>
    </edge>

    <edge id="134" from="1" to="2" priority="1" spreadType="center" length="100.96">
        <lane id="134_0" index="0" disallow="bus truck rail_fast" speed="36.11" length="100.96" width="2.50" customShape="1" shape="-108.33,-0.44 -78.55,-0.05 -45.73,-0.16 -31.60,-0.06 -15.95,0.16 -9.22,0.01"/>
    </edge>
    <edge id="135" from="3" to="4" priority="1" spreadType="center" length="101.13">
        <lane id="135_0" index="0" disallow="bus truck rail_fast" speed="36.11" length="101.13" width="2.50" customShape="1" shape="-8.89,2.50 -15.88,2.66 -31.56,2.45 -45.70,2.34 -78.54,2.45 -108.36,2.06"/>
    </edge>
    <edge id="136" from="5" to="6" priority="1" spreadType="center" length="33.63">
        <lane id="136_0" index="0" disallow="rail_fast" speed="36.11" length="33.63" width="2.50" customShape="1" shape="-2.02,41.86 -1.62,25.04 -1.27,10.02"/>
    </edge>
    <edge id="137" from="7" to="8" priority="1" spreadType="center" length="33.63">
        <lane id="137_0" index="0" disallow="rail_fast" speed="36.11" length="33.63" width="2.50" customShape="1" shape="1.24,9.85 0.88,25.10 0.48,41.91"/>
    </edge>
    <edge id="138" from="9" to="10" priority="1" spreadType="center" length="160.20">
        <lane id="138_0" index="0" disallow="bus truck rail_fast" speed="36.11" length="160.20" width="2.50" customShape="1" shape="9.71,-1.63 63.84,-6.69 83.86,-8.35 111.40,-10.52 126.39,-12.03 139.34,-13.70 147.26,-15.02 166.91,-19.18"/>
    </edge>
    <edge id="139" from="11" to="12" priority="1" spreadType="center" length="160.47">
        <lane id="139_0" index="0" disallow="bus truck rail_fast" speed="36.11" length="160.47" width="2.50" customShape="1" shape="167.42,-16.74 147.73,-12.56 139.74,-11.23 126.74,-9.56 111.71,-8.04 84.14,-5.87 64.12,-4.21 9.61,0.89"/>
    </edge>
    <edge id="140" from="13" to="14" priority="1" spreadType="center" length="42.60">
        <lane id="140_0" index="0" disallow="bus truck rail_fast" speed="36.11" length="42.60" width="2.50" customShape="1" shape="-0.76,-8.86 -0.63,-12.40 1.26,-49.88"/>
    </edge>
    <edge id="141" from="15" to="16" priority="1" spreadType="center" length="42.55">
        <lane id="141_0" index="0" disallow="bus truck rail_fast" speed="36.11" length="42.55" width="2.50" customShape="1" shape="3.76,-49.75 1.87,-12.30 1.75,-9.13"/>
    </edge>
    <edge id="142" from="6" to="13" priority="1" spreadType="center" length="15.57">
        <lane id="142_0" index="0" disallow="rail_fast" speed="36.11" length="15.57" width="2.50" customShape="1" shape="-1.01,0.16 -1.01,-0.04"/>
    </edge>
    <edge id="143" from="16" to="9" priority="1" spreadType="center" length="10.02">
        <lane id="143_0" index="0" disallow="bus truck rail_fast" speed="36.11" length="10.02" width="2.50" customShape="1" shape="2.95,-1.67 3.15,-1.65"/>
    </edge>
    <edge id="144" from="16" to="7" priority="1" spreadType="center" length="15.55">
        <lane id="144_0" index="0" disallow="rail_fast" speed="36.11" length="15.55" width="2.50" customShape="1" shape="1.46,1.04 1.46,1.24"/>
    </edge>
    <edge id="145" from="12" to="3" priority="1" spreadType="center" length="15.39">
        <lane id="145_0" index="0" disallow="rail_fast" speed="36.11" length="15.39" width="2.50" customShape="1" shape="0.86,1.71 0.66,1.73"/>
    </edge>
    <edge id="146" from="6" to="9" priority="1" spreadType="center" length="14.82">
        <lane id="146_0" index="0" disallow="bus truck rail_fast" speed="36.11" length="14.82" width="2.50" customShape="1" shape="1.12,1.10 1.29,1.00"/>
    </edge>
    <edge id="147" from="12" to="13" priority="1" spreadType="center" length="14.35">
        <lane id="147_0" index="0" disallow="bus truck rail_fast" speed="36.11" length="14.35" width="2.50" customShape="1" shape="1.14,-0.70 1.03,-0.88"/>
    </edge>
    <edge id="148" from="2" to="9" priority="1" spreadType="center" length="15.29">
        <lane id="148_0" index="0" disallow="rail_fast" speed="36.11" length="15.29" width="2.50" customShape="1" shape="-0.37,-0.69 -0.17,-0.71"/>
    </edge>
    <edge id="149" from="12" to="7" priority="1" spreadType="center" length="11.16">
        <lane id="149_0" index="0" disallow="bus truck rail_fast" speed="36.11" length="11.16" width="2.50" customShape="1" shape="2.47,3.08 2.41,3.27"/>
    </edge>
    <edge id="150" from="16" to="3" priority="1" spreadType="center" length="14.82">
        <lane id="150_0" index="0" disallow="bus truck rail_fast" speed="36.11" length="14.82" width="2.50" customShape="1" shape="-0.70,0.08 -0.87,0.18"/>
    </edge>
    <edge id="151" from="6" to="3" priority="1" spreadType="center" length="9.73">
        <lane id="151_0" index="0" disallow="bus truck rail_fast" speed="36.11" length="9.73" width="2.50" customShape="1" shape="-2.67,2.86 -2.87,2.84"/>
    </edge>
    <edge id="152" from="2" to="7" priority="1" spreadType="center" length="13.91">
        <lane id="152_0" index="0" disallow="bus truck rail_fast" speed="36.11" length="13.91" width="2.50" customShape="1" shape="-0.69,1.89 -0.59,2.06"/>
    </edge>
    <edge id="153" from="2" to="13" priority="1" spreadType="center" length="11.08">
        <lane id="153_0" index="0" disallow="bus truck rail_fast" speed="36.11" length="11.08" width="2.50" customShape="1" shape="-1.60,-2.00 -1.57,-2.19"/>
    </edge>

    <junction id="1" type="dead_end" x="-108.33" y="-0.44" incLanes="" intLanes="" shape="-108.35,0.81 -108.31,-1.69"/>
    <junction id="10" type="dead_end" x="166.91" y="-19.18" incLanes="138_0" intLanes="" shape="166.65,-20.41 167.17,-17.96"/>
    <junction id="11" type="dead_end" x="167.42" y="-16.74" incLanes="" intLanes="" shape="167.16,-17.96 167.68,-15.51"/>
    <junction id="12" type="priority" x="8.08" y="1.04" incLanes="139_0" intLanes=":12_0_0 :12_1_0 :12_2_0" shape="9.73,2.14 9.49,-0.35 7.22,-0.27 5.28,-0.49 3.66,-1.00 2.36,-1.80 1.39,-2.90 0.74,-4.29 -0.24,-0.58 0.00,0.04 -0.02,0.26 -0.14,0.42 -0.35,0.53 -0.66,0.59 -0.42,3.08 0.58,3.12 0.87,3.26 1.01,3.49 1.01,3.79 0.87,4.18 2.57,7.63 3.52,4.86 4.53,3.83 5.90,3.03 7.63,2.47">
        <request index="0" response="000" foes="000" cont="0"/>
        <request index="1" response="000" foes="000" cont="0"/>
        <request index="2" response="000" foes="000" cont="0"/>
    </junction>
    <junction id="13" type="priority" x="-0.82" y="-7.33" incLanes="147_0 153_0 142_0" intLanes=":13_0_0 :13_1_0 :13_2_0" shape="1.35,0.90 4.98,-0.31 2.37,-1.79 1.48,-3.03 0.87,-4.62 0.54,-6.55 0.49,-8.82 -2.01,-8.91 -2.22,-6.74 -2.69,-4.92 -3.41,-3.48 -4.39,-2.40 -5.62,-1.68 -7.10,-1.32 -3.49,0.28 -2.84,0.21 -2.59,0.32 -2.42,0.54 -2.32,0.88 -2.29,1.33 0.20,1.39 0.33,0.86 0.48,0.73 0.69,0.68 0.95,0.73">
        <request index="0" response="010" foes="110" cont="0"/>
        <request index="1" response="000" foes="101" cont="0"/>
        <request index="2" response="011" foes="011" cont="0"/>
    </junction>
    <junction id="14" type="dead_end" x="1.26" y="-49.88" incLanes="140_0" intLanes="" shape="0.02,-49.94 2.51,-49.82"/>
    <junction id="15" type="dead_end" x="3.76" y="-49.75" incLanes="" intLanes="" shape="2.51,-49.82 5.01,-49.69"/>
    <junction id="16" type="priority" x="1.68" y="-7.25" incLanes="141_0" intLanes=":16_0_0 :16_1_0 :16_2_0" shape="4.43,-0.48 8.30,-2.72 3.00,-9.08 0.50,-9.18 0.28,-6.66 -0.20,-4.49 -0.92,-2.67 -1.89,-1.19 -3.11,-0.05 -4.58,0.74 -1.17,1.82 -0.40,1.52 -0.14,1.56 0.04,1.73 0.15,2.03 0.18,2.46 2.67,2.53 2.91,0.67 3.16,0.07 3.50,-0.33 3.92,-0.51">
        <request index="0" response="000" foes="000" cont="0"/>
        <request index="1" response="000" foes="000" cont="0"/>
        <request index="2" response="000" foes="000" cont="0"/>
    </junction>
    <junction id="2" type="priority" x="-7.38" y="-0.04" incLanes="134_0" intLanes=":2_0_0 :2_1_0 :2_2_0" shape="-0.28,5.46 0.74,1.85 0.45,1.10 0.48,0.83 0.62,0.63 0.89,0.49 1.27,0.41 1.04,-2.07 0.13,-2.16 -0.14,-2.35 -0.30,-2.63 -0.33,-3.01 -0.25,-3.46 -2.09,-7.06 -3.08,-3.90 -4.09,-2.78 -5.46,-1.96 -7.18,-1.45 -9.25,-1.24 -9.20,1.25 -6.88,1.32 -4.89,1.65 -3.24,2.22 -1.92,3.05 -0.94,4.12">
        <request index="0" response="000" foes="000" cont="0"/>
        <request index="1" response="000" foes="000" cont="0"/>
        <request index="2" response="000" foes="000" cont="0"/>
    </junction>
    <junction id="3" type="priority" x="-7.24" y="2.46" incLanes="151_0 145_0 150_0" intLanes=":3_0_0 :3_1_0 :3_2_0" shape="-2.47,8.37 -0.63,4.51 -0.51,3.73 -0.15,3.41 0.42,3.16 1.19,2.97 2.18,2.84 1.94,0.35 1.16,0.29 0.98,0.14 0.94,-0.10 1.04,-0.41 1.28,-0.81 -0.01,-4.23 -1.70,-1.26 -3.02,-0.21 -4.67,0.56 -6.64,1.05 -8.92,1.25 -8.87,3.74">
        <request index="0" response="000" foes="110" cont="0"/>
        <request index="1" response="101" foes="101" cont="0"/>
        <request index="2" response="001" foes="011" cont="0"/>
    </junction>
    <junction id="4" type="dead_end" x="-108.36" y="2.06" incLanes="135_0" intLanes="" shape="-108.38,3.31 -108.35,0.81"/>
    <junction id="5" type="dead_end" x="-2.02" y="41.86" incLanes="" intLanes="" shape="-0.77,41.88 -3.26,41.83"/>
    <junction id="6" type="priority" x="-1.23" y="8.23" incLanes="136_0" intLanes=":6_0_0 :6_1_0 :6_2_0" shape="4.98,0.45 1.55,-0.60 0.82,-0.32 0.57,-0.36 0.40,-0.53 0.30,-0.81 0.27,-1.21 -2.23,-1.27 -2.45,0.53 -2.69,1.12 -3.01,1.50 -3.41,1.66 -3.89,1.62 -7.70,3.71 -2.52,9.99 -0.02,10.05 0.17,7.65 0.62,5.56 1.32,3.80 2.28,2.36 3.50,1.25">
        <request index="0" response="000" foes="000" cont="0"/>
        <request index="1" response="000" foes="000" cont="0"/>
        <request index="2" response="000" foes="000" cont="0"/>
    </junction>
    <junction id="7" type="priority" x="1.27" y="8.29" incLanes="149_0 144_0 152_0" intLanes=":7_0_0 :7_1_0 :7_2_0" shape="7.55,2.38 3.96,0.91 3.26,1.12 3.03,1.00 2.86,0.75 2.77,0.35 2.75,-0.19 0.25,-0.26 0.10,0.30 -0.06,0.44 -0.29,0.47 -0.57,0.41 -0.92,0.25 -4.50,1.42 -1.93,2.95 -1.05,4.19 -0.44,5.75 -0.09,7.63 -0.01,9.82 2.49,9.88 2.67,7.79 3.12,6.03 3.83,4.61 4.81,3.53 6.05,2.79">
        <request index="0" response="000" foes="110" cont="0"/>
        <request index="1" response="101" foes="101" cont="0"/>
        <request index="2" response="001" foes="011" cont="0"/>
    </junction>
    <junction id="8" type="dead_end" x="0.48" y="41.91" incLanes="137_0" intLanes="" shape="1.73,41.94 -0.77,41.88"/>
    <junction id="9" type="priority" x="7.84" y="-1.45" incLanes="143_0 148_0 146_0" intLanes=":9_0_0 :9_1_0 :9_2_0" shape="9.83,-0.38 9.60,-2.87 2.92,-7.75 0.94,-3.75 0.86,-2.81 0.51,-2.45 -0.05,-2.16 -0.82,-1.95 -1.80,-1.81 -1.57,0.68 -0.84,0.75 -0.65,0.91 -0.58,1.16 -0.63,1.48 -0.85,1.98 0.45,5.30 2.19,2.47 3.58,1.40 5.32,0.57 7.40,-0.02">
        <request index="0" response="000" foes="110" cont="0"/>
        <request index="1" response="101" foes="101" cont="0"/>
        <request index="2" response="001" foes="011" cont="0"/>
    </junction>

    <connection from="134" to="153" fromLane="0" toLane="0" contPos="-4.00" via=":2_0_0" dir="r" state="M"/>
    <connection from="134" to="148" fromLane="0" toLane="0" contPos="-4.00" via=":2_1_0" dir="s" state="M"/>
    <connection from="134" to="152" fromLane="0" toLane="0" contPos="-4.00" via=":2_2_0" dir="L" state="M"/>
    <connection from="136" to="151" fromLane="0" toLane="0" contPos="-4.00" via=":6_0_0" dir="r" state="M"/>
    <connection from="136" to="142" fromLane="0" toLane="0" contPos="-4.00" via=":6_1_0" dir="s" state="M"/>
    <connection from="136" to="146" fromLane="0" toLane="0" contPos="-4.00" via=":6_2_0" dir="L" state="M"/>
    <connection from="139" to="149" fromLane="0" toLane="0" contPos="-4.00" via=":12_0_0" dir="R" state="M"/>
    <connection from="139" to="145" fromLane="0" toLane="0" contPos="-4.00" via=":12_1_0" dir="s" state="M"/>
    <connection from="139" to="147" fromLane="0" toLane="0" contPos="-4.00" via=":12_2_0" dir="l" state="M"/>
    <connection from="141" to="143" fromLane="0" toLane="0" contPos="-4.00" via=":16_0_0" dir="r" state="M"/>
    <connection from="141" to="144" fromLane="0" toLane="0" contPos="-4.00" via=":16_1_0" dir="s" state="M"/>
    <connection from="141" to="150" fromLane="0" toLane="0" contPos="-4.00" via=":16_2_0" dir="L" state="M"/>
    <connection from="142" to="140" fromLane="0" toLane="0" contPos="-4.00" via=":13_2_0" dir="s" state="m"/>
    <connection from="143" to="138" fromLane="0" toLane="0" contPos="-4.00" via=":9_0_0" dir="r" state="M"/>
    <connection from="144" to="137" fromLane="0" toLane="0" contPos="-4.00" via=":7_1_0" dir="s" state="m"/>
    <connection from="145" to="135" fromLane="0" toLane="0" contPos="-4.00" via=":3_1_0" dir="s" state="m"/>
    <connection from="146" to="138" fromLane="0" toLane="0" contPos="-4.00" via=":9_2_0" dir="s" state="m"/>
    <connection from="147" to="140" fromLane="0" toLane="0" contPos="-4.00" via=":13_0_0" dir="l" state="m"/>
    <connection from="148" to="138" fromLane="0" toLane="0" contPos="-4.00" via=":9_1_0" dir="s" state="m"/>
    <connection from="149" to="137" fromLane="0" toLane="0" contPos="-4.00" via=":7_0_0" dir="s" state="M"/>
    <connection from="150" to="135" fromLane="0" toLane="0" contPos="-4.00" via=":3_2_0" dir="l" state="m"/>
    <connection from="151" to="135" fromLane="0" toLane="0" contPos="-4.00" via=":3_0_0" dir="s" state="M"/>
    <connection from="152" to="137" fromLane="0" toLane="0" contPos="-4.00" via=":7_2_0" dir="l" state="m"/>
    <connection from="153" to="140" fromLane="0" toLane="0" contPos="-4.00" via=":13_1_0" dir="s" state="M"/>

    <connection from=":12_0" to="149" fromLane="0" toLane="0" dir="R" state="M"/>
    <connection from=":12_1" to="145" fromLane="0" toLane="0" dir="s" state="M"/>
    <connection from=":12_2" to="147" fromLane="0" toLane="0" dir="l" state="M"/>
    <connection from=":13_0" to="140" fromLane="0" toLane="0" dir="l" state="M"/>
    <connection from=":13_1" to="140" fromLane="0" toLane="0" dir="s" state="M"/>
    <connection from=":13_2" to="140" fromLane="0" toLane="0" dir="s" state="M"/>
    <connection from=":16_0" to="143" fromLane="0" toLane="0" dir="r" state="M"/>
    <connection from=":16_1" to="144" fromLane="0" toLane="0" dir="s" state="M"/>
    <connection from=":16_2" to="150" fromLane="0" toLane="0" dir="L" state="M"/>
    <connection from=":2_0" to="153" fromLane="0" toLane="0" dir="r" state="M"/>
    <connection from=":2_1" to="148" fromLane="0" toLane="0" dir="s" state="M"/>
    <connection from=":2_2" to="152" fromLane="0" toLane="0" dir="L" state="M"/>
    <connection from=":3_0" to="135" fromLane="0" toLane="0" dir="s" state="M"/>
    <connection from=":3_1" to="135" fromLane="0" toLane="0" dir="s" state="M"/>
    <connection from=":3_2" to="135" fromLane="0" toLane="0" dir="l" state="M"/>
    <connection from=":6_0" to="151" fromLane="0" toLane="0" dir="r" state="M"/>
    <connection from=":6_1" to="142" fromLane="0" toLane="0" dir="s" state="M"/>
    <connection from=":6_2" to="146" fromLane="0" toLane="0" dir="L" state="M"/>
    <connection from=":7_0" to="137" fromLane="0" toLane="0" dir="s" state="M"/>
    <connection from=":7_1" to="137" fromLane="0" toLane="0" dir="s" state="M"/>
    <connection from=":7_2" to="137" fromLane="0" toLane="0" dir="l" state="M"/>
    <connection from=":9_0" to="138" fromLane="0" toLane="0" dir="r" state="M"/>
    <connection from=":9_1" to="138" fromLane="0" toLane="0" dir="s" state="M"/>
    <connection from=":9_2" to="138" fromLane="0" toLane="0" dir="s" state="M"/>

</net>
