<routes>
	<vehicle depart="0.1" departLane="0" departPos="0" departSpeed="11.6178" id="30" type="passenger">
		<route edges="137"/>
	</vehicle>
	<vehicle depart="0.1" departLane="0" departPos="86.4925158505257" departSpeed="8.6498" id="31" type="passenger">
		<route edges="138"/>
	</vehicle>
	<vehicle depart="0.1" departLane="0" departPos="45.04318845092628" departSpeed="7.3154" id="32" type="passenger">
		<route edges="135"/>
	</vehicle>
	<vehicle depart="0.1" departLane="0" departPos="100.95512269343023" departSpeed="5.634" id="33" type="passenger">
		<route edges="134 148 138"/>
	</vehicle>
	<vehicle depart="0.1" departLane="0" departPos="160.46500905425077" departSpeed="7.6974" id="34" type="passenger">
		<route edges="139 145 135"/>
	</vehicle>
	<vehicle depart="0.1" departLane="0" departPos="8.605775560202884" departSpeed="6.6504" id="35" type="passenger">
		<route edges="153 140"/>
	</vehicle>
	<vehicle depart="0.1" departLane="0" departPos="160.46500905425077" departSpeed="7.7784" id="36" type="passenger">
		<route edges="139 145 135"/>
	</vehicle>
	<vehicle depart="0.1" departLane="0" departPos="0" departSpeed="8.5126" id="37" type="passenger">
		<route edges="138"/>
	</vehicle>
	<vehicle depart="0.1" departLane="0" departPos="88.94771065769766" departSpeed="8.4749" id="39" type="passenger">
		<route edges="139 145 135"/>
	</vehicle>
	<vehicle depart="0.1" departLane="0" departPos="29.642122917583812" departSpeed="12.5954" id="313" type="passenger">
		<route edges="140"/>
	</vehicle>
	<vehicle depart="0.1" departLane="0" departPos="67.94460744262251" departSpeed="7.6806" id="315" type="passenger">
		<route edges="139 145 135"/>
	</vehicle>
	<vehicle depart="0.1" departLane="0" departPos="0" departSpeed="7.2717" id="316" type="passenger">
		<route edges="135"/>
	</vehicle>
	<vehicle depart="0.1" departLane="0" departPos="0" departSpeed="7.5481" id="317" type="passenger">
		<route edges="146 138"/>
	</vehicle>
	<vehicle depart="0.1" departLane="0" departPos="35.09228544902889" departSpeed="7.7986" id="318" type="passenger">
		<route edges="139 145 135"/>
	</vehicle>
	<vehicle depart="0.1" departLane="0" departPos="0" departSpeed="7.9037" id="319" type="passenger">
		<route edges="141 150 145 135"/>
	</vehicle>
	<vehicle depart="0.1" departLane="0" departPos="0" departSpeed="3.9584" id="321" type="passenger">
		<route edges="136 146 138"/>
	</vehicle>
	<vehicle depart="0.1" departLane="0" departPos="0" departSpeed="3.765" id="322" type="passenger">
		<route edges="134 152 137"/>
	</vehicle>
</routes>
