<!-- generated on 2020-12-18 16:05:31.033387 by ipykernel_launcher.py v1_2_0+5214-53edc58fcd
-->
<edges>
	<edge from="1" function="normal" id="134" length="100.95512269343023" numLanes="1" priority="1" speed="36.11111111111111" spreadType="center" to="2">
		<lane allow="moped bicycle pedestrian custom1 trailer evehicle rail_urban ship private vip custom2 authority delivery rail_electric taxi tram army hov coach motorcycle passenger rail emergency" index="0" length="100.95512269343023" shape="-108.33005,-0.44249999999999995 -78.54675,-0.04760000000000009 -45.7322,-0.15554999999999997 -31.597250000000003,-0.05610000000000004 -15.94895,0.1592 -7.3818,-0.03700000000000003" speed="36.11111111111111" width="2.499824481838675"/>
	</edge>
	<edge from="3" function="normal" id="135" length="101.12679720520113" numLanes="1" priority="1" speed="36.11111111111111" spreadType="center" to="4">
		<lane allow="moped bicycle pedestrian custom1 trailer evehicle rail_urban ship private vip custom2 authority delivery rail_electric taxi tram army hov coach motorcycle passenger rail emergency" index="0" length="101.12679720520113" shape="-7.2432,2.4579 -15.8825,2.65875 -31.562849999999997,2.4450000000000003 -45.69885,2.34435 -78.5446,2.45255 -108.36304999999999,2.0573" speed="36.11111111111111" width="2.4978275360801034"/>
	</edge>
	<edge from="5" function="normal" id="136" length="33.63044300373721" numLanes="1" priority="1" speed="36.11111111111111" spreadType="center" to="6">
		<lane allow="moped bicycle pedestrian custom1 trailer evehicle rail_urban ship private truck vip custom2 authority delivery rail_electric taxi tram army hov coach motorcycle passenger bus rail emergency" index="0" length="33.63044300373721" shape="-2.01605,41.8553 -1.6207500000000001,25.04475 -1.2255,8.23415" speed="36.11111111111111" width="2.498398873278645"/>
	</edge>
	<edge from="7" function="normal" id="137" length="33.634675395575144" numLanes="1" priority="1" speed="36.11111111111111" spreadType="center" to="8">
		<lane allow="moped bicycle pedestrian custom1 trailer evehicle rail_urban ship private truck vip custom2 authority delivery rail_electric taxi tram army hov coach motorcycle passenger bus rail emergency" index="0" length="33.634675395575144" shape="1.2731000000000001,8.2888 0.8785999999999999,25.10225 0.48325000000000007,41.9142" speed="36.11111111111111" width="2.4999962979972588"/>
	</edge>
	<edge from="9" function="normal" id="138" length="160.19872198507278" numLanes="1" priority="1" speed="36.11111111111111" spreadType="center" to="10">
		<lane allow="moped bicycle pedestrian custom1 trailer evehicle rail_urban ship private vip custom2 authority delivery rail_electric taxi tram army hov coach motorcycle passenger rail emergency" index="0" length="160.19872198507278" shape="7.8413,-1.4514 63.8414,-6.6913 83.8605,-8.35335 111.3967,-10.51755 126.3863,-12.0304 139.33595,-13.70065 147.26145,-15.02 166.91295,-19.183349999999997" speed="36.11111111111111" width="2.4984891834866922"/>
	</edge>
	<edge from="11" function="normal" id="139" length="160.46500905425077" numLanes="1" priority="1" speed="36.11111111111111" spreadType="center" to="12">
		<lane allow="moped bicycle pedestrian custom1 trailer evehicle rail_urban ship private vip custom2 authority delivery rail_electric taxi tram army hov coach motorcycle passenger rail emergency" index="0" length="160.46500905425077" shape="167.4188,-16.7351 147.72525000000002,-12.5637 139.74425000000002,-11.233899999999998 126.7449,-9.555299999999999 111.71275,-8.0359 84.14410000000001,-5.867699999999999 64.11869999999999,-4.20635 8.0839,1.03605" speed="36.11111111111111" width="2.500012319969646"/>
	</edge>
	<edge from="13" function="normal" id="140" length="42.599438994320614" numLanes="1" priority="1" speed="36.11111111111111" spreadType="center" to="14">
		<lane allow="moped bicycle pedestrian custom1 trailer evehicle rail_urban ship private vip custom2 authority delivery rail_electric taxi tram army hov coach motorcycle passenger rail emergency" index="0" length="42.599438994320614" shape="-0.8173,-7.330500000000001 -0.6302000000000001,-12.400549999999999 1.265,-49.8786" speed="36.11111111111111" width="2.4999873359679246"/>
	</edge>
	<edge from="15" function="normal" id="141" length="42.55257417107539" numLanes="1" priority="1" speed="36.11111111111111" spreadType="center" to="16">
		<lane allow="moped bicycle pedestrian custom1 trailer evehicle rail_urban ship private vip custom2 authority delivery rail_electric taxi tram army hov coach motorcycle passenger rail emergency" index="0" length="42.55257417107539" shape="3.7618,-49.7522 1.86785,-12.30165 1.68075,-7.25095" speed="36.11111111111111" width="2.498520942477769"/>
	</edge>
	<edge from="6" function="normal" id="142" length="15.57000184018711" numLanes="1" priority="1" speed="36.11111111111111" spreadType="center" to="13">
		<lane allow="moped bicycle pedestrian custom1 trailer evehicle rail_urban ship private truck vip custom2 authority delivery rail_electric taxi tram army hov coach motorcycle passenger bus rail emergency" index="0" length="15.57000184018711" shape="-1.2255,8.23415 -1.0217,0.4506 -0.8173,-7.330500000000001" speed="36.11111111111111" width="2.498398873278645"/>
	</edge>
	<edge from="16" function="normal" id="143" length="10.015840250494916" numLanes="1" priority="1" speed="36.11111111111111" spreadType="center" to="9">
		<lane allow="moped bicycle pedestrian custom1 trailer evehicle rail_urban ship private vip custom2 authority delivery rail_electric taxi tram army hov coach motorcycle passenger rail emergency" index="0" length="10.015840250494916" shape="1.68075,-7.25095 1.7004,-6.1353 1.8472000000000002,-5.0311 2.1785,-3.96895 2.73975,-3.01075 3.5458999999999996,-2.2487 4.534050000000001,-1.74235 5.61465,-1.4775 6.72565,-1.39795 7.8413,-1.4514" speed="36.11111111111111" width="2.4984891834866922"/>
	</edge>
	<edge from="16" function="normal" id="144" length="15.545095990392358" numLanes="1" priority="1" speed="36.11111111111111" spreadType="center" to="7">
		<lane allow="moped bicycle pedestrian custom1 trailer evehicle rail_urban ship private truck vip custom2 authority delivery rail_electric taxi tram army hov coach motorcycle passenger bus rail emergency" index="0" length="15.545095990392358" shape="1.68075,-7.25095 1.4774,0.5175 1.2731000000000001,8.2888" speed="36.11111111111111" width="2.498520942477769"/>
	</edge>
	<edge from="12" function="normal" id="145" length="15.392909190456159" numLanes="1" priority="1" speed="36.11111111111111" spreadType="center" to="3">
		<lane allow="moped bicycle pedestrian custom1 trailer evehicle rail_urban ship private truck vip custom2 authority delivery rail_electric taxi tram army hov coach motorcycle passenger bus rail emergency" index="0" length="15.392909190456159" shape="8.0839,1.03605 0.4262,1.7470499999999998 -7.2432,2.4579" speed="36.11111111111111" width="2.4978275360801034"/>
	</edge>
	<edge from="6" function="normal" id="146" length="14.819818143686827" numLanes="1" priority="1" speed="36.11111111111111" spreadType="center" to="9">
		<lane allow="moped bicycle pedestrian custom1 trailer evehicle rail_urban ship private vip custom2 authority delivery rail_electric taxi tram army hov coach motorcycle passenger rail emergency" index="0" length="14.819818143686827" shape="-1.2255,8.23415 -1.1222,6.755000000000001 -0.8639500000000001,5.2954 -0.41435,3.8837 0.25684999999999997,2.56355 1.15885,1.38895 2.2793,0.42045 3.55575,-0.3306 4.93445,-0.87335 6.37185,-1.23565 7.8413,-1.4514" speed="36.11111111111111" width="2.498398873278645"/>
	</edge>
	<edge from="12" function="normal" id="147" length="14.347268093529873" numLanes="1" priority="1" speed="36.11111111111111" spreadType="center" to="13">
		<lane allow="moped bicycle pedestrian custom1 trailer evehicle rail_urban ship private vip custom2 authority delivery rail_electric taxi tram army hov coach motorcycle passenger rail emergency" index="0" length="14.347268093529873" shape="8.0839,1.03605 6.5872,1.1068 5.05065,0.9926 3.4895000000000005,0.6027 1.9997500000000001,-0.16790000000000005 0.7593,-1.33865 -0.09619999999999995,-2.7791 -0.5802499999999999,-4.30935 -0.79,-5.8363 -0.8173,-7.330500000000001" speed="36.11111111111111" width="2.5000160099487365"/>
	</edge>
	<edge from="2" function="normal" id="148" length="15.28866584606044" numLanes="1" priority="1" speed="36.11111111111111" spreadType="center" to="9">
		<lane allow="moped bicycle pedestrian custom1 trailer evehicle rail_urban ship private truck vip custom2 authority delivery rail_electric taxi tram army hov coach motorcycle passenger bus rail emergency" index="0" length="15.28866584606044" shape="-7.3818,-0.03700000000000003 0.21495,-0.7436 7.8413,-1.4514" speed="36.11111111111111" width="2.4984891834866922"/>
	</edge>
	<edge from="12" function="normal" id="149" length="11.157911740449174" numLanes="1" priority="1" speed="36.11111111111111" spreadType="center" to="7">
		<lane allow="moped bicycle pedestrian custom1 trailer evehicle rail_urban ship private vip custom2 authority delivery rail_electric taxi tram army hov coach motorcycle passenger rail emergency" index="0" length="11.157911740449174" shape="8.0839,1.03605 6.9219,1.20625 5.802350000000001,1.4856500000000001 4.7587,1.8934 3.8216,2.4398 3.01845,3.1298500000000002 2.377,3.96485 1.88885,4.929449999999999 1.55275,5.98915 1.35415,7.11995 1.2731000000000001,8.2888" speed="36.11111111111111" width="2.499996303997268"/>
	</edge>
	<edge from="16" function="normal" id="150" length="14.824930484299989" numLanes="1" priority="1" speed="36.11111111111111" spreadType="center" to="3">
		<lane allow="moped bicycle pedestrian custom1 trailer evehicle rail_urban ship private vip custom2 authority delivery rail_electric taxi tram army hov coach motorcycle passenger rail emergency" index="0" length="14.824930484299989" shape="1.68075,-7.25095 1.5686,-5.7711500000000004 1.3186499999999999,-4.3101 0.89795,-2.8894 0.27219999999999994,-1.54705 -0.5823,-0.3376 -1.6696,0.6674500000000001 -2.9341,1.437 -4.31515,1.9716500000000001 -5.76025,2.29935 -7.2432,2.4579" speed="36.11111111111111" width="2.4978275360801034"/>
	</edge>
	<edge from="6" function="normal" id="151" length="9.726750077312808" numLanes="1" priority="1" speed="36.11111111111111" spreadType="center" to="3">
		<lane allow="moped bicycle pedestrian custom1 trailer evehicle rail_urban ship private vip custom2 authority delivery rail_electric taxi tram army hov coach motorcycle passenger rail emergency" index="0" length="9.726750077312808" shape="-1.2255,8.23415 -1.2595,7.15315 -1.4202499999999998,6.0843 -1.75995,5.0593 -2.3146,4.1349 -3.0938,3.3911499999999997 -4.040699999999999,2.87585 -5.079,2.5789999999999997 -6.15275,2.4547 -7.2432,2.4579" speed="36.11111111111111" width="2.4978275360801034"/>
	</edge>
	<edge from="2" function="normal" id="152" length="13.913342698019115" numLanes="1" priority="1" speed="36.11111111111111" spreadType="center" to="7">
		<lane allow="moped bicycle pedestrian custom1 trailer evehicle rail_urban ship private vip custom2 authority delivery rail_electric taxi tram army hov coach motorcycle passenger rail emergency" index="0" length="13.913342698019115" shape="-7.3818,-0.03700000000000003 -5.91165,-0.040999999999999925 -4.4279,0.13534999999999997 -2.9343,0.5704 -1.5193500000000002,1.34955 -0.33365,2.48495 0.5048999999999999,3.8701 0.9986499999999999,5.347899999999999 1.22675,6.830299999999999 1.2731000000000001,8.2888" speed="36.11111111111111" width="2.499824481838675"/>
	</edge>
	<edge from="2" function="normal" id="153" length="11.080555585695143" numLanes="1" priority="1" speed="36.11111111111111" spreadType="center" to="13">
		<lane allow="moped bicycle pedestrian custom1 trailer evehicle rail_urban ship private vip custom2 authority delivery rail_electric taxi tram army hov coach motorcycle passenger rail emergency" index="0" length="11.080555585695143" shape="-7.3818,-0.03700000000000003 -6.2256,-0.1603 -5.129149999999999,-0.40865 -4.11555,-0.8032999999999999 -3.21755,-1.35385 -2.4593,-2.06625 -1.86175,-2.93095 -1.41,-3.9238999999999997 -1.0966500000000001,-5.007099999999999 -0.9053,-6.15455 -0.8173,-7.330500000000001" speed="36.11111111111111" width="2.499824481838675"/>
	</edge>
</edges>
