<!-- generated on 2020-12-18 16:05:31.107429 by ipykernel_launcher.py v1_2_0+5214-53edc58fcd
-->
<nodes>
	<node id="1" type="from" x="-108.33005" y="-0.44249999999999995"/>
	<node id="2" type="to" x="-7.3818" y="-0.03700000000000003"/>
	<node id="3" type="from" x="-7.2432" y="2.4579"/>
	<node id="4" type="to" x="-108.36304999999999" y="2.0573"/>
	<node id="5" type="from" x="-2.01605" y="41.8553"/>
	<node id="6" type="to" x="-1.2255" y="8.23415"/>
	<node id="7" type="from" x="1.2731000000000001" y="8.2888"/>
	<node id="8" type="to" x="0.48325000000000007" y="41.9142"/>
	<node id="9" type="from" x="7.8413" y="-1.4514"/>
	<node id="10" type="to" x="166.91295" y="-19.183349999999997"/>
	<node id="11" type="from" x="167.4188" y="-16.7351"/>
	<node id="12" type="to" x="8.0839" y="1.03605"/>
	<node id="13" type="from" x="-0.8173" y="-7.330500000000001"/>
	<node id="14" type="to" x="1.265" y="-49.8786"/>
	<node id="15" type="from" x="3.7618" y="-49.7522"/>
	<node id="16" type="to" x="1.68075" y="-7.25095"/>
</nodes>
