<!-- generated on Tue Feb  9 22:08:17 2021 by Eclipse SUMO netconvert Version 1.8.0
<configuration xmlns:xsi="http://www.w3.org/2001/XMLSchema-instance" xsi:noNamespaceSchemaLocation="http://sumo.dlr.de/xsd/netconvertConfiguration.xsd">

    <input>
        <node-files value="./converted_scenarios/scenario-factory/ITA_Siderno-10_1_I-1-1/ITA_Siderno-10_1_I-1-1.nod.xml"/>
        <edge-files value="./converted_scenarios/scenario-factory/ITA_Siderno-10_1_I-1-1/ITA_Siderno-10_1_I-1-1.edg.xml"/>
        <connection-files value="./converted_scenarios/scenario-factory/ITA_Siderno-10_1_I-1-1/ITA_Siderno-10_1_I-1-1.con.xml"/>
        <tllogic-files value="./converted_scenarios/scenario-factory/ITA_Siderno-10_1_I-1-1/ITA_Siderno-10_1_I-1-1.tll.xml"/>
        <type-files value="/home/zen/commonroad-interactive-benchmarks/install/commonroad-map-tool/crmapconverter/sumo_map/templates/DEU.typ.xml"/>
    </input>

    <output>
        <output-file value="./converted_scenarios/scenario-factory/ITA_Siderno-10_1_I-1-1/ITA_Siderno-10_1_I-1-1.net.xml"/>
    </output>

    <processing>
        <geometry.remove.keep-edges.explicit value="true"/>
        <geometry.avoid-overlap value="true"/>
        <offset.disable-normalization value="true"/>
    </processing>

    <junctions>
        <no-turnarounds value="true"/>
        <junctions.internal-link-detail value="20"/>
    </junctions>

    <report>
        <aggregate-warnings value="5"/>
    </report>

    <random_number>
        <seed value="1234"/>
    </random_number>

</configuration>
--><net xmlns:xsi="http://www.w3.org/2001/XMLSchema-instance" version="1.6" junctionCornerDetail="5" junctionLinkDetail="20" limitTurnSpeed="5.50" xsi:noNamespaceSchemaLocation="http://sumo.dlr.de/xsd/net_file.xsd">

    <location netOffset="0.00,0.00" convBoundary="480.13,-212.48,728.38,-4.78" origBoundary="480.13,-212.48,728.38,-1.39" projParameter="!"/>

    <type id="highway.bridleway" priority="1" speed="2.78" allow="pedestrian" oneway="1" width="2.00"/>
    <type id="highway.bus_guideway" priority="1" speed="27.78" allow="bus" oneway="1"/>
    <type id="highway.cycleway" priority="1" speed="8.33" allow="bicycle" oneway="0" width="1.00"/>
    <type id="highway.footway" priority="1" speed="2.78" allow="pedestrian" oneway="1" width="2.00"/>
    <type id="highway.ford" priority="1" speed="2.78" allow="army" oneway="0"/>
    <type id="highway.living_street" priority="2" speed="2.78" disallow="tram rail_urban rail rail_electric rail_fast ship" oneway="0"/>
    <type id="highway.motorway" priority="14" speed="39.44" allow="private emergency authority army vip passenger hov taxi bus coach delivery truck trailer motorcycle evehicle custom1 custom2" oneway="1"/>
    <type id="highway.motorway_link" priority="9" speed="22.22" allow="private emergency authority army vip passenger hov taxi bus coach delivery truck trailer motorcycle evehicle custom1 custom2" oneway="1"/>
    <type id="highway.path" priority="1" speed="2.78" allow="pedestrian bicycle" oneway="0" width="2.00"/>
    <type id="highway.pedestrian" priority="1" speed="2.78" allow="pedestrian" oneway="1" width="2.00"/>
    <type id="highway.primary" priority="12" speed="27.78" disallow="pedestrian tram rail_urban rail rail_electric rail_fast ship" oneway="0"/>
    <type id="highway.primary_link" priority="7" speed="22.22" disallow="pedestrian tram rail_urban rail rail_electric rail_fast ship" oneway="0"/>
    <type id="highway.raceway" priority="15" speed="83.33" allow="vip" oneway="0"/>
    <type id="highway.residential" priority="3" speed="13.89" disallow="pedestrian tram rail_urban rail rail_electric rail_fast ship" oneway="0"/>
    <type id="highway.secondary" priority="11" speed="27.78" disallow="pedestrian tram rail_urban rail rail_electric rail_fast ship" oneway="0"/>
    <type id="highway.secondary_link" priority="6" speed="22.22" disallow="pedestrian tram rail_urban rail rail_electric rail_fast ship" oneway="0"/>
    <type id="highway.service" priority="1" speed="5.56" allow="pedestrian delivery bicycle" oneway="0"/>
    <type id="highway.stairs" priority="1" speed="1.39" allow="pedestrian" oneway="1" width="2.00"/>
    <type id="highway.step" priority="1" speed="1.39" allow="pedestrian" oneway="1" width="2.00"/>
    <type id="highway.steps" priority="1" speed="1.39" allow="pedestrian" oneway="1" width="2.00"/>
    <type id="highway.tertiary" priority="10" speed="22.22" disallow="pedestrian tram rail_urban rail rail_electric rail_fast ship" oneway="0"/>
    <type id="highway.tertiary_link" priority="5" speed="22.22" disallow="pedestrian tram rail_urban rail rail_electric rail_fast ship" oneway="0"/>
    <type id="highway.track" priority="1" speed="5.56" allow="pedestrian motorcycle moped bicycle" oneway="0"/>
    <type id="highway.trunk" priority="13" speed="27.78" disallow="pedestrian bicycle tram rail_urban rail rail_electric rail_fast ship" oneway="0"/>
    <type id="highway.trunk_link" priority="8" speed="22.22" disallow="pedestrian bicycle tram rail_urban rail rail_electric rail_fast ship" oneway="0"/>
    <type id="highway.unclassified" priority="4" speed="13.89" disallow="pedestrian tram rail_urban rail rail_electric rail_fast ship" oneway="0"/>
    <type id="highway.unsurfaced" priority="1" speed="8.33" disallow="tram rail_urban rail rail_electric rail_fast ship" oneway="0"/>
    <type id="railway.highspeed" priority="21" speed="69.44" allow="rail_fast" oneway="1"/>
    <type id="railway.light_rail" priority="19" speed="27.78" allow="rail_urban" oneway="1"/>
    <type id="railway.preserved" priority="16" speed="27.78" allow="rail" oneway="1"/>
    <type id="railway.rail" priority="20" speed="44.44" allow="rail" oneway="1"/>
    <type id="railway.subway" priority="18" speed="27.78" allow="rail_urban" oneway="1"/>
    <type id="railway.tram" priority="17" speed="13.89" allow="tram" oneway="1"/>

    <edge id=":27_0" function="internal">
        <lane id=":27_0_0" index="0" disallow="pedestrian tram rail_urban rail rail_electric rail_fast ship" speed="36.11" length="74.70" width="3.50" shape="685.35,-93.43 667.10,-119.39 652.87,-139.41 642.02,-154.28"/>
    </edge>
    <edge id=":27_1" function="internal">
        <lane id=":27_1_0" index="0" disallow="pedestrian tram rail_urban rail rail_electric rail_fast ship" speed="36.11" length="74.82" width="3.50" shape="644.82,-156.39 655.69,-141.48 669.94,-121.43 688.22,-95.44"/>
    </edge>
    <edge id=":27_2" function="internal">
        <lane id=":27_2_0" index="0" disallow="pedestrian tram rail_urban rail rail_electric rail_fast ship" speed="24.28" length="71.59" width="3.50" shape="663.79,-88.67 664.67,-92.22 665.21,-95.84 665.42,-99.49 665.31,-103.67 664.83,-107.82 663.93,-112.43 662.52,-117.46 660.77,-122.38 658.50,-127.66 655.69,-133.27 652.32,-139.17 648.10,-145.77 643.28,-152.60 642.02,-154.28"/>
    </edge>
    <edge id=":28_0" function="internal">
        <lane id=":28_0_0" index="0" disallow="pedestrian tram rail_urban rail rail_electric rail_fast ship" speed="15.31" length="25.42" width="3.50" shape="646.78,-65.35 647.95,-66.06 650.89,-68.28 653.61,-70.77 656.07,-73.52 658.25,-76.49 660.15,-79.66 661.75,-82.98 662.43,-84.78"/>
    </edge>
    <edge id=":28_1" function="internal">
        <lane id=":28_1_0" index="0" disallow="pedestrian tram rail_urban rail rail_electric rail_fast ship" speed="17.92" length="33.04" width="3.47" shape="648.42,-61.62 659.68,-66.44 670.06,-70.55 675.33,-72.37 677.78,-73.01 678.79,-73.13 679.29,-73.07"/>
    </edge>
    <edge id=":28_2" function="internal">
        <lane id=":28_2_0" index="0" disallow="pedestrian tram rail_urban rail rail_electric rail_fast ship" speed="31.04" length="26.55" width="3.50" shape="655.39,-59.19 655.75,-60.69 660.57,-77.75 662.63,-84.73"/>
    </edge>
    <edge id=":28_3" function="internal">
        <lane id=":28_3_0" index="0" disallow="pedestrian tram rail_urban rail rail_electric rail_fast ship" speed="8.19" length="21.03" width="3.47" shape="653.60,-58.97 653.59,-60.95 653.90,-64.35 654.48,-67.01 655.16,-68.94 656.11,-70.75 657.36,-72.37 658.90,-73.71 660.68,-74.71 662.62,-75.37 663.26,-75.48"/>
    </edge>
    <edge id=":29_0" function="internal">
        <lane id=":29_0_0" index="0" disallow="pedestrian tram rail_urban rail rail_electric rail_fast ship" speed="36.11" length="81.96" width="3.50" shape="629.28,-41.56 626.97,-41.53 619.38,-41.03 610.30,-40.01 599.26,-38.36 586.29,-35.99 570.89,-32.76 552.61,-28.50 548.67,-27.53"/>
        <lane id=":29_0_1" index="1" disallow="pedestrian tram rail_urban rail rail_electric rail_fast ship" speed="36.11" length="82.94" width="3.50" shape="629.95,-43.74 628.62,-43.64 619.62,-42.52 608.18,-40.66 593.34,-37.80 575.13,-33.84 552.58,-28.49 548.67,-27.53"/>
    </edge>
    <edge id=":29_2" function="internal">
        <lane id=":29_2_0" index="0" disallow="pedestrian tram rail_urban rail rail_electric rail_fast ship" speed="36.11" length="85.89" width="3.50" shape="547.82,-30.93 563.42,-34.99 578.42,-39.31 592.82,-43.85 606.63,-48.60 620.31,-53.70 629.45,-57.39"/>
        <lane id=":29_2_1" index="1" disallow="pedestrian tram rail_urban rail rail_electric rail_fast ship" speed="36.11" length="86.21" width="3.50" shape="547.82,-30.93 574.13,-37.63 595.47,-43.44 612.35,-48.40 625.27,-52.55 630.71,-54.50"/>
    </edge>
    <edge id=":30_0" function="internal">
        <lane id=":30_0_0" index="0" disallow="pedestrian tram rail_urban rail rail_electric rail_fast ship" speed="24.37" length="17.43" width="3.50" shape="666.15,-30.72 665.41,-31.18 660.47,-33.83 654.90,-36.37 650.39,-38.11"/>
        <lane id=":30_0_1" index="1" disallow="pedestrian tram rail_urban rail rail_electric rail_fast ship" speed="24.58" length="18.29" width="3.50" shape="666.83,-31.47 665.75,-32.33 660.37,-36.13 655.62,-39.06 651.58,-41.16 651.41,-41.23"/>
    </edge>
    <edge id=":30_2" function="internal">
        <lane id=":30_2_0" index="0" disallow="pedestrian tram rail_urban rail rail_electric rail_fast ship" speed="14.58" length="16.77" width="3.48" shape="667.56,-32.27 665.75,-34.14 661.70,-38.78 658.59,-42.85 657.02,-45.27"/>
    </edge>
    <edge id=":31_0" function="internal">
        <lane id=":31_0_0" index="0" disallow="pedestrian tram rail_urban rail rail_electric rail_fast ship" speed="3.28" length="3.01" width="3.50" shape="679.46,-20.70 677.26,-22.75"/>
    </edge>
    <edge id=":31_1" function="internal">
        <lane id=":31_1_0" index="0" disallow="pedestrian tram rail_urban rail rail_electric rail_fast ship" speed="3.25" length="3.00" width="3.50" shape="679.49,-20.74 677.26,-22.75"/>
    </edge>

    <edge id="49390" from="26" to="29" priority="3" type="highway.residential" spreadType="center" length="69.99" shape="480.13,-13.12 595.50,-41.87">
        <lane id="49390_0" index="0" disallow="pedestrian tram rail_urban rail rail_electric rail_fast ship" speed="36.11" length="69.99" width="3.50" customShape="1" shape="480.13,-13.12 537.12,-28.23 547.82,-30.93"/>
    </edge>
    <edge id="49391" from="29" to="21" priority="3" type="highway.residential" spreadType="center" length="69.99" shape="596.35,-38.47 480.98,-9.72">
        <lane id="49391_0" index="0" disallow="pedestrian tram rail_urban rail rail_electric rail_fast ship" speed="36.11" length="69.99" width="3.50" customShape="1" shape="548.67,-27.53 537.98,-24.84 480.98,-9.72"/>
    </edge>
    <edge id="49400" from="28" to="3" priority="3" type="highway.residential" spreadType="center" length="48.46">
        <lane id="49400_0" index="0" disallow="pedestrian tram rail_urban rail rail_electric rail_fast ship" speed="36.11" length="48.46" width="3.47" customShape="1" shape="665.05,-79.46 681.16,-72.23 683.32,-70.84 685.69,-68.88 687.81,-66.65 691.04,-62.66 693.95,-58.43 696.58,-54.02 699.75,-48.14"/>
    </edge>
    <edge id="49403" from="30" to="29" priority="3" type="highway.residential" spreadType="center" length="21.20">
        <lane id="49403_0" index="0" disallow="pedestrian tram rail_urban rail rail_electric rail_fast ship" speed="36.11" length="21.20" width="3.50" customShape="1" shape="650.43,-38.23 630.28,-44.81"/>
        <lane id="49403_1" index="1" disallow="pedestrian tram rail_urban rail rail_electric rail_fast ship" speed="36.11" length="21.25" width="3.50" customShape="1" shape="651.52,-41.58 646.28,-43.27 631.25,-47.95"/>
    </edge>
    <edge id="49405" from="30" to="28" priority="3" type="highway.residential" spreadType="center" length="14.01">
        <lane id="49405_0" index="0" disallow="pedestrian tram rail_urban rail rail_electric rail_fast ship" speed="36.11" length="14.01" width="3.48" customShape="1" shape="655.00,-45.02 654.04,-52.65 653.25,-58.92"/>
    </edge>
    <edge id="49408" from="29" to="28" priority="3" type="highway.residential" spreadType="center" length="19.07">
        <lane id="49408_0" index="0" disallow="pedestrian tram rail_urban rail rail_electric rail_fast ship" speed="36.11" length="19.07" width="3.50" customShape="1" shape="629.52,-57.21 640.91,-62.21 646.99,-64.86"/>
        <lane id="49408_1" index="1" disallow="pedestrian tram rail_urban rail rail_electric rail_fast ship" speed="36.11" length="19.08" width="3.50" customShape="1" shape="630.92,-54.02 642.31,-59.00 648.39,-61.68"/>
    </edge>
    <edge id="49425" from="27" to="8" priority="3" type="highway.residential" spreadType="center" length="70.00" shape="663.41,-116.64 600.16,-210.38">
        <lane id="49425_0" index="0" disallow="pedestrian tram rail_urban rail rail_electric rail_fast ship" speed="36.11" length="70.00" width="3.50" customShape="1" shape="642.02,-154.28 618.10,-185.99 609.99,-196.88 600.16,-210.38"/>
    </edge>
    <edge id="49426" from="25" to="27" priority="3" type="highway.residential" spreadType="center" length="70.00" shape="602.96,-212.48 666.31,-118.60">
        <lane id="49426_0" index="0" disallow="pedestrian tram rail_urban rail rail_electric rail_fast ship" speed="36.11" length="70.00" width="3.50" customShape="1" shape="602.96,-212.48 612.82,-198.94 620.92,-188.07 644.83,-156.38"/>
    </edge>
    <edge id="49445" from="28" to="27" priority="3" type="highway.residential" spreadType="center" length="25.02">
        <lane id="49445_0" index="0" disallow="pedestrian tram rail_urban rail rail_electric rail_fast ship" speed="36.11" length="25.02" width="3.50" customShape="1" shape="662.62,-84.73 663.76,-88.55 669.75,-108.71"/>
    </edge>
    <edge id="49459" from="31" to="30" priority="3" type="highway.residential" spreadType="center" length="16.32">
        <lane id="49459_0" index="0" disallow="pedestrian tram rail_urban rail rail_electric rail_fast ship" speed="36.11" length="16.32" width="3.50" customShape="1" shape="677.26,-22.75 678.27,-21.83 667.23,-31.91"/>
    </edge>
    <edge id="49467" from="13" to="27" priority="3" type="highway.residential" spreadType="center" length="70.00" shape="725.52,-36.10 663.44,-116.60">
        <lane id="49467_0" index="0" disallow="pedestrian tram rail_urban rail rail_electric rail_fast ship" speed="36.11" length="70.00" width="3.50" customShape="1" shape="725.52,-36.10 723.60,-38.84 685.35,-93.43"/>
    </edge>
    <edge id="49468" from="27" to="16" priority="3" type="highway.residential" spreadType="center" length="70.00" shape="666.21,-118.73 728.38,-38.11">
        <lane id="49468_0" index="0" disallow="pedestrian tram rail_urban rail rail_electric rail_fast ship" speed="36.11" length="70.00" width="3.50" customShape="1" shape="688.22,-95.44 726.46,-40.85 728.38,-38.11"/>
    </edge>
    <edge id="49507" from="32" to="31" priority="3" type="highway.residential" spreadType="center" length="20.52">
        <lane id="49507_0" index="0" disallow="pedestrian tram rail_urban rail rail_electric rail_fast ship" speed="36.11" length="20.52" width="3.50" customShape="1" shape="688.99,-2.86 688.52,-4.97 687.40,-8.46 685.93,-11.81 684.11,-14.99 681.96,-17.95 679.46,-20.70"/>
    </edge>
    <edge id="49523" from="32" to="31" priority="3" type="highway.residential" spreadType="center" length="17.34">
        <lane id="49523_0" index="0" disallow="pedestrian tram rail_urban rail rail_electric rail_fast ship" speed="36.11" length="17.34" width="3.50" customShape="1" shape="692.40,-9.17 685.94,-14.96 679.49,-20.74"/>
    </edge>

    <junction id="13" type="dead_end" x="725.52" y="-36.10" incLanes="" intLanes="" shape="726.95,-37.10 724.08,-35.09" rightOfWay="edgePriority"/>
    <junction id="16" type="dead_end" x="728.38" y="-38.11" incLanes="49468_0" intLanes="" shape="729.82,-39.11 726.95,-37.10" rightOfWay="edgePriority"/>
    <junction id="21" type="dead_end" x="480.98" y="-9.72" incLanes="49391_0" intLanes="" shape="481.42,-8.03 480.53,-11.42" rightOfWay="edgePriority"/>
    <junction id="25" type="dead_end" x="602.96" y="-212.48" incLanes="" intLanes="" shape="601.55,-211.45 604.37,-213.51" rightOfWay="edgePriority"/>
    <junction id="26" type="dead_end" x="480.13" y="-13.12" incLanes="" intLanes="" shape="480.58,-11.43 479.68,-14.81" rightOfWay="edgePriority"/>
    <junction id="27" type="priority" x="664.84" y="-117.64" incLanes="49467_0 49426_0 49445_0" intLanes=":27_0_0 :27_1_0 :27_2_0" shape="683.92,-92.42 689.65,-96.44 646.22,-157.45 640.63,-153.23 649.47,-141.30 656.60,-131.21 662.03,-122.96 665.75,-116.54 667.76,-111.95 668.07,-109.21 671.42,-108.21 673.40,-106.68 675.40,-104.20 677.91,-100.85 680.79,-96.86">
        <request index="0" response="000" foes="100" cont="0"/>
        <request index="1" response="000" foes="000" cont="0"/>
        <request index="2" response="001" foes="001" cont="0"/>
    </junction>
    <junction id="28" type="priority" x="659.87" y="-68.34" incLanes="49408_0 49408_1 49405_0" intLanes=":28_0_0 :28_1_0 :28_2_0 :28_3_0" shape="664.34,-77.87 665.76,-81.04 664.65,-81.82 664.33,-82.32 664.16,-82.88 664.15,-83.52 664.29,-84.23 660.94,-85.23 659.36,-80.76 657.43,-76.82 655.16,-73.43 652.55,-70.57 649.59,-68.25 646.29,-66.46 649.10,-60.08 650.32,-60.35 650.77,-60.21 651.12,-59.89 651.38,-59.39 651.52,-58.71 654.98,-59.14 654.45,-64.86 654.46,-70.16 655.23,-74.58 656.99,-77.64 659.95,-78.90">
        <request index="0" response="0000" foes="0100" cont="0"/>
        <request index="1" response="0000" foes="1100" cont="0"/>
        <request index="2" response="0011" foes="0011" cont="0"/>
        <request index="3" response="0010" foes="0010" cont="0"/>
    </junction>
    <junction id="29" type="priority" x="595.90" y="-40.16" incLanes="49403_0 49403_1 49390_0" intLanes=":29_0_0 :29_0_1 :29_2_0 :29_2_1" shape="629.77,-43.14 631.77,-49.62 630.06,-50.46 629.82,-50.91 630.00,-51.39 630.60,-51.89 631.62,-52.41 628.83,-58.82 616.53,-53.81 602.93,-48.92 588.62,-44.24 574.19,-39.89 560.25,-35.98 547.39,-32.62 549.10,-25.83 561.84,-29.78 575.51,-34.76 589.61,-39.69 603.68,-43.46 617.22,-44.98">
        <request index="0" response="0010" foes="0010" cont="0"/>
        <request index="1" response="0000" foes="0001" cont="0"/>
        <request index="2" response="0000" foes="0000" cont="0"/>
        <request index="3" response="0000" foes="0000" cont="0"/>
    </junction>
    <junction id="3" type="dead_end" x="699.75" y="-48.14" incLanes="49400_0" intLanes="" shape="701.27,-48.96 698.22,-47.32" rightOfWay="edgePriority"/>
    <junction id="30" type="priority" x="659.55" y="-39.22" incLanes="49459_0" intLanes=":30_0_0 :30_0_1 :30_2_0" shape="666.05,-30.62 668.41,-33.20 665.47,-35.48 662.86,-36.99 660.64,-38.22 658.84,-39.67 657.52,-41.84 656.72,-45.23 653.27,-44.80 653.25,-43.73 653.10,-43.40 652.85,-43.21 652.50,-43.16 652.06,-43.25 649.89,-36.56 653.49,-35.60 656.31,-35.13 658.66,-34.77 660.86,-34.15 663.22,-32.89">
        <request index="0" response="000" foes="000" cont="0"/>
        <request index="1" response="000" foes="000" cont="0"/>
        <request index="2" response="000" foes="000" cont="0"/>
    </junction>
    <junction id="31" type="priority" x="678.36" y="-21.74" incLanes="49507_0 49523_0" intLanes=":31_0_0 :31_1_0" shape="678.29,-19.39 680.66,-22.04 678.44,-24.04 676.08,-21.46">
        <request index="0" response="00" foes="10" cont="0"/>
        <request index="1" response="01" foes="01" cont="0"/>
    </junction>
    <junction id="32" type="dead_end" x="691.41" y="-4.78" incLanes="" intLanes="" shape="690.69,-3.23 687.28,-2.48 693.57,-10.47 691.23,-7.87"/>
    <junction id="8" type="dead_end" x="600.16" y="-210.38" incLanes="49425_0" intLanes="" shape="598.74,-209.35 601.57,-211.41" rightOfWay="edgePriority"/>

    <connection from="49390" to="49408" fromLane="0" toLane="0" contPos="-4.00" shape="547.82,-30.93 563.42,-34.99 578.42,-39.31 592.82,-43.85 606.63,-48.60 620.31,-53.70 633.39,-58.98 640.80,-62.16" via=":29_2_0" dir="s" state="M"/>
    <connection from="49390" to="49408" fromLane="0" toLane="1" contPos="-4.00" shape="547.82,-30.93 574.13,-37.63 595.47,-43.44 612.35,-48.40 625.27,-52.55 635.21,-56.11 642.19,-58.95" via=":29_2_1" dir="s" state="M"/>
    <connection from="49403" to="49391" fromLane="0" toLane="0" contPos="-4.00" shape="645.12,-39.97 642.14,-40.72 638.12,-41.31 633.06,-41.60 626.97,-41.53 619.38,-41.03 610.30,-40.01 599.26,-38.36 586.29,-35.99 570.89,-32.76 552.61,-28.50 548.67,-27.53" via=":29_0_0" dir="s" state="m"/>
    <connection from="49403" to="49391" fromLane="1" toLane="0" contPos="-4.00" shape="646.12,-43.32 643.70,-43.85 640.19,-44.16 635.15,-44.12 628.62,-43.64 619.62,-42.52 608.18,-40.66 593.34,-37.80 575.13,-33.84 552.58,-28.49 548.67,-27.53" via=":29_0_1" dir="s" state="M"/>
    <connection from="49405" to="49445" fromLane="0" toLane="0" contPos="-4.00" shape="654.02,-52.78 654.20,-54.29 655.75,-60.69 660.57,-77.75 663.72,-88.43" via=":28_2_0" dir="s" state="m"/>
    <connection from="49405" to="49400" fromLane="0" toLane="0" contPos="-4.00" shape="654.02,-52.78 653.61,-57.54 653.59,-60.95 653.90,-64.35 654.48,-67.01 655.16,-68.94 656.11,-70.75 657.36,-72.37 658.90,-73.71 660.68,-74.71 662.62,-75.37 664.64,-75.71 667.36,-75.79 670.08,-75.53 673.42,-74.88 677.36,-73.75 679.29,-73.07" via=":28_3_0" dir="l" state="m"/>
    <connection from="49408" to="49445" fromLane="0" toLane="0" contPos="-4.00" shape="641.02,-62.26 644.80,-64.13 647.95,-66.06 650.89,-68.28 653.61,-70.77 656.07,-73.52 658.25,-76.49 660.15,-79.66 661.75,-82.98 663.25,-86.92 663.72,-88.43" via=":28_0_0" dir="r" state="M"/>
    <connection from="49408" to="49400" fromLane="1" toLane="0" contPos="-4.00" shape="642.44,-59.06 659.68,-66.44 670.06,-70.55 675.33,-72.37 677.78,-73.01 678.79,-73.13 679.29,-73.07" via=":28_1_0" dir="l" state="M"/>
    <connection from="49426" to="49468" fromLane="0" toLane="0" contPos="-4.00" shape="644.83,-156.38 655.69,-141.48 669.94,-121.43 688.22,-95.44" via=":27_1_0" dir="s" state="M"/>
    <connection from="49445" to="49425" fromLane="0" toLane="0" contPos="-4.00" shape="663.79,-88.67 664.67,-92.22 665.21,-95.84 665.42,-99.49 665.31,-103.67 664.83,-107.82 663.93,-112.43 662.52,-117.46 660.77,-122.38 658.50,-127.66 655.69,-133.27 652.32,-139.17 648.10,-145.77 643.28,-152.60 642.02,-154.28" via=":27_2_0" dir="s" state="m"/>
    <connection from="49459" to="49403" fromLane="0" toLane="0" contPos="-4.00" shape="678.18,-21.91 674.29,-25.21 670.16,-28.21 665.41,-31.18 660.47,-33.83 654.90,-36.37 648.72,-38.76 645.33,-39.90" via=":30_0_0" dir="s" state="M"/>
    <connection from="49459" to="49403" fromLane="0" toLane="1" contPos="-4.00" shape="678.18,-21.91 671.70,-27.59 665.75,-32.33 660.37,-36.13 655.62,-39.06 651.58,-41.16 647.84,-42.73 646.41,-43.23" via=":30_0_1" dir="s" state="M"/>
    <connection from="49459" to="49405" fromLane="0" toLane="0" contPos="-4.00" shape="678.18,-21.91 671.11,-28.62 665.75,-34.14 661.70,-38.78 658.59,-42.85 656.64,-45.86 655.23,-48.60 654.36,-51.01 654.06,-52.51" via=":30_2_0" dir="l" state="M"/>
    <connection from="49467" to="49425" fromLane="0" toLane="0" contPos="-4.00" shape="685.35,-93.43 667.10,-119.39 652.87,-139.41 642.02,-154.28" via=":27_0_0" dir="s" state="M"/>
    <connection from="49507" to="49459" fromLane="0" toLane="0" contPos="-4.00" via=":31_0_0" dir="s" state="M"/>
    <connection from="49523" to="49459" fromLane="0" toLane="0" contPos="-4.00" via=":31_1_0" dir="s" state="m"/>

    <connection from=":27_0" to="49425" fromLane="0" toLane="0" dir="s" state="M"/>
    <connection from=":27_1" to="49468" fromLane="0" toLane="0" dir="s" state="M"/>
    <connection from=":27_2" to="49425" fromLane="0" toLane="0" dir="s" state="M"/>
    <connection from=":28_0" to="49445" fromLane="0" toLane="0" dir="r" state="M"/>
    <connection from=":28_1" to="49400" fromLane="0" toLane="0" dir="l" state="M"/>
    <connection from=":28_2" to="49445" fromLane="0" toLane="0" dir="s" state="M"/>
    <connection from=":28_3" to="49400" fromLane="0" toLane="0" dir="l" state="M"/>
    <connection from=":29_0" to="49391" fromLane="0" toLane="0" dir="s" state="M"/>
    <connection from=":29_0" to="49391" fromLane="1" toLane="0" dir="s" state="M"/>
    <connection from=":29_2" to="49408" fromLane="0" toLane="0" dir="s" state="M"/>
    <connection from=":29_2" to="49408" fromLane="1" toLane="1" dir="s" state="M"/>
    <connection from=":30_0" to="49403" fromLane="0" toLane="0" dir="s" state="M"/>
    <connection from=":30_0" to="49403" fromLane="1" toLane="1" dir="s" state="M"/>
    <connection from=":30_2" to="49405" fromLane="0" toLane="0" dir="l" state="M"/>
    <connection from=":31_0" to="49459" fromLane="0" toLane="0" dir="s" state="M"/>
    <connection from=":31_1" to="49459" fromLane="0" toLane="0" dir="s" state="M"/>

</net>