<routes>
	<vehicle depart="0.1" departLane="0" departPos="22.798984767023203" departSpeed="0.0" id="315" type="bicycle">
		<route edges=":30_2 49405"/>
	</vehicle>
	<vehicle depart="0.1" departLane="1" departPos="26.288166761207936" departSpeed="1.2103385" id="323" type="bicycle">
		<route edges=":29_0 49391"/>
	</vehicle>
	<vehicle depart="0.1" departLane="0" departPos="36.724715362264824" departSpeed="0.0" id="39" type="passenger">
		<route edges=":30_2 49405"/>
	</vehicle>
	<vehicle depart="0.1" departLane="0" departPos="28.798986721538245" departSpeed="0.0" id="310" type="passenger">
		<route edges=":30_2 49405"/>
	</vehicle>
	<vehicle depart="0.1" departLane="0" departPos="21.159918521864707" departSpeed="0.0" id="313" type="passenger">
		<route edges=":30_2 49405"/>
	</vehicle>
	<vehicle depart="0.1" departLane="0" departPos="94.91655058488571" departSpeed="13.610487" id="340" type="passenger">
		<route edges=":29_2 49408 49445 49425"/>
	</vehicle>
	<vehicle depart="0.1" departLane="0" departPos="56.13542936179371" departSpeed="12.630691" id="341" type="passenger">
		<route edges=":29_2 49408 49445 49425"/>
	</vehicle>
	<vehicle depart="0.1" departLane="0" departPos="46.84969761992975" departSpeed="15.391247" id="344" type="passenger">
		<route edges=":29_2 49408 49445 49425"/>
	</vehicle>
	<vehicle depart="0.1" departLane="1" departPos="6.4733092639824665" departSpeed="14.024455" id="345" type="passenger">
		<route edges=":29_2 49408 49400"/>
	</vehicle>
	<vehicle depart="0.1" departLane="0" departPos="6.8664307897084065" departSpeed="0.0" id="34" type="truck">
		<route edges=":28_3 49400"/>
	</vehicle>
</routes>
