<routes>
	<vehicle depart="0.1" departLane="0" departPos="9.290526798233804" departSpeed="6.4179124" id="37" type="bicycle">
		<route edges="70597 70648"/>
	</vehicle>
	<vehicle depart="0.1" departLane="0" departPos="33.82568588639082" departSpeed="1.8304171" id="34" type="passenger">
		<route edges=":86_5 70767 71019"/>
	</vehicle>
	<vehicle depart="0.1" departLane="0" departPos="7.73904347783543" departSpeed="10.303204" id="361" type="passenger">
		<route edges="70764 70767 71019"/>
	</vehicle>
	<vehicle depart="0.1" departLane="0" departPos="11.663242022972634" departSpeed="9.3587677" id="371" type="passenger">
		<route edges=":93_2 70764 70597"/>
	</vehicle>
	<vehicle depart="0.1" departLane="0" departPos="35.520643954140226" departSpeed="15.6406" id="376" type="passenger">
		<route edges=":91_4 70596 70763"/>
	</vehicle>
	<vehicle depart="0.1" departLane="0" departPos="10.42628882093101" departSpeed="2.6547296" id="33" type="motorcycle">
		<route edges="70767 71019"/>
	</vehicle>
</routes>
