<!-- generated on Tue Feb  9 22:03:08 2021 by Eclipse SUMO netconvert Version 1.8.0
<configuration xmlns:xsi="http://www.w3.org/2001/XMLSchema-instance" xsi:noNamespaceSchemaLocation="http://sumo.dlr.de/xsd/netconvertConfiguration.xsd">

    <input>
        <node-files value="./converted_scenarios/scenario-factory/FRA_MoissyCramayel-1_1_I-1-1/FRA_MoissyCramayel-1_1_I-1-1.nod.xml"/>
        <edge-files value="./converted_scenarios/scenario-factory/FRA_MoissyCramayel-1_1_I-1-1/FRA_MoissyCramayel-1_1_I-1-1.edg.xml"/>
        <connection-files value="./converted_scenarios/scenario-factory/FRA_MoissyCramayel-1_1_I-1-1/FRA_MoissyCramayel-1_1_I-1-1.con.xml"/>
        <tllogic-files value="./converted_scenarios/scenario-factory/FRA_MoissyCramayel-1_1_I-1-1/FRA_MoissyCramayel-1_1_I-1-1.tll.xml"/>
        <type-files value="/home/zen/commonroad-interactive-benchmarks/install/commonroad-map-tool/crmapconverter/sumo_map/templates/DEU.typ.xml"/>
    </input>

    <output>
        <output-file value="./converted_scenarios/scenario-factory/FRA_MoissyCramayel-1_1_I-1-1/FRA_MoissyCramayel-1_1_I-1-1.net.xml"/>
    </output>

    <processing>
        <geometry.remove.keep-edges.explicit value="true"/>
        <geometry.avoid-overlap value="true"/>
        <offset.disable-normalization value="true"/>
    </processing>

    <junctions>
        <no-turnarounds value="true"/>
        <junctions.internal-link-detail value="20"/>
    </junctions>

    <report>
        <aggregate-warnings value="5"/>
    </report>

    <random_number>
        <seed value="1234"/>
    </random_number>

</configuration>
--><net xmlns:xsi="http://www.w3.org/2001/XMLSchema-instance" version="1.6" junctionCornerDetail="5" junctionLinkDetail="20" limitTurnSpeed="5.50" xsi:noNamespaceSchemaLocation="http://sumo.dlr.de/xsd/net_file.xsd">

    <location netOffset="0.00,0.00" convBoundary="-334.93,-798.21,-36.85,-511.58" origBoundary="-334.93,-798.21,-36.85,-511.58" projParameter="!"/>

    <type id="highway.bridleway" priority="1" speed="2.78" allow="pedestrian" oneway="1" width="2.00"/>
    <type id="highway.bus_guideway" priority="1" speed="27.78" allow="bus" oneway="1"/>
    <type id="highway.cycleway" priority="1" speed="8.33" allow="bicycle" oneway="0" width="1.00"/>
    <type id="highway.footway" priority="1" speed="2.78" allow="pedestrian" oneway="1" width="2.00"/>
    <type id="highway.ford" priority="1" speed="2.78" allow="army" oneway="0"/>
    <type id="highway.living_street" priority="2" speed="2.78" disallow="tram rail_urban rail rail_electric rail_fast ship" oneway="0"/>
    <type id="highway.motorway" priority="14" speed="39.44" allow="private emergency authority army vip passenger hov taxi bus coach delivery truck trailer motorcycle evehicle custom1 custom2" oneway="1"/>
    <type id="highway.motorway_link" priority="9" speed="22.22" allow="private emergency authority army vip passenger hov taxi bus coach delivery truck trailer motorcycle evehicle custom1 custom2" oneway="1"/>
    <type id="highway.path" priority="1" speed="2.78" allow="pedestrian bicycle" oneway="0" width="2.00"/>
    <type id="highway.pedestrian" priority="1" speed="2.78" allow="pedestrian" oneway="1" width="2.00"/>
    <type id="highway.primary" priority="12" speed="27.78" disallow="pedestrian tram rail_urban rail rail_electric rail_fast ship" oneway="0"/>
    <type id="highway.primary_link" priority="7" speed="22.22" disallow="pedestrian tram rail_urban rail rail_electric rail_fast ship" oneway="0"/>
    <type id="highway.raceway" priority="15" speed="83.33" allow="vip" oneway="0"/>
    <type id="highway.residential" priority="3" speed="13.89" disallow="pedestrian tram rail_urban rail rail_electric rail_fast ship" oneway="0"/>
    <type id="highway.secondary" priority="11" speed="27.78" disallow="pedestrian tram rail_urban rail rail_electric rail_fast ship" oneway="0"/>
    <type id="highway.secondary_link" priority="6" speed="22.22" disallow="pedestrian tram rail_urban rail rail_electric rail_fast ship" oneway="0"/>
    <type id="highway.service" priority="1" speed="5.56" allow="pedestrian delivery bicycle" oneway="0"/>
    <type id="highway.stairs" priority="1" speed="1.39" allow="pedestrian" oneway="1" width="2.00"/>
    <type id="highway.step" priority="1" speed="1.39" allow="pedestrian" oneway="1" width="2.00"/>
    <type id="highway.steps" priority="1" speed="1.39" allow="pedestrian" oneway="1" width="2.00"/>
    <type id="highway.tertiary" priority="10" speed="22.22" disallow="pedestrian tram rail_urban rail rail_electric rail_fast ship" oneway="0"/>
    <type id="highway.tertiary_link" priority="5" speed="22.22" disallow="pedestrian tram rail_urban rail rail_electric rail_fast ship" oneway="0"/>
    <type id="highway.track" priority="1" speed="5.56" allow="pedestrian motorcycle moped bicycle" oneway="0"/>
    <type id="highway.trunk" priority="13" speed="27.78" disallow="pedestrian bicycle tram rail_urban rail rail_electric rail_fast ship" oneway="0"/>
    <type id="highway.trunk_link" priority="8" speed="22.22" disallow="pedestrian bicycle tram rail_urban rail rail_electric rail_fast ship" oneway="0"/>
    <type id="highway.unclassified" priority="4" speed="13.89" disallow="pedestrian tram rail_urban rail rail_electric rail_fast ship" oneway="0"/>
    <type id="highway.unsurfaced" priority="1" speed="8.33" disallow="tram rail_urban rail rail_electric rail_fast ship" oneway="0"/>
    <type id="railway.highspeed" priority="21" speed="69.44" allow="rail_fast" oneway="1"/>
    <type id="railway.light_rail" priority="19" speed="27.78" allow="rail_urban" oneway="1"/>
    <type id="railway.preserved" priority="16" speed="27.78" allow="rail" oneway="1"/>
    <type id="railway.rail" priority="20" speed="44.44" allow="rail" oneway="1"/>
    <type id="railway.subway" priority="18" speed="27.78" allow="rail_urban" oneway="1"/>
    <type id="railway.tram" priority="17" speed="13.89" allow="tram" oneway="1"/>

    <edge id=":86_0" function="internal">
        <lane id=":86_0_0" index="0" disallow="pedestrian tram rail_urban rail rail_electric rail_fast ship" speed="11.64" length="28.39" width="3.50" shape="-248.79,-684.02 -252.21,-683.83 -254.40,-683.49 -256.53,-682.96 -258.56,-682.20 -260.45,-681.20 -262.16,-679.95 -263.65,-678.46 -264.92,-676.75 -265.94,-674.86 -266.74,-672.83 -267.33,-670.72 -267.89,-667.39"/>
    </edge>
    <edge id=":86_1" function="internal">
        <lane id=":86_1_0" index="0" disallow="pedestrian tram rail_urban rail rail_electric rail_fast ship" speed="36.11" length="38.47" width="3.50" shape="-248.79,-684.02 -256.09,-684.20 -266.45,-684.93 -280.92,-686.40 -287.11,-687.13"/>
    </edge>
    <edge id=":86_2" function="internal">
        <lane id=":86_2_0" index="0" disallow="pedestrian tram rail_urban rail rail_electric rail_fast ship" speed="36.11" length="38.01" width="3.50" shape="-286.69,-690.60 -280.55,-689.88 -266.21,-688.42 -255.98,-687.70 -248.82,-687.52"/>
    </edge>
    <edge id=":86_3" function="internal">
        <lane id=":86_3_0" index="0" disallow="pedestrian tram rail_urban rail rail_electric rail_fast ship" speed="12.21" length="34.10" width="3.50" shape="-286.69,-690.60 -284.18,-690.22 -281.69,-689.64 -279.24,-688.84 -276.85,-687.75 -274.62,-686.37 -273.54,-685.52 -272.55,-684.60 -271.64,-683.59 -270.82,-682.51 -270.09,-681.36 -269.47,-680.16 -268.95,-678.89 -268.21,-676.37 -267.80,-673.79 -267.68,-671.19 -267.89,-667.39"/>
    </edge>
    <edge id=":86_4" function="internal">
        <lane id=":86_4_0" index="0" disallow="pedestrian tram rail_urban rail rail_electric rail_fast ship" speed="11.21" length="28.55" width="3.50" shape="-271.37,-667.78 -271.18,-671.07 -271.29,-673.26 -271.63,-675.43 -272.25,-677.54 -272.68,-678.55 -273.19,-679.52 -273.77,-680.45 -274.44,-681.33 -275.17,-682.14 -275.98,-682.89 -276.84,-683.56 -278.71,-684.72 -280.71,-685.62 -282.80,-686.30 -284.94,-686.79 -287.11,-687.13"/>
    </edge>
    <edge id=":86_5" function="internal">
        <lane id=":86_5_0" index="0" disallow="pedestrian tram rail_urban rail rail_electric rail_fast ship" speed="12.62" length="33.53" width="3.50" shape="-271.37,-667.78 -270.73,-671.59 -270.04,-674.07 -269.09,-676.47 -267.86,-678.74 -266.33,-680.81 -264.51,-682.64 -262.44,-684.16 -260.16,-685.37 -257.75,-686.28 -255.25,-686.91 -252.70,-687.30 -248.82,-687.52"/>
    </edge>
    <edge id=":87_0" function="internal">
        <lane id=":87_0_0" index="0" disallow="pedestrian tram rail_urban rail rail_electric rail_fast ship" speed="36.11" length="38.69" width="3.50" shape="-138.52,-684.96 -139.75,-657.80 -140.40,-646.32"/>
    </edge>
    <edge id=":87_1" function="internal">
        <lane id=":87_1_0" index="0" disallow="pedestrian tram rail_urban rail rail_electric rail_fast ship" speed="12.07" length="34.26" width="3.50" shape="-138.52,-684.96 -138.59,-683.67 -138.89,-681.13 -139.42,-678.59 -140.25,-676.09 -141.42,-673.71 -142.17,-672.55 -143.01,-671.47 -143.95,-670.47 -144.98,-669.56 -146.07,-668.75 -147.24,-668.05 -148.44,-667.44 -149.71,-666.93 -152.21,-666.19 -154.78,-665.75 -157.35,-665.56 -161.15,-665.62"/>
    </edge>
    <edge id=":87_2" function="internal">
        <lane id=":87_2_0" index="0" disallow="pedestrian tram rail_urban rail rail_electric rail_fast ship" speed="11.05" length="28.57" width="3.50" shape="-160.92,-669.11 -157.62,-669.06 -155.43,-669.22 -153.27,-669.58 -151.16,-670.20 -150.14,-670.61 -149.15,-671.10 -148.21,-671.66 -147.32,-672.31 -146.50,-673.03 -145.74,-673.83 -145.06,-674.69 -144.46,-675.61 -143.48,-677.58 -142.78,-679.66 -142.33,-681.81 -142.08,-683.99 -142.02,-685.10"/>
    </edge>
    <edge id=":87_3" function="internal">
        <lane id=":87_3_0" index="0" disallow="pedestrian tram rail_urban rail rail_electric rail_fast ship" speed="12.39" length="35.14" width="3.50" shape="-160.92,-669.11 -157.04,-668.67 -154.49,-668.14 -152.01,-667.36 -149.62,-666.32 -147.41,-664.95 -146.38,-664.15 -145.43,-663.27 -144.55,-662.31 -143.75,-661.28 -143.05,-660.18 -141.90,-657.85 -141.10,-655.37 -140.60,-652.82 -140.36,-650.22 -140.40,-646.32"/>
    </edge>
    <edge id=":87_4" function="internal">
        <lane id=":87_4_0" index="0" disallow="pedestrian tram rail_urban rail rail_electric rail_fast ship" speed="11.41" length="29.62" width="3.50" shape="-143.89,-646.49 -143.86,-649.94 -144.06,-652.15 -144.48,-654.31 -145.15,-656.37 -146.11,-658.31 -146.67,-659.16 -147.31,-659.99 -148.02,-660.77 -148.79,-661.48 -149.60,-662.11 -151.45,-663.25 -153.45,-664.13 -155.56,-664.78 -157.74,-665.24 -161.15,-665.62"/>
    </edge>
    <edge id=":87_5" function="internal">
        <lane id=":87_5_0" index="0" disallow="pedestrian tram rail_urban rail rail_electric rail_fast ship" speed="36.11" length="38.66" width="3.50" shape="-143.89,-646.49 -143.25,-657.98 -142.02,-685.10"/>
    </edge>
    <edge id=":88_0" function="internal">
        <lane id=":88_0_0" index="0" disallow="pedestrian tram rail_urban rail rail_electric rail_fast ship" speed="11.41" length="29.65" width="3.50" shape="-208.00,-581.19 -207.79,-584.62 -207.88,-586.84 -208.18,-589.03 -208.72,-591.14 -209.56,-593.14 -210.06,-594.04 -210.65,-594.91 -211.31,-595.73 -212.04,-596.50 -212.80,-597.18 -214.58,-598.44 -216.51,-599.44 -218.59,-600.21 -220.74,-600.80 -224.11,-601.37"/>
    </edge>
    <edge id=":88_1" function="internal">
        <lane id=":88_1_0" index="0" disallow="pedestrian tram rail_urban rail rail_electric rail_fast ship" speed="36.11" length="39.19" width="3.50" shape="-208.00,-581.19 -206.18,-599.67 -204.19,-620.19"/>
    </edge>
    <edge id=":88_2" function="internal">
        <lane id=":88_2_0" index="0" disallow="pedestrian tram rail_urban rail rail_electric rail_fast ship" speed="12.18" length="34.16" width="3.50" shape="-208.00,-581.19 -207.83,-582.49 -207.11,-586.19 -206.35,-588.67 -205.33,-591.08 -204.01,-593.34 -203.19,-594.45 -202.30,-595.47 -201.32,-596.41 -200.26,-597.26 -199.13,-598.02 -197.94,-598.67 -196.71,-599.22 -195.41,-599.67 -192.87,-600.27 -190.27,-600.56 -187.70,-600.58 -185.14,-600.39"/>
    </edge>
    <edge id=":88_3" function="internal">
        <lane id=":88_3_0" index="0" disallow="pedestrian tram rail_urban rail rail_electric rail_fast ship" speed="11.16" length="28.56" width="3.50" shape="-185.53,-596.91 -187.73,-597.08 -189.93,-597.06 -192.11,-596.81 -194.24,-596.30 -195.28,-595.94 -196.28,-595.48 -197.24,-594.95 -198.15,-594.34 -199.00,-593.65 -199.79,-592.88 -200.51,-592.05 -201.16,-591.17 -202.26,-589.27 -203.11,-587.24 -203.75,-585.14 -204.38,-581.91 -204.52,-580.82"/>
    </edge>
    <edge id=":88_4" function="internal">
        <lane id=":88_4_0" index="0" disallow="pedestrian tram rail_urban rail rail_electric rail_fast ship" speed="36.11" length="38.84" width="3.50" shape="-185.53,-596.91 -204.83,-599.14 -224.11,-601.37"/>
    </edge>
    <edge id=":88_5" function="internal">
        <lane id=":88_5_0" index="0" disallow="pedestrian tram rail_urban rail rail_electric rail_fast ship" speed="12.20" length="34.20" width="3.50" shape="-185.53,-596.91 -189.43,-597.55 -191.97,-598.24 -194.42,-599.19 -196.74,-600.43 -197.82,-601.18 -198.84,-602.01 -199.79,-602.92 -200.66,-603.91 -201.43,-604.97 -202.11,-606.09 -202.70,-607.27 -203.59,-609.74 -204.13,-612.32 -204.38,-614.93 -204.38,-617.56 -204.19,-620.19"/>
    </edge>
    <edge id=":88_6" function="internal">
        <lane id=":88_6_0" index="0" disallow="pedestrian tram rail_urban rail rail_electric rail_fast ship" speed="11.20" length="28.62" width="3.50" shape="-200.71,-619.81 -200.88,-617.53 -200.88,-615.27 -200.67,-613.05 -200.22,-610.90 -199.48,-608.84 -199.01,-607.91 -198.47,-607.01 -197.85,-606.16 -197.15,-605.37 -196.39,-604.64 -195.56,-603.97 -194.71,-603.37 -192.76,-602.33 -190.70,-601.53 -188.54,-600.95 -185.14,-600.39"/>
    </edge>
    <edge id=":88_7" function="internal">
        <lane id=":88_7_0" index="0" disallow="pedestrian tram rail_urban rail rail_electric rail_fast ship" speed="36.11" length="39.18" width="3.50" shape="-200.71,-619.81 -202.69,-599.31 -204.52,-580.82"/>
    </edge>
    <edge id=":88_8" function="internal">
        <lane id=":88_8_0" index="0" disallow="pedestrian tram rail_urban rail rail_electric rail_fast ship" speed="12.13" length="34.17" width="3.50" shape="-200.71,-619.81 -201.32,-616.06 -202.00,-613.55 -202.94,-611.10 -204.19,-608.79 -204.97,-607.66 -205.83,-606.62 -206.79,-605.64 -207.82,-604.76 -208.94,-603.97 -210.11,-603.28 -211.33,-602.70 -212.61,-602.21 -215.14,-601.55 -217.73,-601.20 -220.32,-601.11 -224.11,-601.37"/>
    </edge>
    <edge id=":88_9" function="internal">
        <lane id=":88_9_0" index="0" disallow="pedestrian tram rail_urban rail rail_electric rail_fast ship" speed="11.12" length="28.55" width="3.50" shape="-223.70,-604.85 -220.42,-604.62 -218.22,-604.69 -216.04,-604.98 -213.92,-605.54 -212.89,-605.93 -211.90,-606.40 -210.95,-606.96 -210.06,-607.59 -209.22,-608.30 -208.45,-609.09 -207.75,-609.94 -207.13,-610.84 -206.08,-612.77 -205.29,-614.82 -204.72,-616.94 -204.19,-620.19"/>
    </edge>
    <edge id=":88_10" function="internal">
        <lane id=":88_10_0" index="0" disallow="pedestrian tram rail_urban rail rail_electric rail_fast ship" speed="36.11" length="38.82" width="3.50" shape="-223.70,-604.85 -204.43,-602.62 -185.14,-600.39"/>
    </edge>
    <edge id=":88_11" function="internal">
        <lane id=":88_11_0" index="0" disallow="pedestrian tram rail_urban rail rail_electric rail_fast ship" speed="12.40" length="35.19" width="3.50" shape="-223.70,-604.85 -219.85,-604.19 -217.33,-603.51 -214.89,-602.59 -212.57,-601.39 -210.45,-599.89 -209.47,-599.02 -208.58,-598.08 -207.76,-597.06 -207.03,-595.98 -206.40,-594.84 -205.40,-592.43 -204.74,-589.91 -204.39,-587.33 -204.29,-584.72 -204.52,-580.82"/>
    </edge>
    <edge id=":89_0" function="internal">
        <lane id=":89_0_0" index="0" disallow="pedestrian tram rail_urban rail rail_electric rail_fast ship" speed="15.07" length="116.36" width="3.50" shape="-192.23,-732.01 -192.04,-734.29 -192.05,-737.72 -192.28,-739.91 -192.74,-742.04 -193.47,-744.08 -193.92,-744.99 -194.46,-745.87 -195.08,-746.70 -195.77,-747.46 -196.53,-748.14 -197.35,-748.76 -198.21,-749.29 -200.17,-750.17 -202.24,-750.77 -204.45,-751.14 -204.45,-751.14 -204.54,-751.15 -204.68,-751.17 -205.98,-751.34 -208.54,-751.85 -211.08,-752.62 -212.37,-753.17 -213.61,-753.84 -214.80,-754.69 -215.88,-755.72 -216.80,-756.94 -217.49,-758.33 -217.91,-759.82 -218.07,-761.33 -218.01,-762.76 -217.99,-762.95 -217.97,-763.07 -217.71,-764.47 -217.22,-765.80 -216.51,-767.02 -215.57,-768.08 -214.45,-768.95 -213.20,-769.63 -211.87,-770.13 -210.50,-770.48 -207.68,-770.86 -204.85,-770.92 -200.59,-770.61 -200.47,-770.59 -200.32,-770.58 -197.81,-770.20 -195.27,-769.65 -192.77,-768.84 -191.51,-768.29 -190.28,-767.63 -189.11,-766.81 -188.02,-765.82 -187.08,-764.63 -186.36,-763.28 -185.89,-761.80 -185.71,-760.29 -185.76,-758.84 -185.78,-758.65 -185.79,-758.52 -185.79,-758.52 -187.27,-745.09 -188.74,-731.66"/>
    </edge>
    <edge id=":90_0" function="internal">
        <lane id=":90_0_0" index="0" disallow="pedestrian tram rail_urban rail rail_electric rail_fast ship" speed="11.23" length="28.73" width="3.50" shape="-176.64,-666.94 -180.03,-667.21 -182.23,-667.21 -184.43,-667.02 -186.59,-666.60 -188.68,-665.91 -189.68,-665.45 -190.64,-664.91 -191.55,-664.29 -192.40,-663.59 -193.18,-662.81 -193.89,-661.97 -194.52,-661.07 -195.56,-659.13 -196.32,-657.06 -196.85,-654.92 -197.17,-652.74"/>
    </edge>
    <edge id=":90_1" function="internal">
        <lane id=":90_1_0" index="0" disallow="pedestrian tram rail_urban rail rail_electric rail_fast ship" speed="36.11" length="44.89" width="3.50" shape="-176.64,-666.93 -179.82,-667.46 -182.84,-668.23 -186.79,-669.57 -191.56,-671.63 -204.57,-678.21 -209.34,-680.29 -213.27,-681.65 -216.30,-682.44 -218.37,-682.84"/>
    </edge>
    <edge id=":90_2" function="internal">
        <lane id=":90_2_0" index="0" disallow="pedestrian tram rail_urban rail rail_electric rail_fast ship" speed="13.36" length="41.51" width="3.50" shape="-176.64,-666.93 -179.21,-667.35 -181.65,-667.97 -184.01,-668.82 -186.25,-669.94 -188.34,-671.34 -190.20,-673.01 -191.81,-674.94 -193.15,-677.06 -194.20,-679.34 -195.00,-681.72 -195.58,-684.16 -196.07,-687.89 -196.22,-691.65 -196.08,-695.42 -195.86,-697.92"/>
    </edge>
    <edge id=":90_3" function="internal">
        <lane id=":90_3_0" index="0" disallow="pedestrian tram rail_urban rail rail_electric rail_fast ship" speed="12.45" length="35.93" width="3.50" shape="-192.38,-697.56 -192.58,-695.29 -192.71,-691.88 -192.60,-688.52 -192.17,-685.20 -191.70,-683.07 -191.03,-681.01 -190.15,-679.06 -189.06,-677.26 -187.74,-675.63 -186.21,-674.21 -184.48,-673.02 -182.59,-672.06 -180.58,-671.31 -178.47,-670.77 -176.29,-670.41"/>
    </edge>
    <edge id=":90_4" function="internal">
        <lane id=":90_4_0" index="0" disallow="pedestrian tram rail_urban rail rail_electric rail_fast ship" speed="36.11" length="45.08" width="3.50" shape="-192.38,-697.56 -194.78,-675.14 -197.17,-652.74"/>
    </edge>
    <edge id=":90_5" function="internal">
        <lane id=":90_5_0" index="0" disallow="pedestrian tram rail_urban rail rail_electric rail_fast ship" speed="36.11" length="44.73" width="3.50" shape="-217.86,-686.30 -215.63,-685.87 -212.49,-685.05 -208.43,-683.64 -203.56,-681.52 -190.58,-674.95 -185.92,-672.93 -182.12,-671.64 -179.24,-670.91 -176.29,-670.41"/>
    </edge>
    <edge id=":90_6" function="internal">
        <lane id=":90_6_0" index="0" disallow="pedestrian tram rail_urban rail rail_electric rail_fast ship" speed="14.06" length="44.55" width="3.50" shape="-217.86,-686.30 -214.15,-685.49 -211.80,-684.74 -209.52,-683.77 -207.36,-682.58 -205.34,-681.16 -203.51,-679.50 -201.90,-677.63 -200.52,-675.58 -199.39,-673.39 -198.49,-671.09 -197.81,-668.71 -197.14,-665.07 -196.84,-661.38 -196.82,-657.67 -197.17,-652.74"/>
    </edge>
    <edge id=":90_7" function="internal">
        <lane id=":90_7_0" index="0" disallow="pedestrian tram rail_urban rail rail_electric rail_fast ship" speed="13.19" length="39.12" width="3.50" shape="-200.65,-653.12 -200.33,-657.62 -200.33,-660.97 -200.60,-664.28 -201.17,-667.54 -201.75,-669.62 -202.52,-671.63 -203.47,-673.53 -204.63,-675.30 -205.98,-676.91 -207.52,-678.33 -209.24,-679.57 -211.09,-680.61 -213.07,-681.46 -215.11,-682.12 -218.37,-682.84"/>
    </edge>
    <edge id=":90_8" function="internal">
        <lane id=":90_8_0" index="0" disallow="pedestrian tram rail_urban rail rail_electric rail_fast ship" speed="36.11" length="45.06" width="3.50" shape="-200.65,-653.12 -198.26,-675.52 -195.86,-697.92"/>
    </edge>
    <edge id=":90_9" function="internal">
        <lane id=":90_9_0" index="0" disallow="pedestrian tram rail_urban rail rail_electric rail_fast ship" speed="12.24" length="34.29" width="3.50" shape="-200.65,-653.12 -200.27,-655.66 -199.66,-658.19 -198.75,-660.67 -197.52,-663.01 -196.73,-664.15 -195.87,-665.21 -194.91,-666.18 -193.86,-667.07 -192.74,-667.85 -191.56,-668.53 -190.30,-669.12 -187.81,-669.96 -185.23,-670.48 -182.65,-670.71 -180.08,-670.72 -176.29,-670.41"/>
    </edge>
    <edge id=":91_0" function="internal">
        <lane id=":91_0_0" index="0" disallow="pedestrian tram rail_urban rail rail_electric rail_fast ship" speed="11.10" length="28.34" width="3.50" shape="-257.18,-605.32 -260.45,-605.54 -262.63,-605.46 -264.78,-605.16 -266.89,-604.60 -267.90,-604.20 -268.89,-603.73 -269.82,-603.17 -270.71,-602.53 -271.53,-601.82 -272.29,-601.03 -272.98,-600.19 -274.14,-598.35 -275.05,-596.37 -275.72,-594.29 -276.20,-592.16 -276.51,-590.01"/>
    </edge>
    <edge id=":91_1" function="internal">
        <lane id=":91_1_0" index="0" disallow="pedestrian tram rail_urban rail rail_electric rail_fast ship" speed="12.25" length="34.38" width="3.50" shape="-257.18,-605.32 -261.09,-606.00 -263.64,-606.72 -266.09,-607.70 -268.40,-608.98 -269.48,-609.75 -270.50,-610.60 -271.44,-611.53 -272.29,-612.54 -273.05,-613.62 -273.72,-614.76 -274.29,-615.95 -275.16,-618.45 -275.68,-621.04 -275.91,-623.68 -275.90,-626.32 -275.70,-628.96"/>
    </edge>
    <edge id=":91_2" function="internal">
        <lane id=":91_2_0" index="0" disallow="pedestrian tram rail_urban rail rail_electric rail_fast ship" speed="11.26" length="28.85" width="3.50" shape="-272.21,-628.59 -272.40,-626.27 -272.41,-623.99 -272.21,-621.75 -271.78,-619.57 -271.06,-617.49 -270.61,-616.55 -270.07,-615.63 -269.46,-614.76 -268.77,-613.95 -268.01,-613.20 -267.19,-612.51 -266.34,-611.90 -264.40,-610.82 -262.34,-610.00 -260.18,-609.38 -256.77,-608.79"/>
    </edge>
    <edge id=":91_3" function="internal">
        <lane id=":91_3_0" index="0" disallow="pedestrian tram rail_urban rail rail_electric rail_fast ship" speed="36.11" length="38.82" width="3.50" shape="-272.21,-628.59 -274.37,-609.29 -276.51,-590.01"/>
    </edge>
    <edge id=":91_4" function="internal">
        <lane id=":91_4_0" index="0" disallow="pedestrian tram rail_urban rail rail_electric rail_fast ship" speed="36.11" length="38.81" width="3.50" shape="-279.99,-590.39 -277.84,-609.68 -275.70,-628.96"/>
    </edge>
    <edge id=":91_5" function="internal">
        <lane id=":91_5_0" index="0" disallow="pedestrian tram rail_urban rail rail_electric rail_fast ship" speed="12.11" length="33.96" width="3.50" shape="-279.99,-590.39 -279.63,-592.89 -279.07,-595.38 -278.27,-597.83 -277.18,-600.21 -275.78,-602.43 -274.91,-603.50 -273.97,-604.47 -272.95,-605.36 -271.85,-606.15 -270.69,-606.84 -269.48,-607.43 -268.21,-607.92 -265.69,-608.60 -263.12,-608.96 -260.54,-609.05 -256.77,-608.79"/>
    </edge>
    <edge id=":92_0" function="internal">
        <lane id=":92_0_0" index="0" disallow="pedestrian tram rail_urban rail rail_electric rail_fast ship" speed="13.47" length="30.64" width="3.50" shape="-142.85,-577.19 -143.44,-579.25 -144.19,-581.22 -145.11,-583.10 -146.20,-584.88 -147.46,-586.52 -148.89,-588.02 -150.48,-589.37 -152.20,-590.55 -154.04,-591.57 -155.95,-592.42 -159.01,-593.45 -162.15,-594.19 -165.36,-594.66"/>
    </edge>
    <edge id=":92_1" function="internal">
        <lane id=":92_1_0" index="0" disallow="pedestrian tram rail_urban rail rail_electric rail_fast ship" speed="36.11" length="37.08" width="3.50" shape="-142.85,-577.19 -144.19,-583.42 -145.16,-589.70 -145.77,-596.03 -146.06,-602.37 -146.02,-609.78 -145.83,-614.01"/>
    </edge>
    <edge id=":92_2" function="internal">
        <lane id=":92_2_0" index="0" disallow="pedestrian tram rail_urban rail rail_electric rail_fast ship" speed="36.11" length="36.01" width="3.50" shape="-142.34,-613.80 -142.52,-609.69 -142.57,-602.47 -142.29,-596.30 -141.69,-590.16 -140.75,-584.07 -139.45,-578.04"/>
    </edge>
    <edge id=":92_3" function="internal">
        <lane id=":92_3_0" index="0" disallow="pedestrian tram rail_urban rail rail_electric rail_fast ship" speed="12.04" length="34.66" width="3.50" shape="-142.33,-613.80 -142.77,-609.97 -143.33,-607.40 -144.18,-604.88 -145.34,-602.49 -146.09,-601.31 -146.93,-600.21 -147.87,-599.19 -148.90,-598.26 -150.01,-597.43 -151.20,-596.72 -152.43,-596.11 -153.72,-595.60 -156.29,-594.90 -158.91,-594.53 -161.53,-594.43 -165.36,-594.66"/>
    </edge>
    <edge id=":92_4" function="internal">
        <lane id=":92_4_0" index="0" disallow="pedestrian tram rail_urban rail rail_electric rail_fast ship" speed="11.03" length="28.88" width="3.50" shape="-164.98,-598.14 -161.66,-597.94 -159.44,-598.02 -157.23,-598.33 -155.09,-598.91 -154.06,-599.32 -153.06,-599.81 -152.11,-600.39 -151.22,-601.05 -150.39,-601.79 -149.64,-602.61 -148.96,-603.49 -148.36,-604.43 -147.38,-606.42 -146.68,-608.53 -146.20,-610.70 -145.83,-614.01"/>
    </edge>
    <edge id=":92_5" function="internal">
        <lane id=":92_5_0" index="0" disallow="pedestrian tram rail_urban rail rail_electric rail_fast ship" speed="14.35" length="34.91" width="3.50" shape="-164.98,-598.14 -161.41,-597.61 -157.90,-596.78 -154.48,-595.62 -152.29,-594.63 -150.19,-593.45 -148.21,-592.07 -146.39,-590.51 -144.73,-588.76 -143.28,-586.84 -142.02,-584.79 -140.98,-582.62 -140.12,-580.37 -139.45,-578.04"/>
    </edge>
    <edge id=":93_0" function="internal">
        <lane id=":93_0_0" index="0" disallow="pedestrian tram rail_urban rail rail_electric rail_fast ship" speed="11.04" length="28.45" width="3.50" shape="-305.48,-689.36 -308.90,-689.60 -311.12,-689.53 -313.30,-689.23 -315.42,-688.66 -316.38,-688.29 -317.32,-687.82 -318.22,-687.28 -319.06,-686.67 -319.84,-685.98 -320.56,-685.22 -321.21,-684.40 -321.79,-683.54 -322.80,-681.59 -323.55,-679.53 -324.09,-677.37 -324.58,-673.95"/>
    </edge>
    <edge id=":93_1" function="internal">
        <lane id=":93_1_0" index="0" disallow="pedestrian tram rail_urban rail rail_electric rail_fast ship" speed="12.31" length="34.17" width="3.50" shape="-305.48,-689.36 -308.01,-689.76 -310.51,-690.34 -312.97,-691.17 -315.37,-692.29 -317.59,-693.71 -318.66,-694.58 -319.64,-695.52 -320.54,-696.54 -321.35,-697.64 -322.06,-698.79 -322.66,-700.00 -323.18,-701.27 -323.92,-703.79 -324.33,-706.38 -324.48,-708.97 -324.32,-712.75"/>
    </edge>
    <edge id=":93_2" function="internal">
        <lane id=":93_2_0" index="0" disallow="pedestrian tram rail_urban rail rail_electric rail_fast ship" speed="11.32" length="28.72" width="3.50" shape="-320.83,-712.45 -320.98,-709.14 -320.85,-706.93 -320.50,-704.75 -319.88,-702.63 -319.47,-701.61 -318.97,-700.62 -318.39,-699.68 -317.74,-698.79 -317.01,-697.96 -316.21,-697.20 -315.35,-696.50 -313.49,-695.31 -311.49,-694.38 -309.40,-693.68 -307.25,-693.18 -305.06,-692.84"/>
    </edge>
    <edge id=":93_3" function="internal">
        <lane id=":93_3_0" index="0" disallow="pedestrian tram rail_urban rail rail_electric rail_fast ship" speed="36.11" length="38.68" width="3.50" shape="-320.83,-712.45 -322.70,-693.21 -324.58,-673.95"/>
    </edge>
    <edge id=":93_4" function="internal">
        <lane id=":93_4_0" index="0" disallow="pedestrian tram rail_urban rail rail_electric rail_fast ship" speed="36.11" length="38.65" width="3.50" shape="-328.07,-674.28 -326.19,-693.55 -324.32,-712.75"/>
    </edge>
    <edge id=":93_5" function="internal">
        <lane id=":93_5_0" index="0" disallow="pedestrian tram rail_urban rail rail_electric rail_fast ship" speed="12.05" length="34.14" width="3.50" shape="-328.07,-674.28 -327.50,-678.21 -326.86,-680.75 -325.96,-683.21 -324.76,-685.54 -324.03,-686.63 -323.21,-687.66 -322.31,-688.62 -321.33,-689.48 -320.27,-690.26 -319.15,-690.93 -317.97,-691.51 -316.75,-691.99 -314.21,-692.67 -311.61,-693.02 -308.99,-693.11 -305.06,-692.84"/>
    </edge>
    <edge id=":94_0" function="internal">
        <lane id=":94_0_0" index="0" disallow="pedestrian tram rail_urban rail rail_electric rail_fast ship" speed="11.74" length="29.57" width="3.50" shape="-118.94,-707.36 -121.20,-707.19 -124.57,-706.66 -126.71,-706.11 -128.77,-705.35 -130.71,-704.39 -132.47,-703.18 -134.03,-701.75 -135.34,-700.09 -136.41,-698.25 -137.22,-696.25 -137.79,-694.14 -138.15,-691.95 -138.33,-689.69"/>
    </edge>
    <edge id=":94_1" function="internal">
        <lane id=":94_1_0" index="0" disallow="pedestrian tram rail_urban rail rail_electric rail_fast ship" speed="11.86" length="34.63" width="3.50" shape="-118.94,-707.35 -122.78,-707.38 -125.39,-707.65 -127.98,-708.21 -130.48,-709.10 -131.74,-709.72 -132.92,-710.44 -134.03,-711.26 -135.06,-712.20 -136.00,-713.23 -136.82,-714.34 -137.54,-715.52 -138.16,-716.78 -139.05,-719.28 -139.61,-721.87 -139.89,-724.48 -139.92,-728.29"/>
    </edge>
    <edge id=":94_2" function="internal">