<!-- generated on Tue Feb  9 22:00:23 2021 by Eclipse SUMO netconvert Version 1.8.0
<configuration xmlns:xsi="http://www.w3.org/2001/XMLSchema-instance" xsi:noNamespaceSchemaLocation="http://sumo.dlr.de/xsd/netconvertConfiguration.xsd">

    <input>
        <node-files value="./converted_scenarios/scenario-factory/DEU_Guetersloh-28_5_I-1-1/DEU_Guetersloh-28_5_I-1-1.nod.xml"/>
        <edge-files value="./converted_scenarios/scenario-factory/DEU_Guetersloh-28_5_I-1-1/DEU_Guetersloh-28_5_I-1-1.edg.xml"/>
        <connection-files value="./converted_scenarios/scenario-factory/DEU_Guetersloh-28_5_I-1-1/DEU_Guetersloh-28_5_I-1-1.con.xml"/>
        <tllogic-files value="./converted_scenarios/scenario-factory/DEU_Guetersloh-28_5_I-1-1/DEU_Guetersloh-28_5_I-1-1.tll.xml"/>
        <type-files value="/home/zen/commonroad-interactive-benchmarks/install/commonroad-map-tool/crmapconverter/sumo_map/templates/DEU.typ.xml"/>
    </input>

    <output>
        <output-file value="./converted_scenarios/scenario-factory/DEU_Guetersloh-28_5_I-1-1/DEU_Guetersloh-28_5_I-1-1.net.xml"/>
    </output>

    <processing>
        <geometry.remove.keep-edges.explicit value="true"/>
        <geometry.avoid-overlap value="true"/>
        <offset.disable-normalization value="true"/>
    </processing>

    <junctions>
        <no-turnarounds value="true"/>
        <junctions.internal-link-detail value="20"/>
    </junctions>

    <report>
        <aggregate-warnings value="5"/>
    </report>

    <random_number>
        <seed value="1234"/>
    </random_number>

</configuration>
--><net xmlns:xsi="http://www.w3.org/2001/XMLSchema-instance" version="1.6" junctionCornerDetail="5" junctionLinkDetail="20" limitTurnSpeed="5.50" xsi:noNamespaceSchemaLocation="http://sumo.dlr.de/xsd/net_file.xsd">

    <location netOffset="0.00,0.00" convBoundary="-674.81,287.70,-420.21,465.08" origBoundary="-674.81,287.70,-420.21,465.08" projParameter="!"/>

    <type id="highway.bridleway" priority="1" speed="2.78" allow="pedestrian" oneway="1" width="2.00"/>
    <type id="highway.bus_guideway" priority="1" speed="27.78" allow="bus" oneway="1"/>
    <type id="highway.cycleway" priority="1" speed="8.33" allow="bicycle" oneway="0" width="1.00"/>
    <type id="highway.footway" priority="1" speed="2.78" allow="pedestrian" oneway="1" width="2.00"/>
    <type id="highway.ford" priority="1" speed="2.78" allow="army" oneway="0"/>
    <type id="highway.living_street" priority="2" speed="2.78" disallow="tram rail_urban rail rail_electric rail_fast ship" oneway="0"/>
    <type id="highway.motorway" priority="14" speed="39.44" allow="private emergency authority army vip passenger hov taxi bus coach delivery truck trailer motorcycle evehicle custom1 custom2" oneway="1"/>
    <type id="highway.motorway_link" priority="9" speed="22.22" allow="private emergency authority army vip passenger hov taxi bus coach delivery truck trailer motorcycle evehicle custom1 custom2" oneway="1"/>
    <type id="highway.path" priority="1" speed="2.78" allow="pedestrian bicycle" oneway="0" width="2.00"/>
    <type id="highway.pedestrian" priority="1" speed="2.78" allow="pedestrian" oneway="1" width="2.00"/>
    <type id="highway.primary" priority="12" speed="27.78" disallow="pedestrian tram rail_urban rail rail_electric rail_fast ship" oneway="0"/>
    <type id="highway.primary_link" priority="7" speed="22.22" disallow="pedestrian tram rail_urban rail rail_electric rail_fast ship" oneway="0"/>
    <type id="highway.raceway" priority="15" speed="83.33" allow="vip" oneway="0"/>
    <type id="highway.residential" priority="3" speed="13.89" disallow="pedestrian tram rail_urban rail rail_electric rail_fast ship" oneway="0"/>
    <type id="highway.secondary" priority="11" speed="27.78" disallow="pedestrian tram rail_urban rail rail_electric rail_fast ship" oneway="0"/>
    <type id="highway.secondary_link" priority="6" speed="22.22" disallow="pedestrian tram rail_urban rail rail_electric rail_fast ship" oneway="0"/>
    <type id="highway.service" priority="1" speed="5.56" allow="pedestrian delivery bicycle" oneway="0"/>
    <type id="highway.stairs" priority="1" speed="1.39" allow="pedestrian" oneway="1" width="2.00"/>
    <type id="highway.step" priority="1" speed="1.39" allow="pedestrian" oneway="1" width="2.00"/>
    <type id="highway.steps" priority="1" speed="1.39" allow="pedestrian" oneway="1" width="2.00"/>
    <type id="highway.tertiary" priority="10" speed="22.22" disallow="pedestrian tram rail_urban rail rail_electric rail_fast ship" oneway="0"/>
    <type id="highway.tertiary_link" priority="5" speed="22.22" disallow="pedestrian tram rail_urban rail rail_electric rail_fast ship" oneway="0"/>
    <type id="highway.track" priority="1" speed="5.56" allow="pedestrian motorcycle moped bicycle" oneway="0"/>
    <type id="highway.trunk" priority="13" speed="27.78" disallow="pedestrian bicycle tram rail_urban rail rail_electric rail_fast ship" oneway="0"/>
    <type id="highway.trunk_link" priority="8" speed="22.22" disallow="pedestrian bicycle tram rail_urban rail rail_electric rail_fast ship" oneway="0"/>
    <type id="highway.unclassified" priority="4" speed="13.89" disallow="pedestrian tram rail_urban rail rail_electric rail_fast ship" oneway="0"/>
    <type id="highway.unsurfaced" priority="1" speed="8.33" disallow="tram rail_urban rail rail_electric rail_fast ship" oneway="0"/>
    <type id="railway.highspeed" priority="21" speed="69.44" allow="rail_fast" oneway="1"/>
    <type id="railway.light_rail" priority="19" speed="27.78" allow="rail_urban" oneway="1"/>
    <type id="railway.preserved" priority="16" speed="27.78" allow="rail" oneway="1"/>
    <type id="railway.rail" priority="20" speed="44.44" allow="rail" oneway="1"/>
    <type id="railway.subway" priority="18" speed="27.78" allow="rail_urban" oneway="1"/>
    <type id="railway.tram" priority="17" speed="13.89" allow="tram" oneway="1"/>

    <edge id=":1_0" function="internal">
        <lane id=":1_0_0" index="0" disallow="pedestrian tram rail_urban rail rail_electric rail_fast ship" speed="36.11" length="2.95" width="3.50" shape="-524.68,412.51 -526.93,410.60"/>
    </edge>
    <edge id=":11_0" function="internal">
        <lane id=":11_0_0" index="0" disallow="pedestrian tram rail_urban rail rail_electric rail_fast ship" speed="36.11" length="2.94" width="3.50" shape="-610.78,442.95 -610.72,445.89"/>
    </edge>
    <edge id=":27_0" function="internal">
        <lane id=":27_0_0" index="0" disallow="pedestrian tram rail_urban rail rail_electric rail_fast ship" speed="36.11" length="8.19" width="3.50" shape="-614.28,448.65 -614.24,448.04 -614.21,447.49 -614.18,446.99 -614.16,446.54 -614.15,446.13 -614.14,445.75 -614.14,445.39 -614.14,445.05 -614.15,444.72 -614.17,444.40 -614.18,444.07 -614.20,443.73 -614.23,443.38 -614.25,443.00 -614.27,442.58 -614.30,442.13 -614.33,441.63 -614.35,441.08 -614.38,440.47"/>
    </edge>
    <edge id=":40_0" function="internal">
        <lane id=":40_0_0" index="0" disallow="pedestrian tram rail_urban rail rail_electric rail_fast ship" speed="36.11" length="2.94" width="3.50" shape="-524.65,407.94 -522.41,409.85"/>
    </edge>
    <edge id=":41_0" function="internal">
        <lane id=":41_0_0" index="0" disallow="pedestrian tram rail_urban rail rail_electric rail_fast ship" speed="13.14" length="35.85" width="3.50" shape="-581.98,393.14 -585.33,392.97 -588.69,393.16 -591.45,393.64 -594.13,394.46 -596.66,395.64 -598.55,396.85 -600.69,398.66 -602.55,400.75 -604.13,403.06 -605.45,405.53 -606.73,408.64 -607.86,412.40"/>
    </edge>
    <edge id=":41_1" function="internal">
        <lane id=":41_1_0" index="0" disallow="pedestrian tram rail_urban rail rail_electric rail_fast ship" speed="36.11" length="48.21" width="3.49" shape="-581.98,393.14 -594.58,391.75 -606.64,390.04 -618.14,388.04 -629.07,385.78 -629.57,385.66"/>
    </edge>
    <edge id=":41_2" function="internal">
        <lane id=":41_2_0" index="0" disallow="pedestrian tram rail_urban rail rail_electric rail_fast ship" speed="12.28" length="35.23" width="3.50" shape="-581.63,389.66 -584.23,389.31 -586.78,388.76 -589.26,387.96 -591.62,386.86 -592.74,386.19 -593.80,385.43 -594.79,384.59 -595.71,383.67 -596.55,382.67 -597.29,381.60 -597.95,380.47 -598.97,378.07 -599.65,375.56 -600.03,372.98 -600.17,370.37 -600.00,366.47 -599.86,365.15"/>
    </edge>
    <edge id=":41_3" function="internal">
        <lane id=":41_3_0" index="0" disallow="pedestrian tram rail_urban rail rail_electric rail_fast ship" speed="11.28" length="29.57" width="3.49" shape="-596.39,365.56 -596.51,366.70 -596.66,370.15 -596.55,372.38 -596.23,374.56 -595.68,376.66 -594.83,378.66 -594.32,379.54 -593.73,380.41 -593.07,381.21 -592.34,381.96 -591.54,382.64 -590.68,383.25 -589.80,383.79 -587.82,384.72 -585.73,385.40 -583.55,385.88 -581.29,386.18"/>
    </edge>
    <edge id=":41_4" function="internal">
        <lane id=":41_4_0" index="0" disallow="pedestrian tram rail_urban rail rail_electric rail_fast ship" speed="36.11" length="48.23" width="3.50" shape="-596.38,365.56 -598.18,373.50 -607.86,412.40"/>
    </edge>
    <edge id=":41_5" function="internal">
        <lane id=":41_5_0" index="0" disallow="pedestrian tram rail_urban rail rail_electric rail_fast ship" speed="13.48" length="45.62" width="3.49" shape="-596.39,365.56 -596.95,369.09 -597.84,372.53 -598.89,375.30 -600.25,377.93 -601.60,379.88 -603.18,381.64 -604.99,383.17 -606.99,384.44 -609.13,385.44 -611.96,386.31 -614.87,386.83 -617.83,387.03 -621.38,386.93 -625.50,386.45 -629.57,385.66"/>
    </edge>
    <edge id=":41_6" function="internal">
        <lane id=":41_6_0" index="0" disallow="pedestrian tram rail_urban rail rail_electric rail_fast ship" speed="12.10" length="36.56" width="3.50" shape="-628.02,378.84 -623.38,379.71 -619.28,380.13 -615.74,380.14 -612.81,379.82 -610.52,379.29 -608.31,378.46 -606.26,377.30 -604.88,376.20 -603.65,374.93 -602.30,373.00 -601.26,370.88 -600.52,368.64 -599.94,365.76 -599.86,365.15"/>
    </edge>
    <edge id=":41_7" function="internal">
        <lane id=":41_7_0" index="0" disallow="pedestrian tram rail_urban rail rail_electric rail_fast ship" speed="36.11" length="47.33" width="3.49" shape="-628.02,378.84 -617.18,381.10 -605.77,383.09 -593.81,384.79 -581.29,386.18"/>
    </edge>
    <edge id=":41_8" function="internal">
        <lane id=":41_8_0" index="0" disallow="pedestrian tram rail_urban rail rail_electric rail_fast ship" speed="13.48" length="42.29" width="3.50" shape="-628.78,382.25 -624.81,383.30 -620.94,384.69 -617.76,386.21 -615.26,387.75 -612.96,389.57 -611.31,391.25 -609.88,393.11 -608.71,395.15 -607.81,397.32 -607.20,399.59 -606.80,402.50 -606.78,405.44 -607.14,408.95 -607.86,412.40"/>
    </edge>
    <edge id=":41_9" function="internal">
        <lane id=":41_9_0" index="0" disallow="pedestrian tram rail_urban rail rail_electric rail_fast ship" speed="11.58" length="30.94" width="3.49" shape="-618.07,409.98 -617.22,405.85 -616.86,402.38 -616.89,399.48 -617.19,397.18 -617.80,394.93 -618.75,392.82 -619.71,391.36 -620.86,390.05 -622.17,388.90 -624.12,387.64 -626.23,386.67 -629.00,385.80 -629.57,385.66"/>
    </edge>
    <edge id=":41_10" function="internal">
        <lane id=":41_10_0" index="0" disallow="pedestrian tram rail_urban rail rail_electric rail_fast ship" speed="36.11" length="48.10" width="3.50" shape="-614.67,410.79 -613.11,405.35 -610.74,398.69 -604.39,382.74 -602.44,377.00 -601.11,372.13 -600.14,367.17 -599.86,365.15"/>
    </edge>
    <edge id=":41_11" function="internal">
        <lane id=":41_11_0" index="0" disallow="pedestrian tram rail_urban rail rail_electric rail_fast ship" speed="14.46" length="43.59" width="3.49" shape="-611.26,411.59 -609.99,407.20 -608.62,403.49 -606.93,399.91 -605.19,396.99 -603.16,394.28 -601.21,392.23 -599.04,390.43 -596.66,388.90 -594.10,387.70 -591.41,386.83 -588.64,386.28 -585.83,386.03 -582.44,386.08 -581.29,386.18"/>
    </edge>
    <edge id=":42_0" function="internal">
        <lane id=":42_0_0" index="0" disallow="pedestrian tram rail_urban rail rail_electric rail_fast ship" speed="36.11" length="39.81" width="3.50" shape="-595.95,319.45 -595.55,337.24 -595.57,350.86 -595.86,359.25"/>
    </edge>
    <edge id=":42_1" function="internal">
        <lane id=":42_1_0" index="0" disallow="pedestrian tram rail_urban rail rail_electric rail_fast ship" speed="12.32" length="35.06" width="3.50" shape="-617.13,337.04 -613.26,337.51 -610.72,338.04 -608.23,338.78 -605.83,339.77 -603.57,341.04 -601.51,342.62 -600.58,343.52 -599.73,344.50 -598.96,345.55 -598.28,346.65 -597.18,349.00 -596.43,351.49 -595.99,354.05 -595.82,356.64 -595.86,359.25"/>
    </edge>
    <edge id=":42_2" function="internal">
        <lane id=":42_2_0" index="0" disallow="pedestrian tram rail_urban rail rail_electric rail_fast ship" speed="11.33" length="29.49" width="3.50" shape="-599.35,358.97 -599.32,356.80 -599.47,354.58 -599.85,352.42 -600.47,350.36 -601.40,348.41 -601.94,347.54 -602.57,346.70 -603.26,345.92 -604.00,345.21 -605.72,343.90 -607.62,342.85 -609.65,342.03 -611.79,341.40 -613.99,340.94 -617.41,340.53"/>
    </edge>
    <edge id=":42_3" function="internal">
        <lane id=":42_3_0" index="0" disallow="pedestrian tram rail_urban rail rail_electric rail_fast ship" speed="36.11" length="39.43" width="3.50" shape="-599.35,358.97 -599.07,350.77 -599.05,337.25 -599.45,319.55"/>
    </edge>
    <edge id=":43_0" function="internal">
        <lane id=":43_0_0" index="0" disallow="pedestrian tram rail_urban rail rail_electric rail_fast ship" speed="36.11" length="36.29" width="3.50" shape="-475.10,436.29 -483.32,434.39 -492.51,431.99 -499.61,429.81 -504.63,427.91 -507.61,426.50 -509.55,425.34"/>
    </edge>
    <edge id=":43_1" function="internal">
        <lane id=":43_1_0" index="0" disallow="pedestrian tram rail_urban rail rail_electric rail_fast ship" speed="11.83" length="36.56" width="3.50" shape="-475.10,436.30 -477.72,435.63 -480.29,434.78 -482.82,433.69 -485.22,432.32 -486.39,431.47 -487.49,430.53 -488.50,429.48 -489.40,428.31 -490.18,427.05 -490.81,425.70 -491.28,424.30 -491.59,422.86 -491.75,421.42 -491.78,419.95 -491.51,417.18 -490.90,414.48 -490.05,411.89 -489.02,409.41"/>
    </edge>
    <edge id=":43_2" function="internal">
        <lane id=":43_2_0" index="0" disallow="pedestrian tram rail_urban rail rail_electric rail_fast ship" speed="10.80" length="30.25" width="3.50" shape="-485.79,410.75 -486.72,412.99 -487.45,415.19 -487.96,417.45 -488.17,419.76 -488.15,420.92 -488.02,422.07 -487.77,423.21 -487.40,424.31 -486.91,425.35 -486.29,426.34 -485.58,427.25 -484.77,428.09 -483.89,428.84 -482.95,429.52 -480.94,430.67 -478.81,431.58 -476.60,432.31 -474.36,432.87"/>
    </edge>
    <edge id=":43_3" function="internal">
        <lane id=":43_3_0" index="0" disallow="pedestrian tram rail_urban rail rail_electric rail_fast ship" speed="11.11" length="32.71" width="3.50" shape="-485.79,410.75 -487.62,414.52 -489.64,418.07 -491.15,420.33 -492.83,422.47 -494.72,424.42 -495.77,425.29 -496.88,426.08 -498.06,426.75 -499.31,427.28 -500.62,427.64 -501.97,427.82 -503.33,427.80 -504.67,427.59 -505.98,427.21 -507.23,426.69 -508.43,426.05 -509.55,425.34"/>
    </edge>
    <edge id=":43_4" function="internal">
        <lane id=":43_4_0" index="0" disallow="pedestrian tram rail_urban rail rail_electric rail_fast ship" speed="9.99" length="26.41" width="3.50" shape="-507.60,422.43 -506.68,423.02 -505.75,423.50 -504.80,423.87 -503.84,424.12 -502.87,424.23 -501.90,424.19 -500.94,424.00 -500.00,423.66 -499.08,423.20 -498.19,422.64 -497.34,421.97 -496.54,421.24 -494.99,419.55 -493.60,417.71 -492.33,415.75 -490.58,412.63 -489.02,409.41"/>
    </edge>
    <edge id=":43_5" function="internal">
        <lane id=":43_5_0" index="0" disallow="pedestrian tram rail_urban rail rail_electric rail_fast ship" speed="36.11" length="34.97" width="3.50" shape="-507.60,422.43 -505.82,423.50 -503.02,424.80 -498.21,426.60 -491.32,428.70 -482.37,431.02 -474.36,432.87"/>
    </edge>
    <edge id=":44_0" function="internal">
        <lane id=":44_0_0" index="0" disallow="pedestrian tram rail_urban rail rail_electric rail_fast ship" speed="36.11" length="8.23" width="3.50" shape="-550.70,398.81 -554.31,397.75 -558.66,396.74"/>
        <lane id=":44_0_1" index="1" disallow="pedestrian tram rail_urban rail rail_electric rail_fast ship" speed="36.11" length="8.54" width="3.50" shape="-550.53,398.42 -551.46,398.04 -558.47,395.27"/>
    </edge>
    <edge id=":5_0" function="internal">
        <lane id=":5_0_0" index="0" disallow="pedestrian tram rail_urban rail rail_electric rail_fast ship" speed="36.11" length="0.21" width="3.49" shape="-570.30,387.48 -570.28,387.49 -570.27,387.49 -570.26,387.49 -570.25,387.49 -570.24,387.49 -570.23,387.49 -570.22,387.49 -570.21,387.50 -570.20,387.50 -570.19,387.50 -570.18,387.50 -570.18,387.50 -570.17,387.50 -570.16,387.51 -570.15,387.51 -570.14,387.51 -570.13,387.51 -570.11,387.52 -570.10,387.52"/>
    </edge>
    <edge id=":6_0" function="internal">
        <lane id=":6_0_0" index="0" disallow="pedestrian tram rail_urban rail rail_electric rail_fast ship" speed="36.11" length="2.96" width="3.50" shape="-543.74,397.44 -541.02,398.61"/>
    </edge>

    <edge id="66716" from="43" to="20" priority="3" type="highway.residential" spreadType="center" length="22.93" shape="-491.95,422.46 -482.01,387.64">
        <lane id="66716_0" index="0" disallow="pedestrian tram rail_urban rail rail_electric rail_fast ship" speed="36.11" length="22.93" width="3.50" customShape="1" shape="-489.02,409.41 -486.73,403.87 -484.51,397.79 -482.95,392.53 -482.01,387.64"/>
    </edge>
    <edge id="66717" from="23" to="43" priority="3" type="highway.residential" spreadType="center" length="23.72" shape="-478.58,388.31 -488.59,423.42">
        <lane id="66717_0" index="0" disallow="pedestrian tram rail_urban rail rail_electric rail_fast ship" speed="36.11" length="23.72" width="3.50" customShape="1" shape="-478.58,388.31 -479.55,393.37 -481.18,398.85 -483.46,405.14 -485.83,410.83"/>
    </edge>
    <edge id="66867" from="42" to="33" priority="3" type="highway.residential" spreadType="center" length="31.86" shape="-605.93,339.00 -599.51,287.70">
        <lane id="66867_0" index="0" disallow="pedestrian tram rail_urban rail rail_electric rail_fast ship" speed="36.11" length="31.86" width="3.50" customShape="1" shape="-599.45,319.55 -599.66,311.86 -599.79,298.51 -599.51,287.70"/>
    </edge>
    <edge id="66868" from="37" to="42" priority="3" type="highway.residential" spreadType="center" length="31.61" shape="-596.01,287.87 -602.46,339.43">
        <lane id="66868_0" index="0" disallow="pedestrian tram rail_urban rail rail_electric rail_fast ship" speed="36.11" length="31.61" width="3.50" customShape="1" shape="-596.01,287.87 -596.29,298.55 -596.16,311.80 -595.95,319.47"/>
    </edge>
    <edge id="66870" from="41" to="42" priority="3" type="highway.residential" spreadType="center" length="6.20" shape="-606.26,387.09 -605.94,339.08">
        <lane id="66870_0" index="0" disallow="pedestrian tram rail_urban rail rail_electric rail_fast ship" speed="36.11" length="6.20" width="3.50" customShape="1" shape="-599.86,365.15 -599.81,364.66 -599.34,358.97"/>
    </edge>
    <edge id="66871" from="42" to="41" priority="3" type="highway.residential" spreadType="center" length="6.37" shape="-602.44,339.10 -602.76,387.11">
        <lane id="66871_0" index="0" disallow="pedestrian tram rail_urban rail rail_electric rail_fast ship" speed="36.11" length="6.37" width="3.50" customShape="1" shape="-595.86,359.25 -596.33,365.03 -596.39,365.60"/>
    </edge>
    <edge id="66912" from="36" to="42" priority="3" type="highway.residential" spreadType="center" length="15.29" shape="-632.37,335.86 -603.99,337.42">
        <lane id="66912_0" index="0" disallow="pedestrian tram rail_urban rail rail_electric rail_fast ship" speed="36.11" length="15.29" width="3.50" customShape="1" shape="-632.37,335.86 -624.75,336.45 -617.13,337.04"/>
    </edge>
    <edge id="66913" from="42" to="32" priority="3" type="highway.residential" spreadType="center" length="15.28" shape="-604.18,340.90 -632.64,339.35">
        <lane id="66913_0" index="0" disallow="pedestrian tram rail_urban rail rail_electric rail_fast ship" speed="36.11" length="15.28" width="3.50" customShape="1" shape="-617.41,340.53 -625.02,339.94 -632.64,339.35"/>
    </edge>
    <edge id="66996" from="1" to="44" priority="3" type="highway.residential" spreadType="center" length="26.66">
        <lane id="66996_0" index="0" disallow="pedestrian tram rail_urban rail rail_electric rail_fast ship" speed="36.11" length="26.66" width="3.50" customShape="1" shape="-526.93,410.60 -529.68,408.52 -533.46,406.15 -537.85,403.85 -550.45,398.24"/>
    </edge>
    <edge id="66997" from="6" to="40" priority="3" type="highway.residential" spreadType="center" length="18.91">
        <lane id="66997_0" index="0" disallow="pedestrian tram rail_urban rail rail_electric rail_fast ship" speed="36.11" length="18.91" width="3.50" customShape="1" shape="-541.02,398.61 -536.26,400.73 -531.66,403.16 -527.66,405.66 -524.65,407.94"/>
    </edge>
    <edge id="67035" from="41" to="11" priority="3" type="highway.residential" spreadType="center" length="30.80" shape="-602.77,387.29 -610.73,444.42">
        <lane id="67035_0" index="0" disallow="pedestrian tram rail_urban rail rail_electric rail_fast ship" speed="36.11" length="30.80" width="3.50" customShape="1" shape="-607.86,412.40 -608.41,414.74 -609.57,420.89 -610.34,426.62 -610.82,432.87 -610.95,438.64 -610.78,442.95"/>
    </edge>
    <edge id="67038" from="27" to="41" priority="3" type="highway.residential" spreadType="center" length="29.17" shape="-617.72,444.81 -609.62,385.93">
        <lane id="67038_0" index="0" disallow="pedestrian tram rail_urban rail rail_electric rail_fast ship" speed="36.11" length="31.17" width="3.50" customShape="1" shape="-621.36,440.88 -621.45,438.66 -621.31,432.30 -620.77,425.44 -619.93,419.14 -618.65,412.39 -618.07,409.98"/>
        <lane id="67038_1" index="1" disallow="pedestrian tram rail_urban rail rail_electric rail_fast ship" speed="36.11" length="30.14" width="3.50" customShape="1" shape="-617.87,440.67 -617.95,438.64 -617.81,432.47 -617.29,425.82 -616.47,419.71 -615.23,413.17 -614.67,410.79"/>
        <lane id="67038_2" index="2" disallow="pedestrian tram rail_urban rail rail_electric rail_fast ship" speed="36.11" length="29.17" width="3.50" customShape="1" shape="-614.38,440.47 -614.45,438.67 -614.32,432.69 -613.82,426.25 -613.03,420.33 -611.83,413.99 -611.25,411.56"/>
    </edge>
    <edge id="67327" from="40" to="43" priority="3" type="highway.residential" spreadType="center" length="19.48" shape="-523.51,408.87 -489.57,421.25">
        <lane id="67327_0" index="0" disallow="pedestrian tram rail_urban rail rail_electric rail_fast ship" speed="36.11" length="19.48" width="3.50" customShape="1" shape="-522.41,409.85 -512.95,418.30 -509.55,421.02 -507.79,422.30 -507.68,422.37 -507.57,422.45"/>
    </edge>
    <edge id="67453" from="41" to="12" priority="3" type="highway.residential" spreadType="center" length="47.22" shape="-604.86,388.81 -674.81,372.75">
        <lane id="67453_0" index="0" disallow="pedestrian tram rail_urban rail rail_electric rail_fast ship" speed="36.11" length="47.22" width="3.49" customShape="1" shape="-629.57,385.66 -641.70,382.87 -664.89,377.18 -668.33,376.03 -671.17,374.76 -674.81,372.75"/>
    </edge>
    <edge id="67455" from="35" to="41" priority="3" type="highway.residential" spreadType="center" length="45.13" shape="-672.15,368.23 -603.57,383.73">
        <lane id="67455_0" index="0" disallow="pedestrian tram rail_urban rail rail_electric rail_fast ship" speed="36.11" length="45.13" width="3.50" customShape="1" shape="-671.30,366.70 -667.92,368.57 -665.33,369.69 -662.08,370.69 -639.73,376.14 -628.00,378.84"/>
        <lane id="67455_1" index="1" disallow="pedestrian tram rail_urban rail rail_electric rail_fast ship" speed="36.11" length="46.19" width="3.50" customShape="1" shape="-673.06,369.72 -669.55,371.67 -666.88,372.84 -663.61,373.91 -640.77,379.49 -628.78,382.25"/>
    </edge>
    <edge id="67764" from="43" to="21" priority="3" type="highway.residential" spreadType="center" length="54.84" shape="-489.80,421.17 -420.21,441.26">
        <lane id="67764_0" index="0" disallow="pedestrian tram rail_urban rail rail_electric rail_fast ship" speed="36.11" length="54.84" width="3.50" customShape="1" shape="-474.36,432.87 -467.47,434.38 -458.08,436.17 -435.21,439.69 -426.73,440.76 -420.21,441.26"/>
    </edge>
    <edge id="67765" from="34" to="43" priority="3" type="highway.residential" spreadType="center" length="55.43" shape="-420.39,444.75 -490.77,424.53">
        <lane id="67765_0" index="0" disallow="pedestrian tram rail_urban rail rail_electric rail_fast ship" speed="36.11" length="55.43" width="3.50" customShape="1" shape="-420.39,444.75 -427.02,444.25 -435.62,443.16 -458.67,439.62 -468.16,437.81 -475.13,436.29"/>
    </edge>
    <edge id="68100" from="41" to="5" priority="3" type="highway.residential" spreadType="center" length="11.07" shape="-604.49,385.35 -570.20,387.50">
        <lane id="68100_0" index="0" disallow="pedestrian tram rail_urban rail rail_electric rail_fast ship" speed="36.11" length="11.07" width="3.49" customShape="1" shape="-581.29,386.18 -579.18,386.38 -570.30,387.48"/>
    </edge>
    <edge id="68102" from="44" to="41" priority="3" type="highway.residential" spreadType="center" length="23.59" shape="-557.24,396.09 -605.16,390.54">
        <lane id="68102_0" index="0" disallow="pedestrian tram rail_urban rail rail_electric rail_fast ship" speed="36.11" length="23.59" width="3.50" customShape="1" shape="-558.56,395.99 -579.91,393.35 -581.98,393.14"/>
        <lane id="68102_1" index="1" disallow="pedestrian tram rail_urban rail rail_electric rail_fast ship" speed="36.11" length="23.69" width="3.50" customShape="1" shape="-558.12,392.51 -579.56,389.86 -581.64,389.66"/>
    </edge>
    <edge id="73308" from="43" to="1" priority="3" type="highway.residential" spreadType="center" length="19.85" shape="-490.78,424.53 -525.78,411.53">
        <lane id="73308_0" index="0" disallow="pedestrian tram rail_urban rail rail_electric rail_fast ship" speed="36.11" length="19.85" width="3.50" customShape="1" shape="-509.55,425.34 -509.68,425.24 -509.80,425.16 -511.62,423.84 -515.12,421.04 -524.68,412.51"/>
    </edge>
    <edge id="73594" from="38" to="27" priority="3" type="highway.residential" spreadType="center" length="16.06">
        <lane id="73594_0" index="0" disallow="pedestrian tram rail_urban rail rail_electric rail_fast ship" speed="36.11" length="16.06" width="3.50" customShape="1" shape="-616.10,464.60 -615.64,461.41 -614.60,452.94 -614.28,448.65"/>
    </edge>
    <edge id="73728" from="11" to="25" priority="3" type="highway.residential" spreadType="center" length="19.30">
        <lane id="73728_0" index="0" disallow="pedestrian tram rail_urban rail rail_electric rail_fast ship" speed="36.11" length="19.30" width="3.50" customShape="1" shape="-610.72,445.89 -610.71,447.70 -611.11,453.16 -612.17,461.85 -612.63,465.08"/>
    </edge>
    <edge id="73740" from="5" to="6" priority="3" type="highway.residential" spreadType="center" length="28.19">
        <lane id="73740_0" index="0" disallow="pedestrian tram rail_urban rail rail_electric rail_fast ship" speed="36.11" length="28.19" width="3.49" customShape="1" shape="-570.10,387.52 -568.12,388.00 -562.10,390.08 -550.24,394.76 -543.74,397.44"/>
    </edge>

    <junction id="1" type="priority" x="-525.78" y="411.53" incLanes="73308_0" intLanes=":1_0_0" shape="-525.84,413.82 -523.52,411.21 -525.80,409.26 -528.05,411.95" rightOfWay="edgePriority">
        <request index="0" response="0" foes="0" cont="0"/>
    </junction>
    <junction id="11" type="priority" x="-610.73" y="444.42" incLanes="67035_0" intLanes=":11_0_0" shape="-609.03,442.88 -612.53,443.01 -612.47,445.90 -608.97,445.88" rightOfWay="edgePriority">
        <request index="0" response="0" foes="0" cont="0"/>
    </junction>
    <junction id="12" type="dead_end" x="-674.81" y="372.75" incLanes="67453_0" intLanes="" shape="-675.66,374.28 -673.96,371.22" rightOfWay="edgePriority"/>
    <junction id="20" type="dead_end" x="-482.01" y="387.64" incLanes="66716_0" intLanes="" shape="-483.73,387.31 -480.29,387.97" rightOfWay="edgePriority"/>
    <junction id="21" type="dead_end" x="-420.21" y="441.26" incLanes="67764_0" intLanes="" shape="-420.07,439.51 -420.34,443.00" rightOfWay="edgePriority"/>
    <junction id="23" type="dead_end" x="-478.58" y="388.31" incLanes="" intLanes="" shape="-480.29,387.97 -476.86,388.64" rightOfWay="edgePriority"/>
    <junction id="25" type="dead_end" x="-612.63" y="465.08" incLanes="73728_0" intLanes="" shape="-610.90,465.33 -614.37,464.83" rightOfWay="edgePriority"/>
    <junction id="27" type="priority" x="-617.72" y="444.81" incLanes="73594_0" intLanes=":27_0_0" shape="-616.04,448.66 -612.53,448.65 -612.39,445.58 -612.41,444.51 -612.47,443.43 -612.55,442.13 -612.63,440.36 -623.11,440.98 -622.49,443.00 -621.11,444.13 -619.36,444.82 -617.66,445.51 -616.41,446.65" rightOfWay="edgePriority">
        <request index="0" response="0" foes="0" cont="0"/>
    </junction>
    <junction id="32" type="dead_end" x="-632.64" y="339.35" incLanes="66913_0" intLanes="" shape="-632.77,341.09 -632.50,337.60" rightOfWay="edgePriority"/>
    <junction id="33" type="dead_end" x="-599.51" y="287.70" incLanes="66867_0" intLanes="" shape="-601.26,287.66 -597.76,287.75" rightOfWay="edgePriority"/>
    <junction id="34" type="dead_end" x="-420.39" y="444.75" incLanes="" intLanes="" shape="-420.26,443.01 -420.53,446.50" rightOfWay="edgePriority"/>
    <junction id="35" type="dead_end" x="-672.15" y="368.23" incLanes="" intLanes="" shape="-673.84,371.29 -670.45,365.17" rightOfWay="edgePriority"/>