<routes>
	<vehicle depart="0.1" departLane="0" departPos="9.57261395651817" departSpeed="2.0675086" id="344" type="bus">
		<route edges="125120 126501"/>
	</vehicle>
	<vehicle depart="0.1" departLane="0" departPos="12.080517511734362" departSpeed="2.7898904" id="317" type="passenger">
		<route edges="125121 125124"/>
	</vehicle>
	<vehicle depart="0.1" departLane="0" departPos="19.922867542811666" departSpeed="1.6043092" id="327" type="passenger">
		<route edges=":62_1 125121"/>
	</vehicle>
	<vehicle depart="0.1" departLane="0" departPos="12.53328415277851" departSpeed="0.72271398" id="329" type="passenger">
		<route edges=":62_1 125121"/>
	</vehicle>
	<vehicle depart="0.1" departLane="0" departPos="21.797390267460223" departSpeed="0.13616783" id="332" type="passenger">
		<route edges="125120 126501"/>
	</vehicle>
	<vehicle depart="0.1" departLane="0" departPos="18.364252759483122" departSpeed="5.6168717" id="348" type="passenger">
		<route edges=":63_1 125120"/>
	</vehicle>
	<vehicle depart="0.1" departLane="0" departPos="8.377901909963068" departSpeed="0.6035775" id="352" type="passenger">
		<route edges=":63_0 126142"/>
	</vehicle>
	<vehicle depart="0.1" departLane="0" departPos="69.87844043818029" departSpeed="1.863352" id="355" type="passenger">
		<route edges="125123 125120 126501 126498"/>
	</vehicle>
	<vehicle depart="0.1" departLane="0" departPos="48.977075365508156" departSpeed="4.9589648" id="357" type="passenger">
		<route edges="125123 126142"/>
	</vehicle>
	<vehicle depart="0.1" departLane="0" departPos="28.331833471259838" departSpeed="0.60152326" id="323" type="motorcycle">
		<route edges=":62_1 125121 125124"/>
	</vehicle>
</routes>
