<!-- generated on Wed Feb 10 12:24:59 2021 by Eclipse SUMO netconvert Version 1.8.0
<configuration xmlns:xsi="http://www.w3.org/2001/XMLSchema-instance" xsi:noNamespaceSchemaLocation="http://sumo.dlr.de/xsd/netconvertConfiguration.xsd">

    <input>
        <node-files value="./converted_scenarios/SUMO/DEU_Lohmar-61_1_I-1-1/DEU_Lohmar-61_1_I-1-1.nod.xml"/>
        <edge-files value="./converted_scenarios/SUMO/DEU_Lohmar-61_1_I-1-1/DEU_Lohmar-61_1_I-1-1.edg.xml"/>
        <connection-files value="./converted_scenarios/SUMO/DEU_Lohmar-61_1_I-1-1/DEU_Lohmar-61_1_I-1-1.con.xml"/>
        <tllogic-files value="./converted_scenarios/SUMO/DEU_Lohmar-61_1_I-1-1/DEU_Lohmar-61_1_I-1-1.tll.xml"/>
        <type-files value="/home/zen/commonroad-interactive-benchmarks/install/commonroad-map-tool/crmapconverter/sumo_map/templates/DEU.typ.xml"/>
    </input>

    <output>
        <output-file value="./converted_scenarios/SUMO/DEU_Lohmar-61_1_I-1-1/DEU_Lohmar-61_1_I-1-1.net.xml"/>
    </output>

    <processing>
        <geometry.remove.keep-edges.explicit value="true"/>
        <geometry.avoid-overlap value="true"/>
        <offset.disable-normalization value="true"/>
    </processing>

    <junctions>
        <no-turnarounds value="true"/>
        <junctions.internal-link-detail value="20"/>
    </junctions>

    <report>
        <aggregate-warnings value="5"/>
    </report>

    <random_number>
        <seed value="1234"/>
    </random_number>

</configuration>
--><net xmlns:xsi="http://www.w3.org/2001/XMLSchema-instance" version="1.6" junctionCornerDetail="5" junctionLinkDetail="20" limitTurnSpeed="5.50" xsi:noNamespaceSchemaLocation="http://sumo.dlr.de/xsd/net_file.xsd">

    <location netOffset="0.00,0.00" convBoundary="170.86,-819.37,290.15,-669.67" origBoundary="170.86,-819.37,290.15,-669.67" projParameter="!"/>

    <type id="highway.bridleway" priority="1" speed="2.78" allow="pedestrian" oneway="1" width="2.00"/>
    <type id="highway.bus_guideway" priority="1" speed="27.78" allow="bus" oneway="1"/>
    <type id="highway.cycleway" priority="1" speed="8.33" allow="bicycle" oneway="0" width="1.00"/>
    <type id="highway.footway" priority="1" speed="2.78" allow="pedestrian" oneway="1" width="2.00"/>
    <type id="highway.ford" priority="1" speed="2.78" allow="army" oneway="0"/>
    <type id="highway.living_street" priority="2" speed="2.78" disallow="tram rail_urban rail rail_electric rail_fast ship" oneway="0"/>
    <type id="highway.motorway" priority="14" speed="39.44" allow="private emergency authority army vip passenger hov taxi bus coach delivery truck trailer motorcycle evehicle custom1 custom2" oneway="1"/>
    <type id="highway.motorway_link" priority="9" speed="22.22" allow="private emergency authority army vip passenger hov taxi bus coach delivery truck trailer motorcycle evehicle custom1 custom2" oneway="1"/>
    <type id="highway.path" priority="1" speed="2.78" allow="pedestrian bicycle" oneway="0" width="2.00"/>
    <type id="highway.pedestrian" priority="1" speed="2.78" allow="pedestrian" oneway="1" width="2.00"/>
    <type id="highway.primary" priority="12" speed="27.78" disallow="pedestrian tram rail_urban rail rail_electric rail_fast ship" oneway="0"/>
    <type id="highway.primary_link" priority="7" speed="22.22" disallow="pedestrian tram rail_urban rail rail_electric rail_fast ship" oneway="0"/>
    <type id="highway.raceway" priority="15" speed="83.33" allow="vip" oneway="0"/>
    <type id="highway.residential" priority="3" speed="13.89" disallow="pedestrian tram rail_urban rail rail_electric rail_fast ship" oneway="0"/>
    <type id="highway.secondary" priority="11" speed="27.78" disallow="pedestrian tram rail_urban rail rail_electric rail_fast ship" oneway="0"/>
    <type id="highway.secondary_link" priority="6" speed="22.22" disallow="pedestrian tram rail_urban rail rail_electric rail_fast ship" oneway="0"/>
    <type id="highway.service" priority="1" speed="5.56" allow="pedestrian delivery bicycle" oneway="0"/>
    <type id="highway.stairs" priority="1" speed="1.39" allow="pedestrian" oneway="1" width="2.00"/>
    <type id="highway.step" priority="1" speed="1.39" allow="pedestrian" oneway="1" width="2.00"/>
    <type id="highway.steps" priority="1" speed="1.39" allow="pedestrian" oneway="1" width="2.00"/>
    <type id="highway.tertiary" priority="10" speed="22.22" disallow="pedestrian tram rail_urban rail rail_electric rail_fast ship" oneway="0"/>
    <type id="highway.tertiary_link" priority="5" speed="22.22" disallow="pedestrian tram rail_urban rail rail_electric rail_fast ship" oneway="0"/>
    <type id="highway.track" priority="1" speed="5.56" allow="pedestrian motorcycle moped bicycle" oneway="0"/>
    <type id="highway.trunk" priority="13" speed="27.78" disallow="pedestrian bicycle tram rail_urban rail rail_electric rail_fast ship" oneway="0"/>
    <type id="highway.trunk_link" priority="8" speed="22.22" disallow="pedestrian bicycle tram rail_urban rail rail_electric rail_fast ship" oneway="0"/>
    <type id="highway.unclassified" priority="4" speed="13.89" disallow="pedestrian tram rail_urban rail rail_electric rail_fast ship" oneway="0"/>
    <type id="highway.unsurfaced" priority="1" speed="8.33" disallow="tram rail_urban rail rail_electric rail_fast ship" oneway="0"/>
    <type id="railway.highspeed" priority="21" speed="69.44" allow="rail_fast" oneway="1"/>
    <type id="railway.light_rail" priority="19" speed="27.78" allow="rail_urban" oneway="1"/>
    <type id="railway.preserved" priority="16" speed="27.78" allow="rail" oneway="1"/>
    <type id="railway.rail" priority="20" speed="44.44" allow="rail" oneway="1"/>
    <type id="railway.subway" priority="18" speed="27.78" allow="rail_urban" oneway="1"/>
    <type id="railway.tram" priority="17" speed="13.89" allow="tram" oneway="1"/>

    <edge id=":21_0" function="internal">
        <lane id=":21_0_0" index="0" disallow="pedestrian tram rail_urban rail rail_electric rail_fast ship" speed="36.11" length="16.53" width="3.50" shape="222.66,-783.47 222.15,-775.18 221.65,-766.97"/>
    </edge>
    <edge id=":21_1" function="internal">
        <lane id=":21_1_0" index="0" disallow="pedestrian tram rail_urban rail rail_electric rail_fast ship" speed="8.64" length="16.37" width="3.50" shape="222.66,-783.47 222.38,-781.32 221.83,-779.26 221.26,-777.96 220.49,-776.77 219.51,-775.73 218.37,-774.90 217.08,-774.30 215.71,-773.91 213.60,-773.66 212.18,-773.66"/>
    </edge>
    <edge id=":21_2" function="internal">
        <lane id=":21_2_0" index="0" disallow="pedestrian tram rail_urban rail rail_electric rail_fast ship" speed="7.16" length="10.87" width="3.50" shape="212.35,-777.16 213.34,-777.15 214.83,-777.32 215.70,-777.58 216.49,-777.95 217.16,-778.45 217.75,-779.09 218.22,-779.83 218.58,-780.68 218.97,-782.14 219.17,-783.71"/>
    </edge>
    <edge id=":21_3" function="internal">
        <lane id=":21_3_0" index="0" disallow="pedestrian tram rail_urban rail rail_electric rail_fast ship" speed="8.41" length="15.69" width="3.50" shape="212.35,-777.16 214.36,-776.92 216.35,-776.37 217.69,-775.72 218.91,-774.83 219.95,-773.69 220.72,-772.39 221.24,-770.99 221.61,-768.96 221.65,-766.97"/>
    </edge>
    <edge id=":21_4" function="internal">
        <lane id=":21_4_0" index="0" disallow="pedestrian tram rail_urban rail rail_electric rail_fast ship" speed="6.89" length="10.15" width="3.50" shape="218.16,-767.11 218.13,-768.48 217.88,-769.85 217.56,-770.71 217.09,-771.51 216.47,-772.19 215.72,-772.74 214.89,-773.13 213.55,-773.50 212.18,-773.66"/>
    </edge>
    <edge id=":21_5" function="internal">
        <lane id=":21_5_0" index="0" disallow="pedestrian tram rail_urban rail rail_electric rail_fast ship" speed="36.11" length="16.63" width="3.50" shape="218.16,-767.11 218.66,-775.39 219.17,-783.71"/>
    </edge>
    <edge id=":22_0" function="internal">
        <lane id=":22_0_0" index="0" disallow="pedestrian tram rail_urban rail rail_electric rail_fast ship" speed="36.11" length="16.05" width="3.50" shape="220.46,-680.71 212.50,-682.00 204.62,-683.28"/>
    </edge>
    <edge id=":22_1" function="internal">
        <lane id=":22_1_0" index="0" disallow="pedestrian tram rail_urban rail rail_electric rail_fast ship" speed="8.75" length="16.38" width="3.50" shape="220.46,-680.71 218.34,-681.23 217.03,-681.76 215.81,-682.49 214.74,-683.43 213.87,-684.55 213.20,-685.81 212.61,-687.85 212.39,-689.97 212.51,-692.81"/>
    </edge>
    <edge id=":22_2" function="internal">
        <lane id=":22_2_0" index="0" disallow="pedestrian tram rail_urban rail rail_electric rail_fast ship" speed="7.28" length="11.04" width="3.50" shape="215.98,-692.45 215.89,-690.29 216.03,-688.79 216.41,-687.38 216.79,-686.62 217.31,-685.92 217.94,-685.35 218.68,-684.89 219.52,-684.53 221.03,-684.17"/>
    </edge>
    <edge id=":22_3" function="internal">
        <lane id=":22_3_0" index="0" disallow="pedestrian tram rail_urban rail rail_electric rail_fast ship" speed="8.53" length="16.81" width="3.50" shape="215.98,-692.45 215.79,-691.13 215.31,-689.21 214.50,-687.33 213.68,-686.09 212.65,-685.02 211.41,-684.15 210.03,-683.56 208.61,-683.22 206.57,-683.10 204.62,-683.28"/>
    </edge>
    <edge id=":22_4" function="internal">
        <lane id=":22_4_0" index="0" disallow="pedestrian tram rail_urban rail rail_electric rail_fast ship" speed="7.04" length="11.06" width="3.50" shape="205.14,-686.74 206.52,-686.61 207.90,-686.70 208.79,-686.92 209.64,-687.29 210.38,-687.83 211.01,-688.50 211.51,-689.28 212.04,-690.55 212.37,-691.90 212.51,-692.81"/>
    </edge>
    <edge id=":22_5" function="internal">
        <lane id=":22_5_0" index="0" disallow="pedestrian tram rail_urban rail rail_electric rail_fast ship" speed="36.11" length="16.10" width="3.50" shape="205.14,-686.74 213.06,-685.46 221.03,-684.17"/>
    </edge>

    <edge id="295" from="21" to="2" priority="3" type="highway.residential" spreadType="center" length="35.75" shape="215.95,-775.50 221.67,-819.37">
        <lane id="295_0" index="0" disallow="pedestrian tram rail_urban rail rail_electric rail_fast ship" speed="36.11" length="35.75" width="3.50" customShape="1" shape="219.17,-783.71 220.42,-801.52 221.67,-819.37"/>
    </edge>
    <edge id="296" from="16" to="21" priority="3" type="highway.residential" spreadType="center" length="35.83" shape="225.17,-819.18 219.42,-775.05">
        <lane id="296_0" index="0" disallow="pedestrian tram rail_urban rail rail_electric rail_fast ship" speed="36.11" length="35.83" width="3.50" customShape="1" shape="225.17,-819.18 223.91,-801.28 222.66,-783.44"/>
    </edge>
    <edge id="298" from="22" to="21" priority="3" type="highway.residential" spreadType="center" length="74.57" shape="211.53,-686.75 215.95,-775.43">
        <lane id="298_0" index="0" disallow="pedestrian tram rail_urban rail rail_electric rail_fast ship" speed="36.11" length="74.57" width="3.50" customShape="1" shape="212.51,-692.81 214.10,-707.24 215.70,-723.64 216.77,-738.60 218.16,-767.14"/>
    </edge>
    <edge id="299" from="21" to="22" priority="3" type="highway.residential" spreadType="center" length="74.78" shape="219.44,-775.25 215.03,-686.57">
        <lane id="299_0" index="0" disallow="pedestrian tram rail_urban rail rail_electric rail_fast ship" speed="36.11" length="74.78" width="3.50" customShape="1" shape="221.65,-766.97 220.26,-738.39 219.19,-723.34 217.58,-706.87 215.98,-692.43"/>
    </edge>
    <edge id="459" from="20" to="21" priority="3" type="highway.residential" spreadType="center" length="36.26" shape="176.14,-778.93 217.85,-777.09">
        <lane id="459_0" index="0" disallow="pedestrian tram rail_urban rail rail_electric rail_fast ship" speed="36.11" length="36.26" width="3.50" customShape="1" shape="176.14,-778.93 194.24,-778.05 212.36,-777.16"/>
    </edge>
    <edge id="460" from="21" to="18" priority="3" type="highway.residential" spreadType="center" length="36.26" shape="217.69,-773.59 175.96,-775.44">
        <lane id="460_0" index="0" disallow="pedestrian tram rail_urban rail rail_electric rail_fast ship" speed="36.11" length="36.26" width="3.50" customShape="1" shape="212.18,-773.66 194.07,-774.55 175.96,-775.44"/>
    </edge>
    <edge id="76" from="22" to="4" priority="3" type="highway.residential" spreadType="center" length="34.21" shape="213.20,-684.95 170.86,-688.79">
        <lane id="76_0" index="0" disallow="pedestrian tram rail_urban rail rail_electric rail_fast ship" speed="36.11" length="34.21" width="3.50" customShape="1" shape="204.62,-683.28 187.71,-686.04 170.86,-688.79"/>
    </edge>
    <edge id="77" from="19" to="22" priority="3" type="highway.residential" spreadType="center" length="34.22" shape="171.41,-692.25 213.51,-688.43">
        <lane id="77_0" index="0" disallow="pedestrian tram rail_urban rail rail_electric rail_fast ship" speed="36.11" length="34.22" width="3.50" customShape="1" shape="171.41,-692.25 188.27,-689.49 205.18,-686.73"/>
    </edge>
    <edge id="79" from="8" to="22" priority="3" type="highway.residential" spreadType="center" length="70.00" shape="289.54,-669.67 212.90,-684.99">
        <lane id="79_0" index="0" disallow="pedestrian tram rail_urban rail rail_electric rail_fast ship" speed="36.11" length="70.00" width="3.50" customShape="1" shape="289.54,-669.67 274.22,-671.94 220.42,-680.72"/>
    </edge>
    <edge id="80" from="22" to="12" priority="3" type="highway.residential" spreadType="center" length="70.00" shape="213.59,-688.42 290.15,-673.12">
        <lane id="80_0" index="0" disallow="pedestrian tram rail_urban rail rail_electric rail_fast ship" speed="36.11" length="70.00" width="3.50" customShape="1" shape="221.03,-684.17 274.76,-675.40 290.15,-673.12"/>
    </edge>

    <junction id="12" type="dead_end" x="290.15" y="-673.12" incLanes="80_0" intLanes="" shape="290.40,-674.85 289.89,-671.39" rightOfWay="edgePriority"/>
    <junction id="16" type="dead_end" x="225.17" y="-819.18" incLanes="" intLanes="" shape="223.42,-819.30 226.91,-819.06" rightOfWay="edgePriority"/>
    <junction id="18" type="dead_end" x="175.96" y="-775.44" incLanes="460_0" intLanes="" shape="175.88,-773.69 176.05,-777.18" rightOfWay="edgePriority"/>
    <junction id="19" type="dead_end" x="171.41" y="-692.25" incLanes="" intLanes="" shape="171.13,-690.52 171.69,-693.97" rightOfWay="edgePriority"/>
    <junction id="2" type="dead_end" x="221.67" y="-819.37" incLanes="295_0" intLanes="" shape="219.93,-819.49 223.42,-819.24" rightOfWay="edgePriority"/>
    <junction id="20" type="dead_end" x="176.14" y="-778.93" incLanes="" intLanes="" shape="176.05,-777.18 176.22,-780.68" rightOfWay="edgePriority"/>
    <junction id="21" type="priority" x="217.69" y="-775.34" incLanes="296_0 459_0 298_0" intLanes=":21_0_0 :21_1_0 :21_2_0 :21_3_0 :21_4_0 :21_5_0" shape="224.40,-783.34 217.42,-783.83 216.71,-781.00 215.99,-780.02 215.04,-779.35 213.86,-778.98 212.43,-778.91 212.09,-771.92 214.59,-771.30 215.44,-770.63 216.03,-769.73 216.35,-768.60 216.41,-767.23 223.40,-766.89">
        <request index="0" response="000000" foes="001000" cont="0"/>
        <request index="1" response="110000" foes="111000" cont="0"/>
        <request index="2" response="100000" foes="100000" cont="0"/>
        <request index="3" response="100011" foes="100011" cont="0"/>
        <request index="4" response="000000" foes="000010" cont="0"/>
        <request index="5" response="000000" foes="001110" cont="0"/>
    </junction>
    <junction id="22" type="priority" x="213.28" y="-686.69" incLanes="79_0 299_0 77_0" intLanes=":22_0_0 :22_1_0 :22_2_0 :22_3_0 :22_4_0 :22_5_0" shape="220.18,-678.99 221.31,-685.89 219.04,-686.90 218.31,-687.82 217.84,-689.02 217.65,-690.49 217.72,-692.24 210.77,-693.00 209.92,-690.14 209.15,-689.21 208.15,-688.62 206.92,-688.37 205.46,-688.46 204.33,-681.55">
        <request index="0" response="000000" foes="001000" cont="0"/>
        <request index="1" response="110000" foes="111000" cont="0"/>
        <request index="2" response="100000" foes="100000" cont="0"/>
        <request index="3" response="100011" foes="100011" cont="0"/>
        <request index="4" response="000000" foes="000010" cont="0"/>
        <request index="5" response="000000" foes="001110" cont="0"/>
    </junction>
    <junction id="4" type="dead_end" x="170.86" y="-688.79" incLanes="76_0" intLanes="" shape="170.58,-687.06 171.14,-690.52" rightOfWay="edgePriority"/>
    <junction id="8" type="dead_end" x="289.54" y="-669.67" incLanes="" intLanes="" shape="289.79,-671.40 289.28,-667.94" rightOfWay="edgePriority"/>

    <connection from="296" to="299" fromLane="0" toLane="0" contPos="-4.00" shape="222.66,-783.44 222.15,-775.18 221.65,-766.97" via=":21_0_0" dir="s" state="M"/>
    <connection from="296" to="460" fromLane="0" toLane="0" contPos="-4.00" shape="222.66,-783.44 222.38,-781.32 221.83,-779.26 221.26,-777.96 220.49,-776.77 219.51,-775.73 218.37,-774.90 217.08,-774.30 215.71,-773.91 213.60,-773.66 212.18,-773.66" via=":21_1_0" dir="l" state="m"/>
    <connection from="298" to="460" fromLane="0" toLane="0" contPos="-4.00" shape="218.16,-767.11 218.13,-768.48 217.88,-769.85 217.56,-770.71 217.09,-771.51 216.47,-772.19 215.72,-772.74 214.89,-773.13 213.55,-773.50 212.18,-773.66" via=":21_4_0" dir="r" state="M"/>
    <connection from="298" to="295" fromLane="0" toLane="0" contPos="-4.00" shape="218.16,-767.11 218.66,-775.39 219.17,-783.71" via=":21_5_0" dir="s" state="M"/>
    <connection from="299" to="80" fromLane="0" toLane="0" contPos="-4.00" shape="215.98,-692.45 215.89,-690.29 216.03,-688.79 216.41,-687.38 216.79,-686.62 217.31,-685.92 217.94,-685.35 218.68,-684.89 219.52,-684.53 221.03,-684.17" via=":22_2_0" dir="r" state="m"/>
    <connection from="299" to="76" fromLane="0" toLane="0" contPos="-4.00" shape="215.98,-692.45 215.79,-691.13 215.31,-689.21 214.50,-687.33 213.68,-686.09 212.65,-685.02 211.41,-684.15 210.03,-683.56 208.61,-683.22 206.57,-683.10 204.62,-683.28" via=":22_3_0" dir="l" state="m"/>
    <connection from="459" to="295" fromLane="0" toLane="0" contPos="-4.00" shape="212.36,-777.16 213.34,-777.15 214.83,-777.32 215.70,-777.58 216.49,-777.95 217.16,-778.45 217.75,-779.09 218.22,-779.83 218.58,-780.68 218.97,-782.14 219.17,-783.71" via=":21_2_0" dir="r" state="m"/>
    <connection from="459" to="299" fromLane="0" toLane="0" contPos="-4.00" shape="212.36,-777.16 214.36,-776.92 216.35,-776.37 217.69,-775.72 218.91,-774.83 219.95,-773.69 220.72,-772.39 221.24,-770.99 221.61,-768.96 221.65,-766.97" via=":21_3_0" dir="l" state="m"/>
    <connection from="77" to="298" fromLane="0" toLane="0" contPos="-4.00" shape="205.14,-686.74 206.52,-686.61 207.90,-686.70 208.79,-686.92 209.64,-687.29 210.38,-687.83 211.01,-688.50 211.51,-689.28 212.04,-690.55 212.37,-691.90 212.51,-692.81" via=":22_4_0" dir="r" state="M"/>
    <connection from="77" to="80" fromLane="0" toLane="0" contPos="-4.00" shape="205.14,-686.74 213.06,-685.46 221.03,-684.17" via=":22_5_0" dir="s" state="M"/>
    <connection from="79" to="76" fromLane="0" toLane="0" contPos="-4.00" shape="220.42,-680.72 212.50,-682.00 204.62,-683.28" via=":22_0_0" dir="s" state="M"/>
    <connection from="79" to="298" fromLane="0" toLane="0" contPos="-4.00" shape="220.42,-680.72 218.34,-681.23 217.03,-681.76 215.81,-682.49 214.74,-683.43 213.87,-684.55 213.20,-685.81 212.61,-687.85 212.39,-689.97 212.51,-692.81" via=":22_1_0" dir="l" state="m"/>

    <connection from=":21_0" to="299" fromLane="0" toLane="0" dir="s" state="M"/>
    <connection from=":21_1" to="460" fromLane="0" toLane="0" dir="l" state="M"/>
    <connection from=":21_2" to="295" fromLane="0" toLane="0" dir="r" state="M"/>
    <connection from=":21_3" to="299" fromLane="0" toLane="0" dir="l" state="M"/>
    <connection from=":21_4" to="460" fromLane="0" toLane="0" dir="r" state="M"/>
    <connection from=":21_5" to="295" fromLane="0" toLane="0" dir="s" state="M"/>
    <connection from=":22_0" to="76" fromLane="0" toLane="0" dir="s" state="M"/>
    <connection from=":22_1" to="298" fromLane="0" toLane="0" dir="l" state="M"/>
    <connection from=":22_2" to="80" fromLane="0" toLane="0" dir="r" state="M"/>
    <connection from=":22_3" to="76" fromLane="0" toLane="0" dir="l" state="M"/>
    <connection from=":22_4" to="298" fromLane="0" toLane="0" dir="r" state="M"/>
    <connection from=":22_5" to="80" fromLane="0" toLane="0" dir="s" state="M"/>

</net>