<!-- generated on Tue Feb  9 22:11:04 2021 by Eclipse SUMO netconvert Version 1.8.0
<configuration xmlns:xsi="http://www.w3.org/2001/XMLSchema-instance" xsi:noNamespaceSchemaLocation="http://sumo.dlr.de/xsd/netconvertConfiguration.xsd">

    <input>
        <node-files value="./converted_scenarios/scenario-factory/DEU_Moelln-1_1_I-1-1/DEU_Moelln-1_1_I-1-1.nod.xml"/>
        <edge-files value="./converted_scenarios/scenario-factory/DEU_Moelln-1_1_I-1-1/DEU_Moelln-1_1_I-1-1.edg.xml"/>
        <connection-files value="./converted_scenarios/scenario-factory/DEU_Moelln-1_1_I-1-1/DEU_Moelln-1_1_I-1-1.con.xml"/>
        <tllogic-files value="./converted_scenarios/scenario-factory/DEU_Moelln-1_1_I-1-1/DEU_Moelln-1_1_I-1-1.tll.xml"/>
        <type-files value="/home/zen/commonroad-interactive-benchmarks/install/commonroad-map-tool/crmapconverter/sumo_map/templates/DEU.typ.xml"/>
    </input>

    <output>
        <output-file value="./converted_scenarios/scenario-factory/DEU_Moelln-1_1_I-1-1/DEU_Moelln-1_1_I-1-1.net.xml"/>
    </output>

    <processing>
        <geometry.remove.keep-edges.explicit value="true"/>
        <geometry.avoid-overlap value="true"/>
        <offset.disable-normalization value="true"/>
    </processing>

    <junctions>
        <no-turnarounds value="true"/>
        <junctions.internal-link-detail value="20"/>
    </junctions>

    <report>
        <aggregate-warnings value="5"/>
    </report>

    <random_number>
        <seed value="1234"/>
    </random_number>

</configuration>
--><net xmlns:xsi="http://www.w3.org/2001/XMLSchema-instance" version="1.6" junctionCornerDetail="5" junctionLinkDetail="20" limitTurnSpeed="5.50" xsi:noNamespaceSchemaLocation="http://sumo.dlr.de/xsd/net_file.xsd">

    <location netOffset="0.00,0.00" convBoundary="53.45,-305.60,154.81,-56.10" origBoundary="53.45,-306.12,154.81,-56.10" projParameter="!"/>

    <type id="highway.bridleway" priority="1" speed="2.78" allow="pedestrian" oneway="1" width="2.00"/>
    <type id="highway.bus_guideway" priority="1" speed="27.78" allow="bus" oneway="1"/>
    <type id="highway.cycleway" priority="1" speed="8.33" allow="bicycle" oneway="0" width="1.00"/>
    <type id="highway.footway" priority="1" speed="2.78" allow="pedestrian" oneway="1" width="2.00"/>
    <type id="highway.ford" priority="1" speed="2.78" allow="army" oneway="0"/>
    <type id="highway.living_street" priority="2" speed="2.78" disallow="tram rail_urban rail rail_electric rail_fast ship" oneway="0"/>
    <type id="highway.motorway" priority="14" speed="39.44" allow="private emergency authority army vip passenger hov taxi bus coach delivery truck trailer motorcycle evehicle custom1 custom2" oneway="1"/>
    <type id="highway.motorway_link" priority="9" speed="22.22" allow="private emergency authority army vip passenger hov taxi bus coach delivery truck trailer motorcycle evehicle custom1 custom2" oneway="1"/>
    <type id="highway.path" priority="1" speed="2.78" allow="pedestrian bicycle" oneway="0" width="2.00"/>
    <type id="highway.pedestrian" priority="1" speed="2.78" allow="pedestrian" oneway="1" width="2.00"/>
    <type id="highway.primary" priority="12" speed="27.78" disallow="pedestrian tram rail_urban rail rail_electric rail_fast ship" oneway="0"/>
    <type id="highway.primary_link" priority="7" speed="22.22" disallow="pedestrian tram rail_urban rail rail_electric rail_fast ship" oneway="0"/>
    <type id="highway.raceway" priority="15" speed="83.33" allow="vip" oneway="0"/>
    <type id="highway.residential" priority="3" speed="13.89" disallow="pedestrian tram rail_urban rail rail_electric rail_fast ship" oneway="0"/>
    <type id="highway.secondary" priority="11" speed="27.78" disallow="pedestrian tram rail_urban rail rail_electric rail_fast ship" oneway="0"/>
    <type id="highway.secondary_link" priority="6" speed="22.22" disallow="pedestrian tram rail_urban rail rail_electric rail_fast ship" oneway="0"/>
    <type id="highway.service" priority="1" speed="5.56" allow="pedestrian delivery bicycle" oneway="0"/>
    <type id="highway.stairs" priority="1" speed="1.39" allow="pedestrian" oneway="1" width="2.00"/>
    <type id="highway.step" priority="1" speed="1.39" allow="pedestrian" oneway="1" width="2.00"/>
    <type id="highway.steps" priority="1" speed="1.39" allow="pedestrian" oneway="1" width="2.00"/>
    <type id="highway.tertiary" priority="10" speed="22.22" disallow="pedestrian tram rail_urban rail rail_electric rail_fast ship" oneway="0"/>
    <type id="highway.tertiary_link" priority="5" speed="22.22" disallow="pedestrian tram rail_urban rail rail_electric rail_fast ship" oneway="0"/>
    <type id="highway.track" priority="1" speed="5.56" allow="pedestrian motorcycle moped bicycle" oneway="0"/>
    <type id="highway.trunk" priority="13" speed="27.78" disallow="pedestrian bicycle tram rail_urban rail rail_electric rail_fast ship" oneway="0"/>
    <type id="highway.trunk_link" priority="8" speed="22.22" disallow="pedestrian bicycle tram rail_urban rail rail_electric rail_fast ship" oneway="0"/>
    <type id="highway.unclassified" priority="4" speed="13.89" disallow="pedestrian tram rail_urban rail rail_electric rail_fast ship" oneway="0"/>
    <type id="highway.unsurfaced" priority="1" speed="8.33" disallow="tram rail_urban rail rail_electric rail_fast ship" oneway="0"/>
    <type id="railway.highspeed" priority="21" speed="69.44" allow="rail_fast" oneway="1"/>
    <type id="railway.light_rail" priority="19" speed="27.78" allow="rail_urban" oneway="1"/>
    <type id="railway.preserved" priority="16" speed="27.78" allow="rail" oneway="1"/>
    <type id="railway.rail" priority="20" speed="44.44" allow="rail" oneway="1"/>
    <type id="railway.subway" priority="18" speed="27.78" allow="rail_urban" oneway="1"/>
    <type id="railway.tram" priority="17" speed="13.89" allow="tram" oneway="1"/>

    <edge id=":10_0" function="internal">
        <lane id=":10_0_0" index="0" disallow="pedestrian tram rail_urban rail rail_electric rail_fast ship" speed="36.11" length="3.00" width="3.50" shape="89.24,-260.71 90.15,-257.85"/>
    </edge>
    <edge id=":16_0" function="internal">
        <lane id=":16_0_0" index="0" disallow="pedestrian tram rail_urban rail rail_electric rail_fast ship" speed="36.11" length="3.00" width="3.50" shape="74.47,-139.39 71.49,-139.74"/>
    </edge>
    <edge id=":21_0" function="internal">
        <lane id=":21_0_0" index="0" disallow="pedestrian tram rail_urban rail rail_electric rail_fast ship" speed="36.11" length="3.01" width="3.50" shape="99.08,-293.82 96.39,-292.48"/>
        <lane id=":21_0_1" index="1" disallow="pedestrian tram rail_urban rail rail_electric rail_fast ship" speed="36.11" length="3.00" width="3.50" shape="97.53,-296.95 94.84,-295.62"/>
    </edge>
    <edge id=":24_0" function="internal">
        <lane id=":24_0_0" index="0" disallow="pedestrian tram rail_urban rail rail_electric rail_fast ship" speed="36.11" length="2.99" width="3.50" shape="71.88,-143.22 74.85,-142.87"/>
    </edge>
    <edge id=":3_0" function="internal">
        <lane id=":3_0_0" index="0" disallow="pedestrian tram rail_urban rail rail_electric rail_fast ship" speed="36.11" length="3.00" width="3.50" shape="104.40,-195.87 103.50,-198.73"/>
    </edge>
    <edge id=":33_0" function="internal">
        <lane id=":33_0_0" index="0" disallow="pedestrian tram rail_urban rail rail_electric rail_fast ship" speed="36.11" length="3.00" width="3.50" shape="83.48,-255.72 82.57,-258.58"/>
        <lane id=":33_0_1" index="1" disallow="pedestrian tram rail_urban rail rail_electric rail_fast ship" speed="36.11" length="3.00" width="3.50" shape="86.82,-256.78 85.91,-259.64"/>
    </edge>
    <edge id=":34_0" function="internal">
        <lane id=":34_0_0" index="0" disallow="pedestrian tram rail_urban rail rail_electric rail_fast ship" speed="16.97" length="34.78" width="3.50" shape="129.45,-122.35 128.94,-123.16 127.76,-124.75 125.70,-126.93 123.39,-128.84 120.85,-130.49 118.14,-131.91 115.31,-133.10 112.38,-134.10 108.36,-135.16 104.27,-135.97 99.05,-136.68"/>
    </edge>
    <edge id=":34_1" function="internal">
        <lane id=":34_1_0" index="0" disallow="pedestrian tram rail_urban rail rail_electric rail_fast ship" speed="36.11" length="36.32" width="3.50" shape="129.45,-122.35 128.35,-124.22 125.86,-128.97 123.22,-134.83 120.91,-140.80 118.53,-147.87 116.16,-156.03"/>
    </edge>
    <edge id=":34_2" function="internal">
        <lane id=":34_2_0" index="0" disallow="pedestrian tram rail_urban rail rail_electric rail_fast ship" speed="36.11" length="35.38" width="3.50" shape="119.53,-156.99 121.86,-148.96 124.17,-142.06 126.42,-136.25 128.98,-130.56 131.39,-125.96 132.45,-124.17"/>
    </edge>
    <edge id=":34_3" function="internal">
        <lane id=":34_3_0" index="0" disallow="pedestrian tram rail_urban rail rail_electric rail_fast ship" speed="11.19" length="37.01" width="3.50" shape="119.53,-156.99 120.21,-154.06 120.63,-151.14 120.71,-149.66 120.70,-148.18 120.56,-146.71 120.28,-145.26 119.83,-143.85 119.20,-142.52 118.39,-141.28 117.40,-140.19 116.26,-139.25 115.00,-138.47 113.67,-137.84 112.27,-137.35 110.84,-136.98 107.92,-136.52 104.97,-136.37 100.54,-136.54 99.05,-136.68"/>
    </edge>
    <edge id=":34_4" function="internal">
        <lane id=":34_4_0" index="0" disallow="pedestrian tram rail_urban rail rail_electric rail_fast ship" speed="10.09" length="29.86" width="3.50" shape="99.42,-140.16 100.70,-140.04 104.56,-139.88 107.05,-140.00 109.51,-140.37 110.65,-140.66 111.76,-141.04 112.80,-141.51 113.76,-142.08 114.61,-142.76 115.34,-143.54 115.95,-144.41 116.42,-145.38 116.77,-146.44 117.00,-147.55 117.12,-148.71 117.14,-149.90 117.08,-151.09 116.73,-153.57 116.16,-156.03"/>
    </edge>
    <edge id=":34_5" function="internal">
        <lane id=":34_5_0" index="0" disallow="pedestrian tram rail_urban rail rail_electric rail_fast ship" speed="17.75" length="38.00" width="3.50" shape="99.42,-140.16 104.98,-139.40 109.36,-138.52 113.67,-137.36 116.84,-136.26 119.92,-134.94 122.87,-133.36 125.66,-131.51 128.23,-129.36 130.51,-126.90 131.84,-125.11 132.45,-124.17"/>
    </edge>
    <edge id=":35_0" function="internal">
        <lane id=":35_0_0" index="0" disallow="pedestrian tram rail_urban rail rail_electric rail_fast ship" speed="36.11" length="3.88" width="3.50" shape="78.63,-270.94 77.46,-274.64"/>
    </edge>
    <edge id=":35_1" function="internal">
        <lane id=":35_1_0" index="0" disallow="pedestrian tram rail_urban rail rail_electric rail_fast ship" speed="11.33" length="25.94" width="3.50" shape="81.97,-271.98 80.76,-276.34 80.06,-280.22 79.84,-283.03 79.95,-285.85 80.37,-288.06 80.91,-289.66 81.67,-291.17 82.66,-292.54 83.86,-293.73 85.24,-294.72 86.23,-295.26"/>
    </edge>
    <edge id=":35_2" function="internal">
        <lane id=":35_2_0" index="0" disallow="pedestrian tram rail_urban rail rail_electric rail_fast ship" speed="9.52" length="18.17" width="3.50" shape="89.36,-289.01 87.87,-288.12 86.57,-287.02 85.52,-285.69 84.75,-284.18 84.27,-282.54 84.06,-280.86 84.11,-278.59 84.56,-275.79 85.30,-273.05"/>
    </edge>
    <edge id=":35_3" function="internal">
        <lane id=":35_3_0" index="0" disallow="pedestrian tram rail_urban rail rail_electric rail_fast ship" speed="12.32" length="19.49" width="3.50" shape="87.76,-292.12 87.45,-292.01 87.08,-291.96 86.63,-291.96 86.11,-292.02 85.53,-292.14 84.88,-292.31 84.15,-292.54 83.36,-292.82 82.50,-293.16 81.57,-293.56 80.57,-294.01 79.50,-294.52 78.36,-295.08 77.15,-295.70 75.88,-296.38 74.53,-297.11 73.12,-297.90 71.63,-298.74 70.08,-299.64"/>
    </edge>
    <edge id=":35_4" function="internal">
        <lane id=":35_4_0" index="0" disallow="pedestrian tram rail_urban rail rail_electric rail_fast ship" speed="8.40" length="17.56" width="3.50" shape="75.24,-304.96 77.31,-298.81 78.20,-297.19 79.36,-295.76 80.34,-295.01 81.47,-294.53 82.68,-294.35 83.91,-294.45 85.66,-295.00 86.23,-295.26"/>
    </edge>
    <edge id=":35_5" function="internal">
        <lane id=":35_5_0" index="0" disallow="pedestrian tram rail_urban rail rail_electric rail_fast ship" speed="36.11" length="33.71" width="3.50" shape="71.90,-303.91 74.49,-296.21 76.59,-291.55 82.44,-280.17 84.28,-275.95 85.30,-273.05"/>
    </edge>
    <edge id=":37_0" function="internal">
        <lane id=":37_0_0" index="0" disallow="pedestrian tram rail_urban rail rail_electric rail_fast ship" speed="36.11" length="8.03" width="3.50" shape="94.17,-226.19 91.12,-233.62"/>
        <lane id=":37_0_1" index="1" disallow="pedestrian tram rail_urban rail rail_electric rail_fast ship" speed="36.11" length="8.05" width="3.50" shape="95.21,-226.52 93.40,-234.36"/>
    </edge>
    <edge id=":4_0" function="internal">
        <lane id=":4_0_0" index="0" disallow="pedestrian tram rail_urban rail rail_electric rail_fast ship" speed="36.11" length="0.25" width="3.50" shape="94.01,-245.76 94.08,-245.52"/>
    </edge>
    <edge id=":5_0" function="internal">
        <lane id=":5_0_0" index="0" disallow="pedestrian tram rail_urban rail rail_electric rail_fast ship" speed="36.11" length="2.96" width="3.50" shape="100.84,-218.74 101.70,-215.91"/>
    </edge>
    <edge id=":6_0" function="internal">
        <lane id=":6_0_0" index="0" disallow="pedestrian tram rail_urban rail rail_electric rail_fast ship" speed="36.11" length="3.00" width="3.50" shape="106.83,-199.79 107.74,-196.93"/>
    </edge>
    <edge id=":7_0" function="internal">
        <lane id=":7_0_0" index="0" disallow="pedestrian tram rail_urban rail rail_electric rail_fast ship" speed="36.11" length="2.99" width="3.50" shape="114.86,-173.37 115.70,-170.50"/>
    </edge>
    <edge id=":8_0" function="internal">
        <lane id=":8_0_0" index="0" disallow="pedestrian tram rail_urban rail rail_electric rail_fast ship" speed="36.11" length="2.99" width="3.50" shape="112.34,-169.52 111.50,-172.39"/>
    </edge>

    <edge id="52098" from="19" to="35" priority="3" type="highway.residential" spreadType="center" length="1.21" shape="73.21,-305.60 85.84,-287.61">
        <lane id="52098_0" index="0" disallow="pedestrian tram rail_urban rail rail_electric rail_fast ship" speed="36.11" length="1.21" width="3.50" customShape="1" shape="74.88,-306.12 75.24,-304.96"/>
        <lane id="52098_1" index="1" disallow="pedestrian tram rail_urban rail rail_electric rail_fast ship" speed="36.11" length="1.22" width="3.50" customShape="1" shape="71.54,-305.08 71.90,-303.91"/>
    </edge>
    <edge id="52152" from="10" to="4" priority="3" type="highway.residential" spreadType="center" length="12.69">
        <lane id="52152_0" index="0" disallow="pedestrian tram rail_urban rail rail_electric rail_fast ship" speed="36.11" length="12.69" width="3.50" customShape="1" shape="90.15,-257.85 91.87,-252.46 94.01,-245.76"/>
    </edge>
    <edge id="52154" from="37" to="33" priority="3" type="highway.residential" spreadType="center" length="23.36">
        <lane id="52154_0" index="0" disallow="pedestrian tram rail_urban rail rail_electric rail_fast ship" speed="36.11" length="23.38" width="3.50" customShape="1" shape="90.59,-233.45 85.20,-250.33 83.48,-255.72"/>
        <lane id="52154_1" index="1" disallow="pedestrian tram rail_urban rail rail_electric rail_fast ship" speed="36.11" length="23.36" width="3.50" customShape="1" shape="93.92,-234.53 88.54,-251.39 86.82,-256.78"/>
    </edge>
    <edge id="52162" from="33" to="35" priority="3" type="highway.residential" spreadType="center" length="12.96" shape="84.70,-257.68 79.20,-285.83">
        <lane id="52162_0" index="0" disallow="pedestrian tram rail_urban rail rail_electric rail_fast ship" speed="36.11" length="12.97" width="3.50" customShape="1" shape="82.57,-258.58 82.13,-259.95 81.24,-262.75 81.20,-262.87 81.16,-262.99 80.28,-265.76 79.40,-268.53 79.01,-269.73 78.63,-270.94"/>
        <lane id="52162_1" index="1" disallow="pedestrian tram rail_urban rail rail_electric rail_fast ship" speed="36.11" length="12.96" width="3.50" customShape="1" shape="85.91,-259.64 85.47,-261.01 84.57,-263.81 84.54,-263.93 84.50,-264.05 83.61,-266.82 82.73,-269.59 82.35,-270.79 81.97,-271.99"/>
    </edge>
    <edge id="52409" from="25" to="24" priority="3" type="highway.residential" spreadType="center" length="18.02">
        <lane id="52409_0" index="0" disallow="pedestrian tram rail_urban rail rail_electric rail_fast ship" speed="36.11" length="18.02" width="3.50" customShape="1" shape="54.05,-145.78 64.19,-144.18 71.88,-143.22"/>
    </edge>
    <edge id="52410" from="16" to="17" priority="3" type="highway.residential" spreadType="center" length="18.23">
        <lane id="52410_0" index="0" disallow="pedestrian tram rail_urban rail rail_electric rail_fast ship" speed="36.11" length="18.23" width="3.50" customShape="1" shape="71.49,-139.74 63.71,-140.71 53.45,-142.33"/>
    </edge>
    <edge id="52453" from="24" to="34" priority="3" type="highway.residential" spreadType="center" length="24.73" shape="73.37,-143.04 116.16,-141.13">
        <lane id="52453_0" index="0" disallow="pedestrian tram rail_urban rail rail_electric rail_fast ship" speed="36.11" length="24.73" width="3.50" customShape="1" shape="74.85,-142.87 86.28,-141.61 99.19,-140.18 99.32,-140.17 99.43,-140.16"/>
    </edge>
    <edge id="52542" from="23" to="21" priority="3" type="highway.residential" spreadType="center" length="18.06">
        <lane id="52542_0" index="0" disallow="pedestrian tram rail_urban rail rail_electric rail_fast ship" speed="36.11" length="18.07" width="3.50" customShape="1" shape="115.27,-301.85 106.50,-297.50 99.08,-293.82"/>
        <lane id="52542_1" index="1" disallow="pedestrian tram rail_urban rail rail_electric rail_fast ship" speed="36.11" length="18.06" width="3.50" customShape="1" shape="113.71,-304.98 104.95,-300.63 97.53,-296.95"/>
    </edge>
    <edge id="52550" from="21" to="35" priority="3" type="highway.residential" spreadType="center" length="7.87" shape="96.96,-294.72 84.51,-283.09">
        <lane id="52550_0" index="0" disallow="pedestrian tram rail_urban rail rail_electric rail_fast ship" speed="36.11" length="7.87" width="3.50" customShape="1" shape="96.39,-292.48 95.24,-291.91 92.74,-290.67 92.62,-290.62 92.51,-290.56 91.03,-289.83 89.56,-289.10 89.44,-289.05 89.34,-288.99"/>
        <lane id="52550_1" index="1" disallow="pedestrian tram rail_urban rail rail_electric rail_fast ship" speed="36.11" length="7.90" width="3.50" customShape="1" shape="94.84,-295.62 93.69,-295.05 91.19,-293.81 91.08,-293.76 90.96,-293.70 89.48,-292.97 88.00,-292.24 87.89,-292.18 87.76,-292.12"/>
    </edge>
    <edge id="52600" from="34" to="15" priority="3" type="highway.residential" spreadType="center" length="70.00" shape="117.59,-140.14 154.81,-57.93">
        <lane id="52600_0" index="0" disallow="pedestrian tram rail_urban rail rail_electric rail_fast ship" speed="36.11" length="70.00" width="3.50" customShape="1" shape="132.45,-124.17 132.95,-123.30 134.04,-121.02 135.42,-117.23 137.28,-110.41 144.85,-85.28 148.47,-74.24 151.79,-65.25 154.81,-57.93"/>
    </edge>
    <edge id="52601" from="18" to="34" priority="3" type="highway.residential" spreadType="center" length="70.05" shape="151.78,-56.10 114.41,-138.70">
        <lane id="52601_0" index="0" disallow="pedestrian tram rail_urban rail rail_electric rail_fast ship" speed="36.11" length="70.05" width="3.50" customShape="1" shape="151.78,-56.10 148.62,-63.74 145.27,-72.79 141.63,-83.86 134.04,-109.01 132.20,-115.79 130.91,-119.44 129.91,-121.57 129.42,-122.40"/>
    </edge>
    <edge id="52671" from="7" to="34" priority="3" type="highway.residential" spreadType="center" length="14.09" shape="115.29,-171.94 117.76,-139.43">
        <lane id="52671_0" index="0" disallow="pedestrian tram rail_urban rail rail_electric rail_fast ship" speed="36.11" length="14.09" width="3.50" customShape="1" shape="115.70,-170.50 117.42,-164.44 119.54,-156.94"/>
    </edge>
    <edge id="52672" from="34" to="8" priority="3" type="highway.residential" spreadType="center" length="14.02" shape="114.28,-139.16 111.93,-170.96">
        <lane id="52672_0" index="0" disallow="pedestrian tram rail_urban rail rail_electric rail_fast ship" speed="36.11" length="14.02" width="3.50" customShape="1" shape="116.16,-156.03 114.05,-163.49 112.34,-169.52"/>
    </edge>
    <edge id="52783" from="5" to="6" priority="3" type="highway.residential" spreadType="center" length="16.92">
        <lane id="52783_0" index="0" disallow="pedestrian tram rail_urban rail rail_electric rail_fast ship" speed="36.11" length="16.92" width="3.50" customShape="1" shape="101.70,-215.91 104.27,-207.84 106.83,-199.79"/>
    </edge>
    <edge id="52784" from="3" to="37" priority="3" type="highway.residential" spreadType="center" length="29.00">
        <lane id="52784_0" index="0" disallow="pedestrian tram rail_urban rail rail_electric rail_fast ship" speed="36.11" length="29.00" width="3.50" customShape="1" shape="103.50,-198.73 100.93,-206.78 94.70,-226.36"/>
    </edge>
    <edge id="54208" from="8" to="3" priority="3" type="highway.residential" spreadType="center" length="24.53">
        <lane id="54208_0" index="0" disallow="pedestrian tram rail_urban rail rail_electric rail_fast ship" speed="36.11" length="24.53" width="3.50" customShape="1" shape="111.50,-172.39 105.54,-192.25 104.40,-195.87"/>
    </edge>
    <edge id="54234" from="35" to="36" priority="3" type="highway.residential" spreadType="center" length="0.20" shape="81.46,-284.84 69.77,-299.01">
        <lane id="54234_0" index="0" disallow="pedestrian tram rail_urban rail rail_electric rail_fast ship" speed="36.11" length="0.20" width="3.50" customShape="1" shape="70.08,-299.64 69.91,-299.74"/>
    </edge>
    <edge id="54245" from="35" to="31" priority="3" type="highway.residential" spreadType="center" length="9.37" shape="81.39,-287.25 94.63,-299.42">
        <lane id="54245_0" index="0" disallow="pedestrian tram rail_urban rail rail_electric rail_fast ship" speed="36.11" length="9.37" width="3.50" customShape="1" shape="86.23,-295.26 86.33,-295.32 86.45,-295.37 87.93,-296.11 89.41,-296.84 89.53,-296.90 89.64,-296.95 92.13,-298.19 94.63,-299.42"/>
    </edge>
    <edge id="54677" from="34" to="16" priority="3" type="highway.residential" spreadType="center" length="24.73" shape="116.01,-137.64 72.98,-139.56">
        <lane id="54677_0" index="0" disallow="pedestrian tram rail_urban rail rail_electric rail_fast ship" speed="36.11" length="24.73" width="3.50" customShape="1" shape="99.05,-136.68 98.95,-136.69 98.82,-136.70 85.90,-138.13 74.47,-139.39"/>
    </edge>
    <edge id="54875" from="35" to="36" priority="3" type="highway.residential" spreadType="center" length="25.55">
        <lane id="54875_0" index="0" disallow="pedestrian tram rail_urban rail rail_electric rail_fast ship" speed="36.11" length="25.55" width="3.50" customShape="1" shape="77.46,-274.64 74.20,-284.98 69.77,-299.01"/>
    </edge>
    <edge id="54894" from="35" to="10" priority="3" type="highway.residential" spreadType="center" length="12.95" shape="84.39,-286.52 89.70,-259.28">
        <lane id="54894_0" index="0" disallow="pedestrian tram rail_urban rail rail_electric rail_fast ship" speed="36.11" length="12.95" width="3.50" customShape="1" shape="85.30,-273.05 85.68,-271.85 86.07,-270.65 86.95,-267.88 87.83,-265.11 87.87,-264.99 87.91,-264.87 88.80,-262.07 89.24,-260.71"/>
    </edge>
    <edge id="54918" from="4" to="5" priority="3" type="highway.residential" spreadType="center" length="27.63">
        <lane id="54918_0" index="0" disallow="pedestrian tram rail_urban rail rail_electric rail_fast ship" speed="36.11" length="27.63" width="3.50" customShape="1" shape="94.08,-245.52 95.76,-239.62 99.54,-223.34 100.84,-218.74"/>
    </edge>
    <edge id="55040" from="6" to="7" priority="3" type="highway.residential" spreadType="center" length="24.61">
        <lane id="55040_0" index="0" disallow="pedestrian tram rail_urban rail rail_electric rail_fast ship" speed="36.11" length="24.61" width="3.50" customShape="1" shape="107.74,-196.93 108.89,-193.29 114.86,-173.37"/>
    </edge>

    <junction id="10" type="priority" x="89.70" y="-259.28" incLanes="54894_0" intLanes=":10_0_0" shape="88.49,-257.32 91.82,-258.38 90.91,-261.24 87.57,-260.17" rightOfWay="edgePriority">
        <request index="0" response="0" foes="0" cont="0"/>
    </junction>
    <junction id="15" type="dead_end" x="154.81" y="-57.93" incLanes="52600_0" intLanes="" shape="156.43,-58.60 153.20,-57.26" rightOfWay="edgePriority"/>
    <junction id="16" type="priority" x="72.98" y="-139.56" incLanes="54677_0" intLanes=":16_0_0" shape="74.27,-137.65 74.66,-141.13 71.71,-141.48 71.28,-138.01" rightOfWay="edgePriority">
        <request index="0" response="0" foes="0" cont="0"/>
    </junction>
    <junction id="17" type="dead_end" x="53.45" y="-142.33" incLanes="52410_0" intLanes="" shape="53.18,-140.60 53.73,-144.06" rightOfWay="edgePriority"/>
    <junction id="18" type="dead_end" x="151.78" y="-56.10" incLanes="" intLanes="" shape="153.40,-56.77 150.17,-55.43" rightOfWay="edgePriority"/>
    <junction id="19" type="dead_end" x="73.21" y="-305.60" incLanes="" intLanes="" shape="69.87,-304.56 76.55,-306.64" rightOfWay="edgePriority"/>
    <junction id="21" type="priority" x="96.96" y="-294.72" incLanes="52542_0 52542_1" intLanes=":21_0_0 :21_0_1" shape="99.86,-292.25 96.75,-298.52 94.06,-297.19 97.17,-290.91" rightOfWay="edgePriority">
        <request index="0" response="00" foes="00" cont="0"/>
        <request index="1" response="00" foes="00" cont="0"/>
    </junction>
    <junction id="23" type="dead_end" x="114.49" y="-303.41" incLanes="" intLanes="" shape="112.93,-306.55 116.04,-300.28" rightOfWay="edgePriority"/>
    <junction id="24" type="priority" x="73.37" y="-143.04" incLanes="52409_0" intLanes=":24_0_0" shape="74.66,-141.13 75.05,-144.61 72.10,-144.96 71.67,-141.48" rightOfWay="edgePriority">
        <request index="0" response="0" foes="0" cont="0"/>
    </junction>
    <junction id="25" type="dead_end" x="54.05" y="-145.78" incLanes="" intLanes="" shape="53.78,-144.05 54.33,-147.51" rightOfWay="edgePriority"/>
    <junction id="3" type="priority" x="103.95" y="-197.30" incLanes="54208_0" intLanes=":3_0_0" shape="102.73,-195.35 106.07,-196.40 105.17,-199.26 101.83,-198.20" rightOfWay="edgePriority">
        <request index="0" response="0" foes="0" cont="0"/>
    </junction>
    <junction id="31" type="dead_end" x="94.63" y="-299.42" incLanes="54245_0" intLanes="" shape="93.85,-300.99 95.40,-297.85" rightOfWay="edgePriority"/>
    <junction id="33" type="priority" x="84.70" y="-257.68" incLanes="52154_0 52154_1" intLanes=":33_0_0 :33_0_1" shape="81.82,-255.18 88.49,-257.31 87.57,-260.17 80.91,-258.04" rightOfWay="edgePriority">
        <request index="0" response="00" foes="00" cont="0"/>
        <request index="1" response="00" foes="00" cont="0"/>
    </junction>
    <junction id="34" type="priority" x="116.02" y="-139.39" incLanes="52601_0 52671_0 52453_0" intLanes=":34_0_0 :34_1_0 :34_2_0 :34_3_0 :34_4_0 :34_5_0" shape="127.91,-121.52 133.96,-125.05 130.29,-131.51 127.80,-136.41 126.07,-140.61 124.67,-144.96 123.19,-150.29 121.21,-157.47 114.48,-155.56 115.30,-150.81 114.81,-147.05 112.99,-144.28 109.85,-142.50 105.38,-141.71 99.60,-141.90 98.87,-134.94 105.95,-133.91 112.13,-132.40 117.41,-130.41 121.81,-127.93 125.31,-124.97">
        <request index="0" response="000000" foes="001000" cont="0"/>
        <request index="1" response="000000" foes="111000" cont="0"/>
        <request index="2" response="000000" foes="100000" cont="0"/>
        <request index="3" response="000011" foes="100011" cont="0"/>
        <request index="4" response="000010" foes="000010" cont="0"/>
        <request index="5" response="001110" foes="001110" cont="0"/>
    </junction>
    <junction id="35" type="priority" x="82.70" y="-286.08" incLanes="52162_0 52162_1 52550_0 52550_1 52098_0 52098_1" intLanes=":35_0_0 :35_1_0 :35_2_0 :35_3_0 :35_4_0 :35_5_0" shape="76.97,-270.39 86.97,-273.58 86.12,-276.92 85.81,-279.84 86.07,-282.36 86.87,-284.46 88.23,-286.16 90.14,-287.44 85.45,-296.83 82.26,-296.67 80.79,-297.73 79.41,-299.56 78.12,-302.14 76.91,-305.49 70.23,-303.39 70.05,-303.33 68.73,-296.76 76.08,-276.95 81.18,-263.63 84.04,-256.78 84.65,-256.43 83.01,-262.55 79.13,-275.16 75.79,-274.11">
        <request index="0" response="000000" foes="000000" cont="0"/>
        <request index="1" response="110000" foes="111000" cont="0"/>
        <request index="2" response="100000" foes="100000" cont="0"/>
        <request index="3" response="100010" foes="100010" cont="0"/>
        <request index="4" response="000000" foes="000010" cont="0"/>
        <request index="5" response="000000" foes="001110" cont="0"/>
    </junction>
    <junction id="36" type="dead_end" x="69.77" y="-299.01" incLanes="54234_0 54875_0" intLanes="" shape="68.13,-298.41 71.41,-299.61 68.10,-298.48 71.44,-299.54"/>
    <junction id="37" type="priority" x="92.65" y="-229.89" incLanes="52784_0" intLanes=":37_0_0 :37_0_1" shape="93.03,-225.82 96.36,-226.89 95.89,-229.88 96.07,-232.08 95.99,-233.37 95.59,-235.07 88.93,-232.91 90.27,-230.21 91.69,-228.53 92.38,-227.43">
        <request index="0" response="00" foes="00" cont="0"/>
        <request index="1" response="00" foes="00" cont="0"/>
    </junction>
    <junction id="4" type="priority" x="94.05" y="-245.64" incLanes="52152_0" intLanes=":4_0_0" shape="92.40,-245.04 95.77,-246.00 95.68,-246.29 92.34,-245.23" rightOfWay="edgePriority">
        <request index="0" response="0" foes="0" cont="0"/>
    </junction>
    <junction id="5" type="priority" x="101.25" y="-217.32" incLanes="54918_0" intLanes=":5_0_0" shape="100.03,-215.38 103.36,-216.45 102.53,-219.22 99.16,-218.26" rightOfWay="edgePriority">
        <request index="0" response="0" foes="0" cont="0"/>
    </junction>