<routes>
	<vehicle depart="0.1" departLane="0" departPos="15.490920074987175" departSpeed="0.0" id="39" type="passenger">
		<route edges="52671 54677"/>
	</vehicle>
	<vehicle depart="0.1" departLane="0" departPos="7.993505665859463" departSpeed="0.0" id="312" type="passenger">
		<route edges="52671 54677"/>
	</vehicle>
	<vehicle depart="0.1" departLane="0" departPos="9.917417684770438" departSpeed="7.0952748" id="329" type="passenger">
		<route edges=":34_0 54677 52410"/>
	</vehicle>
	<vehicle depart="0.1" departLane="0" departPos="69.00812337916847" departSpeed="6.1529157" id="330" type="passenger">
		<route edges="52601 52672"/>
	</vehicle>
	<vehicle depart="0.1" departLane="0" departPos="28.634115600341392" departSpeed="3.8241097" id="338" type="passenger">
		<route edges="52601 52672"/>
	</vehicle>
	<vehicle depart="0.1" departLane="0" departPos="16.707646213516107" departSpeed="4.117738" id="341" type="passenger">
		<route edges="52601 52672"/>
	</vehicle>
	<vehicle depart="0.1" departLane="0" departPos="6.878454694226422" departSpeed="3.2579657" id="344" type="passenger">
		<route edges="52601 52672"/>
	</vehicle>
	<vehicle depart="0.1" departLane="0" departPos="61.1406058154083" departSpeed="3.5160283" id="331" type="motorcycle">
		<route edges="52601 52672"/>
	</vehicle>
	<vehicle depart="0.1" departLane="0" departPos="38.273464793595956" departSpeed="3.4982965" id="334" type="motorcycle">
		<route edges="52601 52672"/>
	</vehicle>
</routes>
