<!-- generated on Tue Feb  9 22:08:27 2021 by Eclipse SUMO netconvert Version 1.8.0
<configuration xmlns:xsi="http://www.w3.org/2001/XMLSchema-instance" xsi:noNamespaceSchemaLocation="http://sumo.dlr.de/xsd/netconvertConfiguration.xsd">

    <input>
        <node-files value="./converted_scenarios/scenario-factory/DEU_Guetersloh-1_1_I-1-1/DEU_Guetersloh-1_1_I-1-1.nod.xml"/>
        <edge-files value="./converted_scenarios/scenario-factory/DEU_Guetersloh-1_1_I-1-1/DEU_Guetersloh-1_1_I-1-1.edg.xml"/>
        <connection-files value="./converted_scenarios/scenario-factory/DEU_Guetersloh-1_1_I-1-1/DEU_Guetersloh-1_1_I-1-1.con.xml"/>
        <tllogic-files value="./converted_scenarios/scenario-factory/DEU_Guetersloh-1_1_I-1-1/DEU_Guetersloh-1_1_I-1-1.tll.xml"/>
        <type-files value="/home/zen/commonroad-interactive-benchmarks/install/commonroad-map-tool/crmapconverter/sumo_map/templates/DEU.typ.xml"/>
    </input>

    <output>
        <output-file value="./converted_scenarios/scenario-factory/DEU_Guetersloh-1_1_I-1-1/DEU_Guetersloh-1_1_I-1-1.net.xml"/>
    </output>

    <processing>
        <geometry.remove.keep-edges.explicit value="true"/>
        <geometry.avoid-overlap value="true"/>
        <offset.disable-normalization value="true"/>
    </processing>

    <junctions>
        <no-turnarounds value="true"/>
        <junctions.internal-link-detail value="20"/>
    </junctions>

    <report>
        <aggregate-warnings value="5"/>
    </report>

    <random_number>
        <seed value="1234"/>
    </random_number>

</configuration>
--><net xmlns:xsi="http://www.w3.org/2001/XMLSchema-instance" version="1.6" junctionCornerDetail="5" junctionLinkDetail="20" limitTurnSpeed="5.50" xsi:noNamespaceSchemaLocation="http://sumo.dlr.de/xsd/net_file.xsd">

    <location netOffset="0.00,0.00" convBoundary="600.63,746.82,911.34,999.97" origBoundary="600.63,746.82,911.34,1001.33" projParameter="!"/>

    <type id="highway.bridleway" priority="1" speed="2.78" allow="pedestrian" oneway="1" width="2.00"/>
    <type id="highway.bus_guideway" priority="1" speed="27.78" allow="bus" oneway="1"/>
    <type id="highway.cycleway" priority="1" speed="8.33" allow="bicycle" oneway="0" width="1.00"/>
    <type id="highway.footway" priority="1" speed="2.78" allow="pedestrian" oneway="1" width="2.00"/>
    <type id="highway.ford" priority="1" speed="2.78" allow="army" oneway="0"/>
    <type id="highway.living_street" priority="2" speed="2.78" disallow="tram rail_urban rail rail_electric rail_fast ship" oneway="0"/>
    <type id="highway.motorway" priority="14" speed="39.44" allow="private emergency authority army vip passenger hov taxi bus coach delivery truck trailer motorcycle evehicle custom1 custom2" oneway="1"/>
    <type id="highway.motorway_link" priority="9" speed="22.22" allow="private emergency authority army vip passenger hov taxi bus coach delivery truck trailer motorcycle evehicle custom1 custom2" oneway="1"/>
    <type id="highway.path" priority="1" speed="2.78" allow="pedestrian bicycle" oneway="0" width="2.00"/>
    <type id="highway.pedestrian" priority="1" speed="2.78" allow="pedestrian" oneway="1" width="2.00"/>
    <type id="highway.primary" priority="12" speed="27.78" disallow="pedestrian tram rail_urban rail rail_electric rail_fast ship" oneway="0"/>
    <type id="highway.primary_link" priority="7" speed="22.22" disallow="pedestrian tram rail_urban rail rail_electric rail_fast ship" oneway="0"/>
    <type id="highway.raceway" priority="15" speed="83.33" allow="vip" oneway="0"/>
    <type id="highway.residential" priority="3" speed="13.89" disallow="pedestrian tram rail_urban rail rail_electric rail_fast ship" oneway="0"/>
    <type id="highway.secondary" priority="11" speed="27.78" disallow="pedestrian tram rail_urban rail rail_electric rail_fast ship" oneway="0"/>
    <type id="highway.secondary_link" priority="6" speed="22.22" disallow="pedestrian tram rail_urban rail rail_electric rail_fast ship" oneway="0"/>
    <type id="highway.service" priority="1" speed="5.56" allow="pedestrian delivery bicycle" oneway="0"/>
    <type id="highway.stairs" priority="1" speed="1.39" allow="pedestrian" oneway="1" width="2.00"/>
    <type id="highway.step" priority="1" speed="1.39" allow="pedestrian" oneway="1" width="2.00"/>
    <type id="highway.steps" priority="1" speed="1.39" allow="pedestrian" oneway="1" width="2.00"/>
    <type id="highway.tertiary" priority="10" speed="22.22" disallow="pedestrian tram rail_urban rail rail_electric rail_fast ship" oneway="0"/>
    <type id="highway.tertiary_link" priority="5" speed="22.22" disallow="pedestrian tram rail_urban rail rail_electric rail_fast ship" oneway="0"/>
    <type id="highway.track" priority="1" speed="5.56" allow="pedestrian motorcycle moped bicycle" oneway="0"/>
    <type id="highway.trunk" priority="13" speed="27.78" disallow="pedestrian bicycle tram rail_urban rail rail_electric rail_fast ship" oneway="0"/>
    <type id="highway.trunk_link" priority="8" speed="22.22" disallow="pedestrian bicycle tram rail_urban rail rail_electric rail_fast ship" oneway="0"/>
    <type id="highway.unclassified" priority="4" speed="13.89" disallow="pedestrian tram rail_urban rail rail_electric rail_fast ship" oneway="0"/>
    <type id="highway.unsurfaced" priority="1" speed="8.33" disallow="tram rail_urban rail rail_electric rail_fast ship" oneway="0"/>
    <type id="railway.highspeed" priority="21" speed="69.44" allow="rail_fast" oneway="1"/>
    <type id="railway.light_rail" priority="19" speed="27.78" allow="rail_urban" oneway="1"/>
    <type id="railway.preserved" priority="16" speed="27.78" allow="rail" oneway="1"/>
    <type id="railway.rail" priority="20" speed="44.44" allow="rail" oneway="1"/>
    <type id="railway.subway" priority="18" speed="27.78" allow="rail_urban" oneway="1"/>
    <type id="railway.tram" priority="17" speed="13.89" allow="tram" oneway="1"/>

    <edge id=":21_0" function="internal">
        <lane id=":21_0_0" index="0" disallow="pedestrian tram rail_urban rail rail_electric rail_fast ship" speed="36.11" length="0.22" width="3.50" shape="842.88,983.35 842.95,983.56"/>
    </edge>
    <edge id=":35_0" function="internal">
        <lane id=":35_0_0" index="0" disallow="pedestrian tram rail_urban rail rail_electric rail_fast ship" speed="36.11" length="2.92" width="3.50" shape="840.11,985.95 839.14,983.20"/>
    </edge>
    <edge id=":49_0" function="internal">
        <lane id=":49_0_0" index="0" disallow="pedestrian tram rail_urban rail rail_electric rail_fast ship" speed="11.05" length="28.22" width="3.50" shape="824.11,943.71 822.93,942.01 821.55,940.32 820.01,938.78 818.29,937.43 817.37,936.86 816.40,936.35 815.39,935.93 814.36,935.59 813.30,935.34 812.22,935.19 811.13,935.12 808.95,935.25 806.81,935.68 804.74,936.36 802.74,937.23 799.89,938.80"/>
    </edge>
    <edge id=":49_1" function="internal">
        <lane id=":49_1_0" index="0" disallow="pedestrian tram rail_urban rail rail_electric rail_fast ship" speed="36.11" length="38.28" width="3.50" shape="824.11,943.71 806.09,915.96 803.34,911.56"/>
    </edge>
    <edge id=":49_2" function="internal">
        <lane id=":49_2_0" index="0" disallow="pedestrian tram rail_urban rail rail_electric rail_fast ship" speed="36.11" length="38.32" width="3.50" shape="806.32,909.72 809.05,914.09 827.11,941.91"/>
    </edge>
    <edge id=":49_3" function="internal">
        <lane id=":49_3_0" index="0" disallow="pedestrian tram rail_urban rail rail_electric rail_fast ship" speed="12.16" length="34.06" width="3.50" shape="806.32,909.72 807.57,911.91 808.68,914.21 809.59,916.63 810.24,919.17 810.56,921.77 810.57,923.14 810.47,924.49 810.26,925.83 809.92,927.15 809.47,928.43 808.92,929.67 808.27,930.84 807.52,931.98 805.87,934.00 804.00,935.80 801.99,937.39 799.89,938.80"/>
    </edge>
    <edge id=":49_4" function="internal">
        <lane id=":49_4_0" index="0" disallow="pedestrian tram rail_urban rail rail_electric rail_fast ship" speed="11.16" length="28.47" width="3.50" shape="798.05,935.82 799.86,934.61 801.58,933.25 803.15,931.73 804.54,930.03 805.14,929.11 805.67,928.15 806.11,927.15 806.47,926.12 806.74,925.05 806.91,923.97 806.99,922.88 806.97,921.78 806.70,919.61 806.15,917.48 805.38,915.43 804.43,913.46 803.34,911.56"/>
    </edge>
    <edge id=":49_5" function="internal">
        <lane id=":49_5_0" index="0" disallow="pedestrian tram rail_urban rail rail_electric rail_fast ship" speed="12.06" length="33.85" width="3.50" shape="798.05,935.82 801.33,934.01 803.68,932.99 806.14,932.20 808.71,931.69 811.33,931.54 812.70,931.62 814.04,931.82 815.35,932.13 816.63,932.55 817.87,933.08 819.05,933.70 820.20,934.43 822.23,936.03 824.06,937.86 825.68,939.84 827.11,941.91"/>
    </edge>
    <edge id=":50_0" function="internal">
        <lane id=":50_0_0" index="0" disallow="pedestrian tram rail_urban rail rail_electric rail_fast ship" speed="8.82" length="17.54" width="3.50" shape="853.52,824.25 850.72,826.35 848.55,828.31 846.63,830.51 845.34,832.46 844.36,834.58 843.88,836.27 843.64,838.02"/>
    </edge>
    <edge id=":50_1" function="internal">
        <lane id=":50_1_0" index="0" disallow="pedestrian tram rail_urban rail rail_electric rail_fast ship" speed="36.11" length="38.24" width="3.50" shape="853.52,824.25 852.68,824.82 836.57,836.07 822.36,846.42"/>
    </edge>
    <edge id=":50_2" function="internal">
        <lane id=":50_2_0" index="0" disallow="pedestrian tram rail_urban rail rail_electric rail_fast ship" speed="12.24" length="34.13" width="3.50" shape="853.52,824.25 852.45,824.95 850.25,826.23 847.91,827.32 845.43,828.18 842.86,828.71 841.49,828.83 840.13,828.85 838.78,828.75 837.44,828.53 836.12,828.20 834.84,827.75 833.61,827.21 832.40,826.57 830.24,825.10 828.27,823.39 826.49,821.52 824.16,818.52"/>
    </edge>
    <edge id=":50_3" function="internal">
        <lane id=":50_3_0" index="0" disallow="pedestrian tram rail_urban rail rail_electric rail_fast ship" speed="11.23" length="28.60" width="3.50" shape="827.02,816.51 829.05,819.12 830.56,820.72 832.22,822.16 834.04,823.40 835.01,823.92 836.02,824.36 837.06,824.72 838.12,825.00 839.21,825.17 840.31,825.26 841.41,825.25 842.50,825.15 844.66,824.71 846.74,824.00 848.73,823.06 850.63,821.96 851.55,821.36"/>
    </edge>
    <edge id=":50_4" function="internal">
        <lane id=":50_4_0" index="0" disallow="pedestrian tram rail_urban rail rail_electric rail_fast ship" speed="36.11" length="27.20" width="3.50" shape="827.02,816.51 831.52,823.30 841.41,839.59"/>
    </edge>
    <edge id=":50_5" function="internal">
        <lane id=":50_5_0" index="0" disallow="pedestrian tram rail_urban rail rail_electric rail_fast ship" speed="12.34" length="34.50" width="3.50" shape="827.02,816.51 829.07,819.76 830.22,822.04 831.14,824.42 831.79,826.89 832.11,829.42 832.12,830.70 832.03,831.97 831.84,833.24 831.55,834.48 830.67,836.88 829.45,839.12 827.95,841.19 826.24,843.08 824.37,844.82 822.36,846.42"/>
    </edge>
    <edge id=":50_6" function="internal">
        <lane id=":50_6_0" index="0" disallow="pedestrian tram rail_urban rail rail_electric rail_fast ship" speed="11.35" length="29.02" width="3.50" shape="820.27,843.61 822.02,842.22 823.64,840.72 825.10,839.11 826.35,837.37 827.36,835.52 828.08,833.53 828.31,832.56 828.46,831.54 828.53,830.51 828.52,829.50 828.26,827.39 827.72,825.32 826.93,823.31 825.95,821.36 824.16,818.52"/>
    </edge>
    <edge id=":50_7" function="internal">
        <lane id=":50_7_0" index="0" disallow="pedestrian tram rail_urban rail rail_electric rail_fast ship" speed="36.11" length="38.39" width="3.50" shape="820.27,843.61 834.53,833.22 850.70,821.94 851.55,821.36"/>
    </edge>
    <edge id=":50_8" function="internal">
        <lane id=":50_8_0" index="0" disallow="pedestrian tram rail_urban rail rail_electric rail_fast ship" speed="9.52" length="20.75" width="3.50" shape="820.27,843.61 823.19,841.67 825.78,840.34 827.96,839.53 830.23,839.02 832.56,838.85 834.30,838.99 836.01,839.36 838.19,840.17 839.52,840.92"/>
    </edge>
    <edge id=":51_0" function="internal">
        <lane id=":51_0_0" index="0" disallow="pedestrian tram rail_urban rail rail_electric rail_fast ship" speed="36.11" length="38.82" width="3.50" shape="748.29,897.43 722.05,915.17 716.10,919.13"/>
    </edge>
    <edge id=":51_1" function="internal">
        <lane id=":51_1_0" index="0" disallow="pedestrian tram rail_urban rail rail_electric rail_fast ship" speed="12.20" length="33.89" width="3.50" shape="748.29,897.43 746.16,898.79 743.91,899.98 741.52,900.97 739.01,901.69 736.41,902.06 735.04,902.10 733.70,902.02 732.36,901.82 731.05,901.51 729.77,901.09 728.54,900.57 727.33,899.95 725.16,898.52 723.19,896.84 721.40,894.99 719.07,892.02"/>
    </edge>
    <edge id=":51_2" function="internal">
        <lane id=":51_2_0" index="0" disallow="pedestrian tram rail_urban rail rail_electric rail_fast ship" speed="11.19" length="28.37" width="3.50" shape="721.93,890.00 723.95,892.58 725.46,894.15 727.12,895.56 728.94,896.76 729.91,897.27 730.92,897.69 731.95,898.03 733.02,898.28 734.09,898.44 735.18,898.51 736.27,898.48 738.43,898.18 740.53,897.58 742.55,896.74 744.47,895.72 746.32,894.54"/>
    </edge>
    <edge id=":51_3" function="internal">
        <lane id=":51_3_0" index="0" disallow="pedestrian tram rail_urban rail rail_electric rail_fast ship" speed="12.09" length="34.31" width="3.50" shape="721.93,890.00 724.04,893.35 725.20,895.72 726.10,898.21 726.66,900.78 726.80,902.09 726.82,903.41 726.72,904.73 726.51,906.03 726.18,907.31 725.74,908.55 725.19,909.75 723.82,912.01 722.16,914.06 720.29,915.92 718.25,917.60 716.10,919.13"/>
    </edge>
    <edge id=":51_4" function="internal">
        <lane id=":51_4_0" index="0" disallow="pedestrian tram rail_urban rail rail_electric rail_fast ship" speed="11.08" length="28.63" width="3.50" shape="714.15,916.22 716.04,914.88 717.79,913.43 719.39,911.86 720.78,910.15 721.92,908.27 722.35,907.33 722.70,906.34 722.97,905.32 723.14,904.29 723.22,903.24 723.20,902.18 723.10,901.16 722.63,899.01 721.88,896.93 720.90,894.93 719.07,892.02"/>
    </edge>
    <edge id=":51_5" function="internal">
        <lane id=":51_5_0" index="0" disallow="pedestrian tram rail_urban rail rail_electric rail_fast ship" speed="36.11" length="38.79" width="3.50" shape="714.15,916.22 720.11,912.26 746.32,894.54"/>
    </edge>
    <edge id=":52_0" function="internal">
        <lane id=":52_0_0" index="0" disallow="pedestrian tram rail_urban rail rail_electric rail_fast ship" speed="11.07" length="29.07" width="3.50" shape="790.27,890.38 788.29,887.51 786.81,885.78 785.18,884.24 783.37,882.94 782.45,882.43 781.47,881.98 780.46,881.63 779.43,881.38 778.38,881.22 777.31,881.16 776.24,881.19 775.18,881.31 773.00,881.81 770.88,882.58 768.83,883.57 765.82,885.43"/>
    </edge>
    <edge id=":52_1" function="internal">
        <lane id=":52_1_0" index="0" disallow="pedestrian tram rail_urban rail rail_electric rail_fast ship" speed="12.46" length="34.13" width="3.50" shape="790.27,890.38 788.44,887.04 787.43,884.64 786.65,882.15 786.17,879.54 786.05,876.90 786.15,875.52 786.36,874.17 786.68,872.86 787.12,871.57 787.65,870.33 788.28,869.11 789.74,866.93 791.45,864.94 793.35,863.16 796.35,860.87"/>
    </edge>
    <edge id=":52_2" function="internal">
        <lane id=":52_2_0" index="0" disallow="pedestrian tram rail_urban rail rail_electric rail_fast ship" speed="11.47" length="28.77" width="3.50" shape="798.37,863.73 795.72,865.75 794.11,867.26 792.66,868.94 791.44,870.78 790.93,871.76 790.49,872.78 790.14,873.83 789.88,874.90 789.71,876.00 789.63,877.10 789.72,879.31 790.13,881.48 790.79,883.60 791.66,885.63 793.25,888.54"/>
    </edge>
    <edge id=":52_3" function="internal">
        <lane id=":52_3_0" index="0" disallow="pedestrian tram rail_urban rail rail_electric rail_fast ship" speed="36.11" length="39.12" width="3.50" shape="798.37,863.73 781.22,875.13 765.82,885.43"/>
    </edge>
    <edge id=":52_4" function="internal">
        <lane id=":52_4_0" index="0" disallow="pedestrian tram rail_urban rail rail_electric rail_fast ship" speed="36.11" length="39.07" width="3.50" shape="763.84,882.54 779.26,872.23 796.35,860.87"/>
    </edge>
    <edge id=":52_5" function="internal">
        <lane id=":52_5_0" index="0" disallow="pedestrian tram rail_urban rail rail_electric rail_fast ship" speed="12.08" length="34.84" width="3.50" shape="763.84,882.54 767.29,880.42 769.70,879.25 772.22,878.34 774.83,877.74 776.16,877.59 777.50,877.55 778.83,877.63 780.16,877.83 781.46,878.15 782.72,878.60 783.94,879.15 785.11,879.80 787.28,881.37 789.22,883.21 790.97,885.24 793.25,888.54"/>
    </edge>
    <edge id=":53_0" function="internal">
        <lane id=":53_0_0" index="0" disallow="pedestrian tram rail_urban rail rail_electric rail_fast ship" speed="11.56" length="28.98" width="3.50" shape="687.63,847.48 685.63,844.95 684.13,843.41 682.48,842.04 680.68,840.87 678.74,839.96 676.68,839.35 674.56,839.07 672.41,839.10 670.29,839.42 668.21,839.98 666.21,840.74 663.32,842.17 662.39,842.71"/>
    </edge>
    <edge id=":53_1" function="internal">
        <lane id=":53_1_0" index="0" disallow="pedestrian tram rail_urban rail rail_electric rail_fast ship" speed="36.11" length="38.64" width="3.50" shape="687.63,847.48 672.71,826.09 667.52,818.27 665.92,815.53"/>
    </edge>
    <edge id=":53_2" function="internal">
        <lane id=":53_2_0" index="0" disallow="pedestrian tram rail_urban rail rail_electric rail_fast ship" speed="36.11" length="37.83" width="3.50" shape="669.16,814.18 670.58,816.58 675.71,824.27 690.47,845.43"/>
    </edge>
    <edge id=":53_3" function="internal">
        <lane id=":53_3_0" index="0" disallow="pedestrian tram rail_urban rail rail_electric rail_fast ship" speed="12.54" length="34.27" width="3.50" shape="660.57,839.71 661.68,839.07 664.96,837.45 667.32,836.57 669.77,835.91 672.30,835.54 674.89,835.51 677.48,835.86 679.98,836.61 682.33,837.71 684.48,839.11 686.43,840.74 688.19,842.55 690.47,845.43"/>
    </edge>

    <edge id="55913" from="49" to="52" priority="3" type="highway.residential" spreadType="center" length="24.89" shape="808.24,931.04 783.06,879.30">
        <lane id="55913_0" index="0" disallow="pedestrian tram rail_urban rail rail_electric rail_fast ship" speed="36.11" length="24.89" width="3.50" customShape="1" shape="803.34,911.56 796.81,900.97 790.27,890.38"/>
    </edge>
    <edge id="55914" from="52" to="49" priority="3" type="highway.residential" spreadType="center" length="24.90" shape="786.20,877.77 811.39,929.50">
        <lane id="55914_0" index="0" disallow="pedestrian tram rail_urban rail rail_electric rail_fast ship" speed="36.11" length="24.90" width="3.50" customShape="1" shape="793.25,888.54 799.78,899.13 806.32,909.73"/>
    </edge>
    <edge id="55916" from="35" to="49" priority="3" type="highway.residential" spreadType="center" length="42.43" shape="839.60,984.59 808.28,931.11">
        <lane id="55916_0" index="0" disallow="pedestrian tram rail_urban rail rail_electric rail_fast ship" speed="36.11" length="42.43" width="3.50" customShape="1" shape="839.14,983.20 837.23,977.39 833.13,963.40 831.20,957.68 829.28,953.04 827.01,948.55 824.11,943.71"/>
    </edge>
    <edge id="55917" from="49" to="21" priority="3" type="highway.residential" spreadType="center" length="44.52" shape="811.30,929.34 842.91,983.46">
        <lane id="55917_0" index="0" disallow="pedestrian tram rail_urban rail rail_electric rail_fast ship" speed="36.11" length="44.52" width="3.50" customShape="1" shape="827.11,941.91 830.04,946.81 832.40,951.45 834.40,956.25 836.39,962.11 840.54,976.25 842.88,983.35"/>
    </edge>
    <edge id="55979" from="50" to="29" priority="3" type="highway.residential" spreadType="center" length="70.00" shape="833.69,832.25 787.33,759.38">
        <lane id="55979_0" index="0" disallow="pedestrian tram rail_urban rail rail_electric rail_fast ship" speed="36.11" length="70.00" width="3.50" customShape="1" shape="824.16,818.52 798.25,781.60 795.81,778.36 794.45,776.23 791.96,771.24 789.60,765.64 787.33,759.38"/>
    </edge>
    <edge id="55980" from="39" to="50" priority="3" type="highway.residential" spreadType="center" length="69.99" shape="790.30,757.33 836.64,830.38">
        <lane id="55980_0" index="0" disallow="pedestrian tram rail_urban rail rail_electric rail_fast ship" speed="36.11" length="69.99" width="3.50" customShape="1" shape="790.30,757.33 792.78,764.15 795.09,769.65 797.49,774.49 798.77,776.48 801.17,779.68 827.03,816.51"/>
    </edge>
    <edge id="56076" from="51" to="24" priority="3" type="highway.residential" spreadType="center" length="70.00" shape="728.74,902.92 657.88,958.00">
        <lane id="56076_0" index="0" disallow="pedestrian tram rail_urban rail rail_electric rail_fast ship" speed="36.11" length="70.00" width="3.50" customShape="1" shape="716.10,919.13 657.88,958.00"/>
    </edge>
    <edge id="56077" from="40" to="51" priority="3" type="highway.residential" spreadType="center" length="70.00" shape="655.93,955.09 726.59,900.16">
        <lane id="56077_0" index="0" disallow="pedestrian tram rail_urban rail rail_electric rail_fast ship" speed="36.11" length="70.00" width="3.50" customShape="1" shape="655.93,955.09 714.15,916.22"/>
    </edge>
    <edge id="56079" from="52" to="51" priority="3" type="highway.residential" spreadType="center" length="21.27" shape="785.35,880.18 728.29,903.18">
        <lane id="56079_0" index="0" disallow="pedestrian tram rail_urban rail rail_electric rail_fast ship" speed="36.11" length="21.27" width="3.50" customShape="1" shape="765.82,885.43 757.07,891.42 748.27,897.44"/>
    </edge>
    <edge id="56080" from="51" to="52" priority="3" type="highway.residential" spreadType="center" length="21.27" shape="726.98,899.94 784.05,876.94">
        <lane id="56080_0" index="0" disallow="pedestrian tram rail_urban rail rail_electric rail_fast ship" speed="36.11" length="21.27" width="3.50" customShape="1" shape="746.32,894.54 755.09,888.53 763.87,882.52"/>
    </edge>
    <edge id="56082" from="50" to="52" priority="3" type="highway.residential" spreadType="center" length="29.61" shape="836.34,832.56 785.82,879.89">
        <lane id="56082_0" index="0" disallow="pedestrian tram rail_urban rail rail_electric rail_fast ship" speed="36.11" length="29.61" width="3.50" customShape="1" shape="822.36,846.42 810.04,855.50 798.35,863.74"/>
    </edge>
    <edge id="56083" from="52" to="50" priority="3" type="highway.residential" spreadType="center" length="29.52" shape="783.43,877.33 833.95,830.01">
        <lane id="56083_0" index="0" disallow="pedestrian tram rail_urban rail rail_electric rail_fast ship" speed="36.11" length="29.52" width="3.50" customShape="1" shape="796.35,860.87 808.00,852.65 820.29,843.60"/>
    </edge>
    <edge id="56085" from="41" to="50" priority="3" type="highway.residential" spreadType="center" length="70.00" shape="911.34,784.79 836.06,832.78">
        <lane id="56085_0" index="0" disallow="pedestrian tram rail_urban rail rail_electric rail_fast ship" speed="36.11" length="70.00" width="3.50" customShape="1" shape="911.34,784.79 887.36,801.16 853.52,824.25"/>
    </edge>
    <edge id="56086" from="50" to="31" priority="3" type="highway.residential" spreadType="center" length="70.00" shape="834.18,829.83 909.37,781.90">
        <lane id="56086_0" index="0" disallow="pedestrian tram rail_urban rail rail_electric rail_fast ship" speed="36.11" length="70.00" width="3.50" customShape="1" shape="851.55,821.36 885.38,798.27 909.37,781.90"/>
    </edge>
    <edge id="56123" from="33" to="49" priority="3" type="highway.residential" spreadType="center" length="44.06" shape="760.58,958.98 808.93,928.76">
        <lane id="56123_0" index="0" disallow="pedestrian tram rail_urban rail rail_electric rail_fast ship" speed="36.11" length="44.06" width="3.50" customShape="1" shape="760.58,958.98 779.31,947.40 798.06,935.82"/>
    </edge>
    <edge id="56124" from="49" to="20" priority="3" type="highway.residential" spreadType="center" length="44.04" shape="810.79,931.72 762.42,961.95">
        <lane id="56124_0" index="0" disallow="pedestrian tram rail_urban rail rail_electric rail_fast ship" speed="36.11" length="44.04" width="3.50" customShape="1" shape="799.89,938.80 781.15,950.38 762.42,961.95"/>
    </edge>
    <edge id="56187" from="48" to="53" priority="3" type="highway.residential" spreadType="center" length="70.01" shape="600.63,875.86 671.80,832.64">
        <lane id="56187_0" index="0" disallow="pedestrian tram rail_urban rail rail_electric rail_fast ship" speed="36.11" length="70.01" width="3.50" customShape="1" shape="600.63,875.86 660.58,839.71"/>
    </edge>
    <edge id="56188" from="53" to="44" priority="3" type="highway.residential" spreadType="center" length="70.00" shape="673.62,835.63 602.44,878.85">
        <lane id="56188_0" index="0" disallow="pedestrian tram rail_urban rail rail_electric rail_fast ship" speed="36.11" length="70.00" width="3.50" customShape="1" shape="662.39,842.71 602.44,878.85"/>
    </edge>
    <edge id="56197" from="50" to="32" priority="3" type="highway.residential" spreadType="center" length="80.44">
        <lane id="56197_0" index="0" disallow="pedestrian tram rail_urban rail rail_electric rail_fast ship" speed="36.11" length="80.44" width="3.50" customShape="1" shape="841.12,839.79 862.73,870.53 870.84,882.64 877.81,893.70 884.72,905.38 885.51,906.82"/>
    </edge>
    <edge id="56271" from="53" to="51" priority="3" type="highway.residential" spreadType="center" length="54.55" shape="674.01,833.02 728.99,900.46">
        <lane id="56271_0" index="0" disallow="pedestrian tram rail_urban rail rail_electric rail_fast ship" speed="36.11" length="54.55" width="3.50" customShape="1" shape="690.47,845.43 706.21,867.73 721.93,890.00"/>
    </edge>
    <edge id="56272" from="51" to="53" priority="3" type="highway.residential" spreadType="center" length="54.55" shape="726.28,902.67 671.30,835.23">
        <lane id="56272_0" index="0" disallow="pedestrian tram rail_urban rail rail_electric rail_fast ship" speed="36.11" length="54.55" width="3.50" customShape="1" shape="719.07,892.02 703.35,869.75 687.61,847.45"/>
    </edge>
    <edge id="56274" from="47" to="53" priority="3" type="highway.residential" spreadType="center" length="70.14" shape="649.76,746.82 674.37,833.71">
        <lane id="56274_0" index="0" disallow="pedestrian tram rail_urban rail rail_electric rail_fast ship" speed="36.11" length="70.14" width="3.50" customShape="1" shape="649.76,746.82 654.76,763.86 658.88,778.37 660.99,787.18 662.90,794.48 665.63,804.68 667.37,809.93 669.14,814.18"/>
    </edge>
    <edge id="56275" from="53" to="45" priority="3" type="highway.residential" spreadType="center" length="70.00" shape="671.00,834.66 646.55,748.31">
        <lane id="56275_0" index="0" disallow="pedestrian tram rail_urban rail rail_electric rail_fast ship" speed="36.11" length="70.00" width="3.50" customShape="1" shape="665.92,815.53 664.14,811.26 662.34,805.89 659.57,795.60 657.65,788.25 655.54,779.43 651.43,764.91 646.55,748.31"/>
    </edge>
    <edge id="56838" from="21" to="34" priority="3" type="highway.residential" spreadType="center" length="28.42">
        <lane id="56838_0" index="0" disallow="pedestrian tram rail_urban rail rail_electric rail_fast ship" speed="36.11" length="28.42" width="3.50" customShape="1" shape="842.95,983.56 844.06,986.54 844.98,988.54 846.04,990.46 847.28,992.28 848.71,993.94 849.51,994.70 850.36,995.39 851.26,996.01 852.22,996.55 853.23,996.99 854.27,997.35 855.33,997.60 856.42,997.76 858.62,997.80 860.79,997.53 862.93,997.00 863.95,996.67"/>
    </edge>
    <edge id="57071" from="46" to="35" priority="3" type="highway.residential" spreadType="center" length="32.69">
        <lane id="57071_0" index="0" disallow="pedestrian tram rail_urban rail rail_electric rail_fast ship" speed="36.11" length="32.69" width="3.50" customShape="1" shape="865.11,999.97 863.89,1000.37 861.39,1000.99 858.77,1001.33 856.12,1001.31 854.74,1001.13 853.41,1000.84 852.10,1000.42 850.84,999.89 849.64,999.24 848.50,998.49 847.44,997.65 846.44,996.72 844.71,994.76 843.23,992.62 841.98,990.39 840.91,988.07 840.11,985.95"/>
    </edge>

    <junction id="20" type="dead_end" x="762.42" y="961.95" incLanes="56124_0" intLanes="" shape="763.34,963.44 761.50,960.46" rightOfWay="edgePriority"/>
    <junction id="21" type="priority" x="842.91" y="983.46" incLanes="55917_0" intLanes=":21_0_0" shape="841.31,984.17 844.59,982.95 844.54,982.80 841.21,983.90" rightOfWay="edgePriority">
        <request index="0" response="0" foes="0" cont="0"/>
    </junction>
    <junction id="24" type="dead_end" x="657.88" y="958.00" incLanes="56076_0" intLanes="" shape="658.85,959.45 656.91,956.54" rightOfWay="edgePriority"/>
    <junction id="29" type="dead_end" x="787.33" y="759.38" incLanes="55979_0" intLanes="" shape="785.68,759.97 788.97,758.78" rightOfWay="edgePriority"/>
    <junction id="31" type="dead_end" x="909.37" y="781.90" incLanes="56086_0" intLanes="" shape="908.38,780.45 910.35,783.34" rightOfWay="edgePriority"/>
    <junction id="32" type="dead_end" x="885.51" y="906.82" incLanes="56197_0" intLanes="" shape="887.04,905.98 883.98,907.67" rightOfWay="edgePriority"/>
    <junction id="33" type="dead_end" x="760.58" y="958.98" incLanes="" intLanes="" shape="761.50,960.46 759.66,957.49" rightOfWay="edgePriority"/>
    <junction id="34" type="dead_end" x="863.95" y="996.67" incLanes="56838_0" intLanes="" shape="863.41,995.00 864.49,998.33" rightOfWay="edgePriority"/>
    <junction id="35" type="priority" x="839.60" y="984.59" incLanes="57071_0" intLanes=":35_0_0" shape="838.47,986.57 841.75,985.34 840.80,982.65 837.48,983.75" rightOfWay="edgePriority">
        <request index="0" response="0" foes="0" cont="0"/>
    </junction>