<routes>
	<vehicle depart="0.1" departLane="0" departPos="22.841346944178504" departSpeed="8.0211089" id="35" type="passenger">
		<route edges="55914 56124"/>
	</vehicle>
	<vehicle depart="0.1" departLane="0" departPos="9.9782605986439" departSpeed="8.7617019" id="320" type="passenger">
		<route edges=":49_2 55917 56838"/>
	</vehicle>
	<vehicle depart="0.1" departLane="0" departPos="25.00055651284782" departSpeed="8.9784349" id="330" type="passenger">
		<route edges=":49_3 56124"/>
	</vehicle>
	<vehicle depart="0.1" departLane="0" departPos="22.931710257336473" departSpeed="0.69853995" id="336" type="passenger">
		<route edges="56123 55917"/>
	</vehicle>
	<vehicle depart="0.1" departLane="0" departPos="17.487555189997515" departSpeed="0.42447564" id="342" type="passenger">
		<route edges="56123 55917"/>
	</vehicle>
	<vehicle depart="0.1" departLane="0" departPos="21.43670675840021" departSpeed="8.424382" id="343" type="passenger">
		<route edges=":49_1 55913 56083"/>
	</vehicle>
	<vehicle depart="0.1" departLane="0" departPos="42.88404095500658" departSpeed="0.0" id="349" type="passenger">
		<route edges="55916 56124"/>
	</vehicle>
	<vehicle depart="0.1" departLane="0" departPos="6.2879038621637955" departSpeed="0.49800133" id="352" type="passenger">
		<route edges="56123 55917"/>
	</vehicle>
	<vehicle depart="0.1" departLane="0" departPos="36.8229155475444" departSpeed="0.17997657" id="324" type="motorcycle">
		<route edges="56123 55917"/>
	</vehicle>
	<vehicle depart="0.1" departLane="0" departPos="28.24947920978202" departSpeed="0.12034849" id="326" type="motorcycle">
		<route edges="56123 55917"/>
	</vehicle>
</routes>
