<routes>
	<vehicle depart="0.1" departLane="0" departPos="57.527792612018004" departSpeed="0.0" id="310" type="bicycle">
		<route edges="70 43"/>
	</vehicle>
	<vehicle depart="0.1" departLane="0" departPos="45.412477745740865" departSpeed="0.0" id="334" type="bicycle">
		<route edges="20 35"/>
	</vehicle>
	<vehicle depart="0.1" departLane="0" departPos="6.22063489283369" departSpeed="2.5482766" id="372" type="bicycle">
		<route edges="34 23"/>
	</vehicle>
	<vehicle depart="0.1" departLane="0" departPos="22.365257870535295" departSpeed="8.0428933" id="333" type="bus">
		<route edges="268 271"/>
	</vehicle>
	<vehicle depart="0.1" departLane="0" departPos="22.594923398776675" departSpeed="0.030188902" id="355" type="bus">
		<route edges="70 43"/>
	</vehicle>
	<vehicle depart="0.1" departLane="0" departPos="50.296472733028835" departSpeed="7.955344" id="369" type="bus">
		<route edges="68 71"/>
	</vehicle>
	<vehicle depart="0.1" departLane="0" departPos="17.23231341675372" departSpeed="4.10382" id="376" type="bus">
		<route edges="68 71"/>
	</vehicle>
	<vehicle depart="0.1" departLane="0" departPos="60.906396046563394" departSpeed="0.0" id="37" type="passenger">
		<route edges="34 23"/>
	</vehicle>
	<vehicle depart="0.1" departLane="0" departPos="79.50204166143433" departSpeed="10.592128" id="38" type="passenger">
		<route edges="22 35"/>
	</vehicle>
	<vehicle depart="0.1" departLane="0" departPos="16.980271548075287" departSpeed="0.0" id="312" type="passenger">
		<route edges="44 67"/>
	</vehicle>
	<vehicle depart="0.1" departLane="0" departPos="68.380640659947" departSpeed="11.5761" id="315" type="passenger">
		<route edges="268 271"/>
	</vehicle>
	<vehicle depart="0.1" departLane="0" departPos="11.987842066195181" departSpeed="11.391103" id="319" type="passenger">
		<route edges="22 19"/>
	</vehicle>
	<vehicle depart="0.1" departLane="0" departPos="23.935877829942502" departSpeed="0.0" id="321" type="passenger">
		<route edges="44 67"/>
	</vehicle>
	<vehicle depart="0.1" departLane="0" departPos="57.78504427279424" departSpeed="0.0" id="324" type="passenger">
		<route edges="70 43"/>
	</vehicle>
	<vehicle depart="0.1" departLane="0" departPos="53.937574694161725" departSpeed="0.0" id="325" type="passenger">
		<route edges="34 23"/>
	</vehicle>
	<vehicle depart="0.1" departLane="0" departPos="10.105692454942483" departSpeed="0.0" id="327" type="passenger">
		<route edges="44 67"/>
	</vehicle>
	<vehicle depart="0.1" departLane="0" departPos="46.78996413181062" departSpeed="0.0" id="328" type="passenger">
		<route edges="34 23"/>
	</vehicle>
	<vehicle depart="0.1" departLane="0" departPos="50.587454077528534" departSpeed="1.086019e-05" id="330" type="passenger">
		<route edges="70 43"/>
	</vehicle>
	<vehicle depart="0.1" departLane="0" departPos="43.53658760906622" departSpeed="0.00017374788" id="336" type="passenger">
		<route edges="70 43"/>
	</vehicle>
	<vehicle depart="0.1" departLane="0" departPos="77.23051205629582" departSpeed="18.037699" id="337" type="passenger">
		<route edges="267 264 71"/>
	</vehicle>
	<vehicle depart="0.1" departLane="0" departPos="35.19212446208414" departSpeed="0.00050045514" id="338" type="passenger">
		<route edges="34 23"/>
	</vehicle>
	<vehicle depart="0.1" departLane="0" departPos="10.406023643049924" departSpeed="7.7135078" id="339" type="passenger">
		<route edges=":41_2 268 271"/>
	</vehicle>
	<vehicle depart="0.1" departLane="0" departPos="55.093075919509246" departSpeed="16.445365" id="341" type="passenger">
		<route edges="267 22 19"/>
	</vehicle>
	<vehicle depart="0.1" departLane="0" departPos="36.43518603550144" departSpeed="0.0014860824" id="342" type="passenger">
		<route edges="70 43"/>
	</vehicle>
	<vehicle depart="0.1" departLane="0" departPos="50.94258792908285" departSpeed="14.887954" id="346" type="passenger">
		<route edges="35"/>
	</vehicle>
	<vehicle depart="0.1" departLane="0" departPos="29.326261477440564" departSpeed="0.0078560612" id="347" type="passenger">
		<route edges="70 43"/>
	</vehicle>
	<vehicle depart="0.1" departLane="0" departPos="7.221198965477833" departSpeed="11.937188" id="349" type="passenger">
		<route edges="267 264 71"/>
	</vehicle>
	<vehicle depart="0.1" departLane="0" departPos="28.223083705602455" departSpeed="0.0026734063" id="351" type="passenger">
		<route edges="34 23"/>
	</vehicle>
	<vehicle depart="0.1" departLane="0" departPos="21.172203417611293" departSpeed="0.011345452" id="353" type="passenger">
		<route edges="34 23"/>
	</vehicle>
	<vehicle depart="0.1" departLane="0" departPos="7.756958975657469" departSpeed="10.857206" id="354" type="passenger">
		<route edges=":44_3 267 22"/>
	</vehicle>
	<vehicle depart="0.1" departLane="0" departPos="17.97777462513798" departSpeed="13.202771" id="356" type="passenger">
		<route edges="23 264"/>
	</vehicle>
	<vehicle depart="0.1" departLane="0" departPos="13.958931868039402" departSpeed="0.037786035" id="357" type="passenger">
		<route edges="34 23"/>
	</vehicle>
	<vehicle depart="0.1" departLane="0" departPos="45.569357933284934" departSpeed="0.0" id="361" type="passenger">
		<route edges="20 35"/>
	</vehicle>
	<vehicle depart="0.1" departLane="0" departPos="46.82673680816665" departSpeed="8.9104462" id="362" type="passenger">
		<route edges="270 267 22"/>
	</vehicle>
	<vehicle depart="0.1" departLane="0" departPos="10.844934353458466" departSpeed="8.7258691" id="364" type="passenger">
		<route edges=":43_3 43"/>
	</vehicle>
	<vehicle depart="0.1" departLane="0" departPos="36.47813809628463" departSpeed="2.1663692" id="365" type="passenger">
		<route edges="20 35"/>
	</vehicle>
	<vehicle depart="0.1" departLane="0" departPos="8.407259792551075" departSpeed="0.088116155" id="366" type="passenger">
		<route edges="70 43"/>
	</vehicle>
	<vehicle depart="0.1" departLane="0" departPos="66.03134620976763" departSpeed="8.4759535" id="367" type="passenger">
		<route edges="68 71"/>
	</vehicle>
	<vehicle depart="0.1" departLane="0" departPos="32.46548985467517" departSpeed="7.9083708" id="368" type="passenger">
		<route edges="270 267 22"/>
	</vehicle>
	<vehicle depart="0.1" departLane="0" departPos="25.273254215769548" departSpeed="3.7187076" id="370" type="passenger">
		<route edges="20 35"/>
	</vehicle>
	<vehicle depart="0.1" departLane="0" departPos="28.86027999688564" departSpeed="7.2743792" id="371" type="passenger">
		<route edges="68 71"/>
	</vehicle>
	<vehicle depart="0.1" departLane="0" departPos="86.64931857826546" departSpeed="0.0" id="332" type="motorcycle">
		<route edges="23 264"/>
	</vehicle>
	<vehicle depart="0.1" departLane="0" departPos="39.65158600477233" departSpeed="6.7978056e-05" id="335" type="motorcycle">
		<route edges="34 23"/>
	</vehicle>
	<vehicle depart="0.1" departLane="0" departPos="83.15669981141035" departSpeed="6.4589553" id="343" type="motorcycle">
		<route edges="23 264"/>
	</vehicle>
	<vehicle depart="0.1" departLane="0" departPos="6.588734545333305" departSpeed="0.10202878" id="363" type="motorcycle">
		<route edges="34 23"/>
	</vehicle>
	<vehicle depart="0.1" departLane="0" departPos="1.25" departSpeed="1.3616051" id="378" type="motorcycle">
		<route edges="68 43"/>
	</vehicle>
	<vehicle depart="0.1" departLane="0" departPos="33.61572065945522" departSpeed="0.0" id="30" type="truck">
		<route edges="44 67"/>
	</vehicle>
	<vehicle depart="0.1" departLane="0" departPos="14.239258055283859" departSpeed="3.6928718" id="375" type="truck">
		<route edges="20 35"/>
	</vehicle>
</routes>
