<!-- generated on Tue Feb  9 22:01:33 2021 by Eclipse SUMO netconvert Version 1.8.0
<configuration xmlns:xsi="http://www.w3.org/2001/XMLSchema-instance" xsi:noNamespaceSchemaLocation="http://sumo.dlr.de/xsd/netconvertConfiguration.xsd">

    <input>
        <node-files value="./converted_scenarios/scenario-factory/DEU_Guetersloh-50_1_I-1-1/DEU_Guetersloh-50_1_I-1-1.nod.xml"/>
        <edge-files value="./converted_scenarios/scenario-factory/DEU_Guetersloh-50_1_I-1-1/DEU_Guetersloh-50_1_I-1-1.edg.xml"/>
        <connection-files value="./converted_scenarios/scenario-factory/DEU_Guetersloh-50_1_I-1-1/DEU_Guetersloh-50_1_I-1-1.con.xml"/>
        <tllogic-files value="./converted_scenarios/scenario-factory/DEU_Guetersloh-50_1_I-1-1/DEU_Guetersloh-50_1_I-1-1.tll.xml"/>
        <type-files value="/home/zen/commonroad-interactive-benchmarks/install/commonroad-map-tool/crmapconverter/sumo_map/templates/DEU.typ.xml"/>
    </input>

    <output>
        <output-file value="./converted_scenarios/scenario-factory/DEU_Guetersloh-50_1_I-1-1/DEU_Guetersloh-50_1_I-1-1.net.xml"/>
    </output>

    <processing>
        <geometry.remove.keep-edges.explicit value="true"/>
        <geometry.avoid-overlap value="true"/>
        <offset.disable-normalization value="true"/>
    </processing>

    <junctions>
        <no-turnarounds value="true"/>
        <junctions.internal-link-detail value="20"/>
    </junctions>

    <report>
        <aggregate-warnings value="5"/>
    </report>

    <random_number>
        <seed value="1234"/>
    </random_number>

</configuration>
--><net xmlns:xsi="http://www.w3.org/2001/XMLSchema-instance" version="1.6" junctionCornerDetail="5" junctionLinkDetail="20" limitTurnSpeed="5.50" xsi:noNamespaceSchemaLocation="http://sumo.dlr.de/xsd/net_file.xsd">

    <location netOffset="0.00,0.00" convBoundary="-622.32,-795.50,-502.01,-623.32" origBoundary="-625.94,-795.50,-502.01,-623.32" projParameter="!"/>

    <type id="highway.bridleway" priority="1" speed="2.78" allow="pedestrian" oneway="1" width="2.00"/>
    <type id="highway.bus_guideway" priority="1" speed="27.78" allow="bus" oneway="1"/>
    <type id="highway.cycleway" priority="1" speed="8.33" allow="bicycle" oneway="0" width="1.00"/>
    <type id="highway.footway" priority="1" speed="2.78" allow="pedestrian" oneway="1" width="2.00"/>
    <type id="highway.ford" priority="1" speed="2.78" allow="army" oneway="0"/>
    <type id="highway.living_street" priority="2" speed="2.78" disallow="tram rail_urban rail rail_electric rail_fast ship" oneway="0"/>
    <type id="highway.motorway" priority="14" speed="39.44" allow="private emergency authority army vip passenger hov taxi bus coach delivery truck trailer motorcycle evehicle custom1 custom2" oneway="1"/>
    <type id="highway.motorway_link" priority="9" speed="22.22" allow="private emergency authority army vip passenger hov taxi bus coach delivery truck trailer motorcycle evehicle custom1 custom2" oneway="1"/>
    <type id="highway.path" priority="1" speed="2.78" allow="pedestrian bicycle" oneway="0" width="2.00"/>
    <type id="highway.pedestrian" priority="1" speed="2.78" allow="pedestrian" oneway="1" width="2.00"/>
    <type id="highway.primary" priority="12" speed="27.78" disallow="pedestrian tram rail_urban rail rail_electric rail_fast ship" oneway="0"/>
    <type id="highway.primary_link" priority="7" speed="22.22" disallow="pedestrian tram rail_urban rail rail_electric rail_fast ship" oneway="0"/>
    <type id="highway.raceway" priority="15" speed="83.33" allow="vip" oneway="0"/>
    <type id="highway.residential" priority="3" speed="13.89" disallow="pedestrian tram rail_urban rail rail_electric rail_fast ship" oneway="0"/>
    <type id="highway.secondary" priority="11" speed="27.78" disallow="pedestrian tram rail_urban rail rail_electric rail_fast ship" oneway="0"/>
    <type id="highway.secondary_link" priority="6" speed="22.22" disallow="pedestrian tram rail_urban rail rail_electric rail_fast ship" oneway="0"/>
    <type id="highway.service" priority="1" speed="5.56" allow="pedestrian delivery bicycle" oneway="0"/>
    <type id="highway.stairs" priority="1" speed="1.39" allow="pedestrian" oneway="1" width="2.00"/>
    <type id="highway.step" priority="1" speed="1.39" allow="pedestrian" oneway="1" width="2.00"/>
    <type id="highway.steps" priority="1" speed="1.39" allow="pedestrian" oneway="1" width="2.00"/>
    <type id="highway.tertiary" priority="10" speed="22.22" disallow="pedestrian tram rail_urban rail rail_electric rail_fast ship" oneway="0"/>
    <type id="highway.tertiary_link" priority="5" speed="22.22" disallow="pedestrian tram rail_urban rail rail_electric rail_fast ship" oneway="0"/>
    <type id="highway.track" priority="1" speed="5.56" allow="pedestrian motorcycle moped bicycle" oneway="0"/>
    <type id="highway.trunk" priority="13" speed="27.78" disallow="pedestrian bicycle tram rail_urban rail rail_electric rail_fast ship" oneway="0"/>
    <type id="highway.trunk_link" priority="8" speed="22.22" disallow="pedestrian bicycle tram rail_urban rail rail_electric rail_fast ship" oneway="0"/>
    <type id="highway.unclassified" priority="4" speed="13.89" disallow="pedestrian tram rail_urban rail rail_electric rail_fast ship" oneway="0"/>
    <type id="highway.unsurfaced" priority="1" speed="8.33" disallow="tram rail_urban rail rail_electric rail_fast ship" oneway="0"/>
    <type id="railway.highspeed" priority="21" speed="69.44" allow="rail_fast" oneway="1"/>
    <type id="railway.light_rail" priority="19" speed="27.78" allow="rail_urban" oneway="1"/>
    <type id="railway.preserved" priority="16" speed="27.78" allow="rail" oneway="1"/>
    <type id="railway.rail" priority="20" speed="44.44" allow="rail" oneway="1"/>
    <type id="railway.subway" priority="18" speed="27.78" allow="rail_urban" oneway="1"/>
    <type id="railway.tram" priority="17" speed="13.89" allow="tram" oneway="1"/>

    <edge id=":19_0" function="internal">
        <lane id=":19_0_0" index="0" disallow="pedestrian tram rail_urban rail rail_electric rail_fast ship" speed="36.11" length="0.71" width="3.50" shape="-587.08,-780.14 -586.94,-780.84"/>
        <lane id=":19_0_1" index="1" disallow="pedestrian tram rail_urban rail rail_electric rail_fast ship" speed="36.11" length="0.17" width="3.50" shape="-590.51,-780.84 -590.48,-781.01"/>
        <lane id=":19_0_2" index="2" disallow="pedestrian tram rail_urban rail rail_electric rail_fast ship" speed="36.11" length="0.03" width="3.50" shape="-593.95,-781.51 -593.94,-781.54"/>
    </edge>
    <edge id=":3_0" function="internal">
        <lane id=":3_0_0" index="0" disallow="pedestrian tram rail_urban rail rail_electric rail_fast ship" speed="36.11" length="2.99" width="3.50" shape="-615.17,-655.19 -615.50,-652.22"/>
    </edge>
    <edge id=":31_0" function="internal">
        <lane id=":31_0_0" index="0" disallow="pedestrian tram rail_urban rail rail_electric rail_fast ship" speed="16.52" length="40.42" width="3.50" shape="-589.86,-743.36 -591.73,-741.02 -593.98,-737.53 -596.19,-733.41 -598.55,-728.20 -601.17,-721.41 -603.95,-713.02 -605.86,-706.53"/>
    </edge>
    <edge id=":31_1" function="internal">
        <lane id=":31_1_0" index="0" disallow="pedestrian tram rail_urban rail rail_electric rail_fast ship" speed="36.11" length="47.65" width="3.50" shape="-593.53,-752.56 -603.32,-715.72 -605.86,-706.53"/>
    </edge>
    <edge id=":31_2" function="internal">
        <lane id=":31_2_0" index="0" disallow="pedestrian tram rail_urban rail rail_electric rail_fast ship" speed="36.11" length="47.48" width="3.50" shape="-615.97,-709.36 -613.44,-718.53 -603.69,-755.22"/>
        <lane id=":31_2_1" index="1" disallow="pedestrian tram rail_urban rail rail_electric rail_fast ship" speed="36.11" length="47.53" width="3.50" shape="-612.60,-708.42 -610.06,-717.61 -600.30,-754.33"/>
        <lane id=":31_2_2" index="2" disallow="pedestrian tram rail_urban rail rail_electric rail_fast ship" speed="36.11" length="47.59" width="3.50" shape="-609.23,-707.48 -606.69,-716.66 -596.91,-753.45"/>
    </edge>
    <edge id=":32_0" function="internal">
        <lane id=":32_0_0" index="0" disallow="pedestrian tram rail_urban rail rail_electric rail_fast ship" speed="5.73" length="3.08" width="3.50" shape="-568.61,-746.26 -571.53,-747.24"/>
    </edge>
    <edge id=":32_1" function="internal">
        <lane id=":32_1_0" index="0" disallow="pedestrian tram rail_urban rail rail_electric rail_fast ship" speed="36.11" length="7.28" width="3.50" shape="-565.52,-750.24 -567.56,-751.96 -571.17,-754.83"/>
        <lane id=":32_1_1" index="1" disallow="pedestrian tram rail_urban rail rail_electric rail_fast ship" speed="36.11" length="7.31" width="3.50" shape="-563.38,-753.00 -565.41,-754.73 -569.05,-757.61"/>
    </edge>
    <edge id=":33_0" function="internal">
        <lane id=":33_0_0" index="0" disallow="pedestrian tram rail_urban rail rail_electric rail_fast ship" speed="36.11" length="27.41" width="3.50" shape="-584.21,-764.78 -590.90,-769.47 -599.44,-774.28 -602.44,-776.30 -607.07,-779.83"/>
    </edge>
    <edge id=":33_1" function="internal">
        <lane id=":33_1_0" index="0" disallow="pedestrian tram rail_urban rail rail_electric rail_fast ship" speed="13.52" length="27.79" width="2.94" shape="-582.14,-767.61 -590.78,-774.18 -594.33,-777.30 -596.13,-779.21 -597.03,-780.49 -597.41,-781.47 -596.19,-788.33"/>
    </edge>
    <edge id=":33_2" function="internal">
        <lane id=":33_2_0" index="0" disallow="pedestrian tram rail_urban rail rail_electric rail_fast ship" speed="36.11" length="18.84" width="3.49" shape="-586.98,-780.64 -590.03,-766.64 -591.11,-762.26"/>
        <lane id=":33_2_1" index="1" disallow="pedestrian tram rail_urban rail rail_electric rail_fast ship" speed="36.11" length="18.79" width="3.49" shape="-590.51,-780.85 -590.80,-778.52 -590.67,-775.93 -589.90,-770.27 -589.87,-768.19 -591.11,-762.26"/>
    </edge>
    <edge id=":33_4" function="internal">
        <lane id=":33_4_0" index="0" disallow="pedestrian tram rail_urban rail rail_electric rail_fast ship" speed="9.09" length="17.92" width="3.50" shape="-594.23,-780.67 -594.51,-779.26 -595.29,-777.31 -596.05,-776.14 -596.53,-775.64 -597.09,-775.22 -597.73,-774.94 -598.41,-774.80 -599.11,-774.81 -600.46,-775.17 -601.70,-775.81 -607.07,-779.83"/>
    </edge>
    <edge id=":33_5" function="internal">
        <lane id=":33_5_0" index="0" disallow="pedestrian tram rail_urban rail rail_electric rail_fast ship" speed="3.32" length="2.25" width="2.94" shape="-599.35,-782.96 -597.99,-782.07 -597.37,-782.02"/>
    </edge>
    <edge id=":33_6" function="internal">
        <lane id=":33_6_0" index="0" disallow="pedestrian tram rail_urban rail rail_electric rail_fast ship" speed="10.63" length="20.01" width="3.49" shape="-599.39,-778.61 -596.60,-776.00 -593.91,-773.44 -592.16,-771.44 -590.97,-769.68 -590.31,-768.23 -590.09,-767.19 -591.11,-762.26"/>
    </edge>
    <edge id=":33_7" function="internal">
        <lane id=":33_7_0" index="0" disallow="pedestrian tram rail_urban rail rail_electric rail_fast ship" speed="10.83" length="18.43" width="3.50" shape="-601.37,-764.50 -600.11,-770.20 -600.12,-771.88 -600.50,-773.52 -601.29,-775.00 -602.41,-776.25 -607.07,-779.83"/>
    </edge>
    <edge id=":33_8" function="internal">
        <lane id=":33_8_0" index="0" disallow="pedestrian tram rail_urban rail rail_electric rail_fast ship" speed="36.11" length="24.90" width="2.94" shape="-597.95,-763.75 -596.69,-769.76 -596.78,-772.32 -597.61,-778.42 -597.62,-780.47 -596.19,-788.33"/>
        <lane id=":33_8_1" index="1" disallow="pedestrian tram rail_urban rail rail_electric rail_fast ship" speed="36.11" length="26.36" width="2.94" shape="-594.53,-763.00 -593.40,-768.51 -593.60,-770.08 -594.29,-772.09 -596.81,-777.33 -597.31,-778.84 -597.54,-780.41 -596.19,-788.33"/>
    </edge>
    <edge id=":34_0" function="internal">
        <lane id=":34_0_0" index="0" disallow="pedestrian tram rail_urban rail rail_electric rail_fast ship" speed="36.11" length="6.19" width="3.50" shape="-619.02,-652.18 -618.36,-658.33"/>
    </edge>
    <edge id=":34_1" function="internal">
        <lane id=":34_1_0" index="0" disallow="pedestrian tram rail_urban rail rail_electric rail_fast ship" speed="36.11" length="6.06" width="3.50" shape="-625.87,-652.98 -625.32,-659.02"/>
    </edge>
    <edge id=":34_2" function="internal">
        <lane id=":34_2_0" index="0" disallow="pedestrian tram rail_urban rail rail_electric rail_fast ship" speed="36.11" length="6.12" width="3.50" shape="-622.43,-652.58 -621.84,-658.67"/>
    </edge>
    <edge id=":36_0" function="internal">
        <lane id=":36_0_0" index="0" disallow="pedestrian tram rail_urban rail rail_electric rail_fast ship" speed="36.11" length="0.22" width="3.39" shape="-599.56,-782.90 -599.49,-783.11"/>
        <lane id=":36_0_1" index="1" disallow="pedestrian tram rail_urban rail rail_electric rail_fast ship" speed="36.11" length="2.55" width="3.50" shape="-601.68,-780.13 -601.53,-780.01 -601.40,-779.91 -601.27,-779.81 -601.16,-779.73 -601.05,-779.65 -600.96,-779.58 -600.87,-779.52 -600.78,-779.46 -600.70,-779.40 -600.61,-779.35 -600.53,-779.29 -600.44,-779.24 -600.34,-779.18 -600.24,-779.12 -600.13,-779.05 -600.01,-778.98 -599.87,-778.90 -599.73,-778.81 -599.56,-778.72"/>
    </edge>

    <edge id="76902" from="32" to="31" priority="3" type="highway.residential" spreadType="center" length="18.74">
        <lane id="76902_0" index="0" disallow="pedestrian tram rail_urban rail rail_electric rail_fast ship" speed="36.11" length="18.74" width="3.50" customShape="1" shape="-572.16,-750.23 -582.82,-747.98 -590.50,-746.37"/>
    </edge>
    <edge id="77048" from="17" to="18" priority="3" type="highway.residential" spreadType="center" length="42.29">
        <lane id="77048_0" index="0" disallow="pedestrian tram rail_urban rail rail_electric rail_fast ship" speed="36.11" length="42.29" width="3.50" customShape="1" shape="-536.33,-735.00 -530.36,-730.38 -518.70,-721.60 -509.65,-715.21 -502.01,-710.32"/>
    </edge>
    <edge id="77050" from="13" to="32" priority="3" type="highway.residential" spreadType="center" length="75.09">
        <lane id="77050_0" index="0" disallow="pedestrian tram rail_urban rail rail_electric rail_fast ship" speed="36.11" length="75.45" width="3.50" customShape="1" shape="-505.69,-704.36 -513.51,-709.38 -522.73,-715.87 -534.57,-724.79 -566.25,-749.30"/>
        <lane id="77050_1" index="1" disallow="pedestrian tram rail_urban rail rail_electric rail_fast ship" speed="36.11" length="75.09" width="3.50" customShape="1" shape="-503.84,-707.33 -511.57,-712.29 -520.72,-718.74 -532.47,-727.59 -564.11,-752.06"/>
    </edge>
    <edge id="77170" from="32" to="33" priority="3" type="highway.residential" spreadType="center" length="16.40">
        <lane id="77170_0" index="0" disallow="pedestrian tram rail_urban rail rail_electric rail_fast ship" speed="36.11" length="16.40" width="3.50" customShape="1" shape="-571.10,-754.93 -575.71,-758.43 -575.81,-758.51 -581.53,-762.78 -584.21,-764.78"/>
        <lane id="77170_1" index="1" disallow="pedestrian tram rail_urban rail rail_electric rail_fast ship" speed="36.11" length="16.47" width="3.50" customShape="1" shape="-568.98,-757.71 -573.59,-761.22 -573.70,-761.30 -579.43,-765.58 -582.14,-767.61"/>
    </edge>
    <edge id="77256" from="36" to="33" priority="3" type="highway.residential" spreadType="center" length="0.20">
        <lane id="77256_0" index="0" disallow="pedestrian tram rail_urban rail rail_electric rail_fast ship" speed="36.11" length="0.21" width="3.39" customShape="1" shape="-599.49,-783.11 -599.35,-782.96"/>
        <lane id="77256_1" index="1" disallow="pedestrian tram rail_urban rail rail_electric rail_fast ship" speed="36.11" length="0.20" width="3.50" customShape="1" shape="-599.56,-778.72 -599.39,-778.61"/>
    </edge>
    <edge id="77595" from="33" to="31" priority="3" type="highway.residential" spreadType="center" length="10.00" shape="-593.75,-774.47 -597.31,-733.81">
        <lane id="77595_0" index="0" disallow="pedestrian tram rail_urban rail rail_electric rail_fast ship" speed="36.11" length="10.00" width="3.49" customShape="1" shape="-591.11,-762.26 -591.84,-759.35 -593.46,-752.82 -593.50,-752.68 -593.53,-752.56"/>
    </edge>
    <edge id="77603" from="31" to="33" priority="3" type="highway.residential" spreadType="center" length="9.57" shape="-604.27,-734.42 -600.62,-775.67">
        <lane id="77603_0" index="0" disallow="pedestrian tram rail_urban rail rail_electric rail_fast ship" speed="36.11" length="9.57" width="3.50" customShape="1" shape="-603.69,-755.22 -603.65,-755.34 -603.62,-755.46 -602.03,-761.88 -601.37,-764.50"/>
        <lane id="77603_1" index="1" disallow="pedestrian tram rail_urban rail rail_electric rail_fast ship" speed="36.11" length="9.71" width="3.50" customShape="1" shape="-600.30,-754.33 -600.27,-754.45 -600.24,-754.58 -598.63,-761.03 -597.95,-763.75"/>
        <lane id="77603_2" index="2" disallow="pedestrian tram rail_urban rail rail_electric rail_fast ship" speed="36.11" length="9.84" width="3.50" customShape="1" shape="-596.91,-753.45 -596.88,-753.57 -596.85,-753.69 -595.23,-760.19 -594.53,-763.00"/>
    </edge>
    <edge id="77656" from="31" to="3" priority="3" type="highway.residential" spreadType="center" length="52.26" shape="-597.33,-733.61 -615.32,-653.70">
        <lane id="77656_0" index="0" disallow="pedestrian tram rail_urban rail rail_electric rail_fast ship" speed="36.11" length="52.26" width="3.50" customShape="1" shape="-605.86,-706.53 -606.39,-704.62 -609.03,-694.51 -610.82,-686.24 -612.63,-675.95 -614.07,-665.60 -615.17,-655.19"/>
    </edge>
    <edge id="77659" from="34" to="31" priority="3" type="highway.residential" spreadType="center" length="50.06" shape="-622.29,-654.38 -604.08,-735.43">
        <lane id="77659_0" index="0" disallow="pedestrian tram rail_urban rail rail_electric rail_fast ship" speed="36.11" length="51.30" width="3.50" customShape="1" shape="-625.32,-659.02 -624.48,-667.00 -622.98,-677.72 -621.11,-688.38 -619.24,-696.96 -616.52,-707.40 -615.97,-709.38"/>
        <lane id="77659_1" index="1" disallow="pedestrian tram rail_urban rail rail_electric rail_fast ship" speed="36.11" length="50.69" width="3.50" customShape="1" shape="-621.84,-658.67 -621.01,-666.53 -619.53,-677.13 -617.68,-687.67 -615.84,-696.16 -613.14,-706.48 -612.59,-708.43"/>
        <lane id="77659_2" index="2" disallow="pedestrian tram rail_urban rail rail_electric rail_fast ship" speed="36.11" length="50.06" width="3.50" customShape="1" shape="-618.36,-658.33 -617.54,-666.05 -616.09,-676.52 -614.26,-686.93 -612.44,-695.32 -609.77,-705.54 -609.23,-707.48"/>
    </edge>
    <edge id="77680" from="19" to="33" priority="3" type="highway.residential" spreadType="center" length="0.16">
        <lane id="77680_0" index="0" disallow="pedestrian tram rail_urban rail rail_electric rail_fast ship" speed="36.11" length="0.20" width="3.50" customShape="1" shape="-586.94,-780.84 -586.98,-780.64"/>
        <lane id="77680_1" index="1" disallow="pedestrian tram rail_urban rail rail_electric rail_fast ship" speed="36.11" length="0.16" width="3.50" customShape="1" shape="-590.48,-781.01 -590.51,-780.85"/>
        <lane id="77680_2" index="2" disallow="pedestrian tram rail_urban rail rail_electric rail_fast ship" speed="36.11" length="1.13" width="3.50" customShape="1" shape="-593.94,-781.54 -593.97,-781.41 -594.61,-780.64"/>
    </edge>
    <edge id="80599" from="38" to="36" priority="3" type="highway.residential" spreadType="center" length="16.20">
        <lane id="80599_0" index="0" disallow="pedestrian tram rail_urban rail rail_electric rail_fast ship" speed="36.11" length="16.22" width="3.50" customShape="1" shape="-612.45,-792.74 -605.61,-787.52 -599.56,-782.90"/>
        <lane id="80599_1" index="1" disallow="pedestrian tram rail_urban rail rail_electric rail_fast ship" speed="36.11" length="16.20" width="3.50" customShape="1" shape="-614.57,-789.95 -607.73,-784.74 -601.68,-780.13"/>
    </edge>
    <edge id="81115" from="3" to="4" priority="3" type="highway.residential" spreadType="center" length="28.99">
        <lane id="81115_0" index="0" disallow="pedestrian tram rail_urban rail rail_electric rail_fast ship" speed="36.11" length="28.99" width="3.50" customShape="1" shape="-615.50,-652.22 -615.82,-649.43 -617.72,-637.92 -618.57,-631.70 -618.85,-627.59 -618.82,-623.47"/>
    </edge>
    <edge id="81490" from="35" to="34" priority="3" type="highway.residential" spreadType="center" length="29.27">
        <lane id="81490_0" index="0" disallow="pedestrian tram rail_urban rail rail_electric rail_fast ship" speed="36.11" length="29.27" width="3.50" customShape="1" shape="-622.32,-623.32 -622.75,-636.05 -622.74,-645.72 -622.43,-652.58"/>
    </edge>
    <edge id="81494" from="35" to="34" priority="3" type="highway.residential" spreadType="center" length="29.93">
        <lane id="81494_0" index="0" disallow="pedestrian tram rail_urban rail rail_electric rail_fast ship" speed="36.11" length="29.93" width="3.50" customShape="1" shape="-622.32,-623.32 -622.72,-627.90 -623.77,-634.45 -625.29,-642.99 -625.81,-647.55 -625.94,-651.63 -625.87,-652.98"/>
    </edge>
    <edge id="81502" from="35" to="34" priority="3" type="highway.residential" spreadType="center" length="29.10">
        <lane id="81502_0" index="0" disallow="pedestrian tram rail_urban rail rail_electric rail_fast ship" speed="36.11" length="29.10" width="3.50" customShape="1" shape="-622.32,-623.32 -622.35,-627.60 -622.06,-631.86 -621.20,-638.21 -619.30,-649.80 -619.02,-652.18"/>
    </edge>
    <edge id="82284" from="21" to="19" priority="3" type="highway.residential" spreadType="center" length="13.63">
        <lane id="82284_0" index="0" disallow="pedestrian tram rail_urban rail rail_electric rail_fast ship" speed="36.11" length="13.70" width="3.50" customShape="1" shape="-584.47,-793.59 -585.78,-786.87 -587.08,-780.14"/>
        <lane id="82284_1" index="1" disallow="pedestrian tram rail_urban rail rail_electric rail_fast ship" speed="36.11" length="13.63" width="3.50" customShape="1" shape="-587.92,-794.22 -589.21,-787.53 -590.51,-780.84"/>
        <lane id="82284_2" index="2" disallow="pedestrian tram rail_urban rail rail_electric rail_fast ship" speed="36.11" length="13.63" width="3.50" customShape="1" shape="-591.35,-794.89 -592.65,-788.20 -593.95,-781.51"/>
    </edge>
    <edge id="82378" from="33" to="37" priority="3" type="highway.residential" spreadType="center" length="7.30">
        <lane id="82378_0" index="0" disallow="pedestrian tram rail_urban rail rail_electric rail_fast ship" speed="36.11" length="7.30" width="2.94" customShape="1" shape="-596.19,-788.33 -596.08,-788.87 -594.80,-795.50"/>
    </edge>
    <edge id="82478" from="33" to="23" priority="3" type="highway.residential" spreadType="center" length="12.06">
        <lane id="82478_0" index="0" disallow="pedestrian tram rail_urban rail rail_electric rail_fast ship" speed="36.11" length="12.06" width="3.50" customShape="1" shape="-607.07,-779.83 -609.85,-781.95 -616.66,-787.14"/>
    </edge>

    <junction id="13" type="dead_end" x="-504.78" y="-705.86" incLanes="" intLanes="" shape="-502.89,-708.80 -506.67,-702.91" rightOfWay="edgePriority"/>
    <junction id="17" type="dead_end" x="-536.33" y="-735.00" incLanes="" intLanes="" shape="-537.40,-733.62 -535.26,-736.39" rightOfWay="edgePriority"/>
    <junction id="18" type="dead_end" x="-502.01" y="-710.32" incLanes="77048_0" intLanes="" shape="-501.07,-711.79 -502.96,-708.85" rightOfWay="edgePriority"/>
    <junction id="19" type="priority" x="-590.51" y="-780.84" incLanes="82284_0 82284_1 82284_2" intLanes=":19_0_0 :19_0_1 :19_0_2" shape="-585.36,-779.84 -595.66,-781.84 -585.37,-779.79" rightOfWay="edgePriority">
        <request index="0" response="000" foes="000" cont="0"/>
        <request index="1" response="000" foes="000" cont="0"/>
        <request index="2" response="000" foes="000" cont="0"/>
    </junction>
    <junction id="21" type="dead_end" x="-587.92" y="-794.22" incLanes="" intLanes="" shape="-593.07,-795.22 -582.76,-793.22" rightOfWay="edgePriority"/>
    <junction id="23" type="dead_end" x="-616.66" y="-787.14" incLanes="82478_0" intLanes="" shape="-617.72,-785.75 -615.60,-788.54" rightOfWay="edgePriority"/>
    <junction id="3" type="priority" x="-615.32" y="-653.70" incLanes="77656_0" intLanes=":3_0_0" shape="-613.43,-655.01 -616.91,-655.37 -617.23,-652.42 -613.76,-652.01" rightOfWay="edgePriority">
        <request index="0" response="0" foes="0" cont="0"/>
    </junction>
    <junction id="31" type="priority" x="-599.05" y="-733.96" incLanes="76902_0 77595_0 77659_0 77659_1 77659_2" intLanes=":31_0_0 :31_1_0 :31_2_0 :31_2_1 :31_2_2" shape="-590.14,-744.66 -590.86,-748.08 -591.93,-748.33 -592.18,-748.86 -592.25,-749.67 -592.14,-750.76 -591.84,-752.12 -605.38,-755.66 -617.65,-709.83 -604.17,-706.06 -600.84,-717.65 -597.90,-727.18 -595.37,-734.65 -593.23,-740.05 -591.48,-743.38">
        <request index="0" response="00010" foes="00010" cont="0"/>
        <request index="1" response="00000" foes="00001" cont="0"/>
        <request index="2" response="00000" foes="00000" cont="0"/>
        <request index="3" response="00000" foes="00000" cont="0"/>
        <request index="4" response="00000" foes="00000" cont="0"/>
    </junction>
    <junction id="32" type="priority" x="-565.97" y="-745.75" incLanes="77050_0 77050_1" intLanes=":32_0_0 :32_1_0 :32_1_1" shape="-567.32,-747.92 -563.04,-753.45 -564.95,-755.42 -565.47,-756.28 -565.99,-757.13 -566.73,-758.05 -567.91,-759.10 -572.16,-753.54 -571.50,-752.83 -571.46,-752.54 -571.62,-752.30 -571.97,-752.10 -572.52,-751.94 -571.80,-748.52 -570.01,-748.72 -569.23,-748.67 -568.52,-748.52 -567.88,-748.27">
        <request index="0" response="000" foes="000" cont="0"/>
        <request index="1" response="000" foes="000" cont="0"/>
        <request index="2" response="000" foes="000" cont="0"/>
    </junction>
    <junction id="33" type="priority" x="-595.49" y="-774.55" incLanes="77170_0 77170_1 77680_0 77680_1 77680_2 77256_0 77256_1 77603_0 77603_1 77603_2" intLanes=":33_0_0 :33_1_0 :33_2_0 :33_2_1 :33_4_0 :33_5_0 :33_6_0 :33_7_0 :33_8_0 :33_8_1" shape="-585.24,-763.37 -581.11,-769.02 -585.02,-781.51 -596.27,-780.49 -594.70,-788.27 -597.67,-788.40 -601.10,-787.45 -608.15,-778.45 -606.04,-776.57 -604.43,-774.54 -603.34,-772.36 -602.74,-770.02 -602.66,-767.52 -603.08,-764.88 -589.41,-761.88 -588.52,-763.77 -587.88,-764.19 -587.13,-764.27 -586.25,-763.99">
        <request index="0" response="1110011100" foes="1111011100" cont="0"/>
        <request index="1" response="1100111100" foes="1100111100" cont="0"/>
        <request index="2" response="0000001000" foes="0001001011" cont="0"/>
        <request index="3" response="0000000000" foes="0001000111" cont="0"/>
        <request index="4" response="1110000000" foes="1111000011" cont="0"/>
        <request index="5" response="1100000000" foes="1100000010" cont="0"/>
        <request index="6" response="1100011101" foes="1100011101" cont="0"/>
        <request index="7" response="0000000000" foes="0000010001" cont="0"/>
        <request index="8" response="1000000000" foes="1001110011" cont="0"/>
        <request index="9" response="0000000000" foes="0101110011" cont="0"/>
    </junction>
    <junction id="34" type="priority" x="-622.29" y="-654.38" incLanes="81502_0 81494_0 81490_0" intLanes=":34_0_0 :34_1_0 :34_2_0" shape="-627.61,-653.18 -617.29,-651.98 -616.61,-658.15 -627.06,-659.19">
        <request index="0" response="000" foes="000" cont="0"/>
        <request index="1" response="000" foes="000" cont="0"/>
        <request index="2" response="000" foes="000" cont="0"/>
    </junction>
    <junction id="35" type="dead_end" x="-622.32" y="-623.32" incLanes="" intLanes="" shape="-620.57,-623.33 -624.07,-623.31 -620.57,-623.38 -624.07,-623.26 -620.57,-623.47 -624.06,-623.17"/>
    <junction id="36" type="priority" x="-599.84" y="-780.92" incLanes="80599_0 80599_1" intLanes=":36_0_0 :36_0_1" shape="-599.50,-776.63 -595.57,-781.27 -598.49,-784.29 -602.75,-778.74">
        <request index="0" response="00" foes="00" cont="0"/>
        <request index="1" response="00" foes="00" cont="0"/>
    </junction>
    <junction id="37" type="dead_end" x="-594.80" y="-795.50" incLanes="82378_0" intLanes="" shape="-596.24,-795.78 -593.36,-795.22"/>
    <junction id="38" type="dead_end" x="-613.51" y="-791.34" incLanes="" intLanes="" shape="-615.63,-788.55 -611.38,-794.12"/>
    <junction id="4" type="dead_end" x="-618.82" y="-623.47" incLanes="81115_0" intLanes="" shape="-617.07,-623.48 -620.57,-623.46" rightOfWay="edgePriority"/>

    <connection from="76902" to="77656" fromLane="0" toLane="0" contPos="-4.00" shape="-582.95,-747.96 -584.44,-747.50 -586.28,-746.54 -587.94,-745.29 -589.78,-743.46 -591.73,-741.02 -593.98,-737.53 -596.19,-733.41 -598.55,-728.20 -601.17,-721.41 -603.95,-713.02 -605.86,-706.53" via=":31_0_0" dir="r" state="m"/>
    <connection from="77050" to="76902" fromLane="0" toLane="0" contPos="-4.00" shape="-540.63,-729.48 -547.28,-734.41 -553.30,-738.47 -558.63,-741.66 -563.23,-744.04 -567.51,-745.90 -571.44,-747.22 -574.97,-748.02 -578.06,-748.35 -580.65,-748.31 -582.70,-748.01" via=":32_0_0" dir="r" state="M"/>
    <connection from="77050" to="77170" fromLane="0" toLane="0" contPos="-4.00" shape="-540.63,-729.48 -548.72,-735.99 -567.56,-751.96 -575.63,-758.37" via=":32_1_0" dir="s" state="M"/>
    <connection from="77050" to="77170" fromLane="1" toLane="1" contPos="-4.00" shape="-538.49,-732.24 -546.52,-738.71 -565.41,-754.73 -573.49,-761.14" via=":32_1_1" dir="s" state="M"/>
    <connection from="77170" to="82478" fromLane="0" toLane="0" contPos="-4.00" shape="-587.44,-767.20 -590.90,-769.47 -599.44,-774.28 -602.44,-776.30 -602.85,-776.61" via=":33_0_0" dir="s" state="m"/>