<routes>
	<vehicle depart="0.1" departLane="5" departPos="94.8750698579245" departSpeed="0.0" id="298" type="passenger">
		<route edges="16"/>
	</vehicle>
	<vehicle depart="0.1" departLane="5" departPos="88.84586076458861" departSpeed="0.8382" id="302" type="passenger">
		<route edges="16"/>
	</vehicle>
	<vehicle depart="0.1" departLane="5" departPos="78.73118569641626" departSpeed="0.0" id="322" type="passenger">
		<route edges="16"/>
	</vehicle>
	<vehicle depart="0.1" departLane="3" departPos="100.00903099022565" departSpeed="12.4998" id="328" type="passenger">
		<route edges="16"/>
	</vehicle>
	<vehicle depart="0.1" departLane="4" departPos="95.77846226230227" departSpeed="10.668" id="331" type="passenger">
		<route edges="16"/>
	</vehicle>
	<vehicle depart="0.1" departLane="1" departPos="83.51229740796073" departSpeed="13.716" id="339" type="passenger">
		<route edges="16"/>
	</vehicle>
	<vehicle depart="0.1" departLane="0" departPos="94.33781585093097" departSpeed="19.5102" id="340" type="passenger">
		<route edges="16"/>
	</vehicle>
	<vehicle depart="0.1" departLane="3" departPos="78.07418531722287" departSpeed="12.253" id="342" type="passenger">
		<route edges="16"/>
	</vehicle>
	<vehicle depart="0.1" departLane="4" departPos="67.91367349544684" departSpeed="10.5065" id="344" type="passenger">
		<route edges="16"/>
	</vehicle>
	<vehicle depart="0.1" departLane="0" departPos="68.04622861440942" departSpeed="16.322" id="345" type="passenger">
		<route edges="16"/>
	</vehicle>
	<vehicle depart="0.1" departLane="2" departPos="62.202816267106634" departSpeed="12.3718" id="346" type="passenger">
		<route edges="16"/>
	</vehicle>
	<vehicle depart="0.1" departLane="3" departPos="51.347954378039084" departSpeed="11.9604" id="347" type="passenger">
		<route edges="16"/>
	</vehicle>
	<vehicle depart="0.1" departLane="1" departPos="44.203124028134994" departSpeed="15.24" id="350" type="passenger">
		<route edges="16"/>
	</vehicle>
	<vehicle depart="0.1" departLane="4" departPos="42.332941734622935" departSpeed="9.2568" id="351" type="passenger">
		<route edges="16"/>
	</vehicle>
	<vehicle depart="0.1" departLane="0" departPos="29.74998977399862" departSpeed="14.539" id="352" type="passenger">
		<route edges="16 16"/>
	</vehicle>
	<vehicle depart="0.1" departLane="2" departPos="20.462900652265684" departSpeed="13.6093" id="356" type="passenger">
		<route edges="16"/>
	</vehicle>
	<vehicle depart="0.1" departLane="1" departPos="19.665509948199432" departSpeed="13.716" id="357" type="passenger">
		<route edges="16"/>
	</vehicle>
	<vehicle depart="0.1" departLane="0" departPos="0" departSpeed="18.291" id="358" type="passenger">
		<route edges="16"/>
	</vehicle>
	<vehicle depart="0.1" departLane="5" departPos="69.71169856934287" departSpeed="1.2436" id="363" type="passenger">
		<route edges="16"/>
	</vehicle>
	<vehicle depart="0.1" departLane="4" departPos="15.715522272112679" departSpeed="11.1526" id="364" type="passenger">
		<route edges="16"/>
	</vehicle>
	<vehicle depart="0.1" departLane="3" departPos="18.58052206741955" departSpeed="10.7838" id="365" type="passenger">
		<route edges="16"/>
	</vehicle>
	<vehicle depart="0.1" departLane="1" departPos="0" departSpeed="13.7373" id="366" type="passenger">
		<route edges="16 16"/>
	</vehicle>
	<vehicle depart="0.1" departLane="0" departPos="67.03423202224313" departSpeed="16.3617" id="367" type="passenger">
		<route edges="20 16 16"/>
	</vehicle>
	<vehicle depart="0.1" departLane="3" departPos="4.400989888503435" departSpeed="10.5034" id="368" type="passenger">
		<route edges="16"/>
	</vehicle>
	<vehicle depart="0.1" departLane="3" departPos="77.62603975070911" departSpeed="12.0305" id="372" type="passenger">
		<route edges="20 16"/>
	</vehicle>
	<vehicle depart="0.1" departLane="2" departPos="66.88003904392065" departSpeed="11.0886" id="374" type="passenger">
		<route edges="20 16"/>
	</vehicle>
	<vehicle depart="0.1" departLane="5" departPos="57.50994497155841" departSpeed="5.1603" id="376" type="passenger">
		<route edges="16"/>
	</vehicle>
	<vehicle depart="0.1" departLane="3" departPos="59.45375003304147" departSpeed="10.6619" id="379" type="passenger">
		<route edges="20 16"/>
	</vehicle>
	<vehicle depart="0.1" departLane="2" departPos="48.3922200946219" departSpeed="11.939" id="380" type="passenger">
		<route edges="20 16"/>
	</vehicle>
	<vehicle depart="0.1" departLane="3" departPos="40.74625915350041" departSpeed="11.6342" id="383" type="passenger">
		<route edges="20 16"/>
	</vehicle>
	<vehicle depart="0.1" departLane="2" departPos="32.823943481415675" departSpeed="12.189" id="384" type="passenger">
		<route edges="20 16"/>
	</vehicle>
	<vehicle depart="0.1" departLane="1" departPos="24.217567493601937" departSpeed="10.6863" id="387" type="passenger">
		<route edges="20 16"/>
	</vehicle>
	<vehicle depart="0.1" departLane="2" departPos="12.064229158811287" departSpeed="11.5153" id="388" type="passenger">
		<route edges="20 16"/>
	</vehicle>
	<vehicle depart="0.1" departLane="1" departPos="0" departSpeed="9.9609" id="394" type="passenger">
		<route edges="20 20 16"/>
	</vehicle>
	<vehicle depart="0.1" departLane="3" departPos="11.583281270274114" departSpeed="10.665" id="395" type="passenger">
		<route edges="20 16"/>
	</vehicle>
	<vehicle depart="0.1" departLane="5" departPos="46.90812951464342" departSpeed="3.048" id="396" type="passenger">
		<route edges="16"/>
	</vehicle>
	<vehicle depart="0.1" departLane="5" departPos="34.54615613658831" departSpeed="3.048" id="397" type="passenger">
		<route edges="16"/>
	</vehicle>
	<vehicle depart="0.1" departLane="5" departPos="24.395794019818293" departSpeed="4.063" id="404" type="passenger">
		<route edges="16"/>
	</vehicle>
	<vehicle depart="0.1" departLane="5" departPos="14.584724855529704" departSpeed="3.048" id="417" type="passenger">
		<route edges="16"/>
	</vehicle>
	<vehicle depart="0.1" departLane="5" departPos="0" departSpeed="3.048" id="422" type="passenger">
		<route edges="16"/>
	</vehicle>
	<vehicle depart="0.1" departLane="4" departPos="78.26269838011589" departSpeed="2.5542" id="427" type="passenger">
		<route edges="20 16"/>
	</vehicle>
	<vehicle depart="0.1" departLane="4" departPos="63.76713796523839" departSpeed="4.5629" id="442" type="passenger">
		<route edges="20 16"/>
	</vehicle>
	<vehicle depart="0.1" departLane="4" departPos="43.5362430677791" departSpeed="9.4214" id="451" type="passenger">
		<route edges="20 16"/>
	</vehicle>
	<vehicle depart="0.1" departLane="4" departPos="22.70381099452397" departSpeed="9.65" id="458" type="passenger">
		<route edges="20 16"/>
	</vehicle>
	<vehicle depart="0.1" departLane="4" departPos="4.671662386352907" departSpeed="7.8425" id="468" type="passenger">
		<route edges="20 16"/>
	</vehicle>
</routes>
