<?xml version="1.0" encoding="UTF-8"?>

<!-- generated on Fri Dec 18 15:55:05 2020 by Eclipse SUMO netconvert Version 1.8.0
<configuration xmlns:xsi="http://www.w3.org/2001/XMLSchema-instance" xsi:noNamespaceSchemaLocation="http://sumo.dlr.de/xsd/netconvertConfiguration.xsd">

    <input>
        <node-files value="./converted_scenarios/NGSIM/US101/USA_US101-18_2_I-1-1/nodes.net.xml"/>
        <edge-files value="./converted_scenarios/NGSIM/US101/USA_US101-18_2_I-1-1/edges.net.xml"/>
        <connection-files value="./converted_scenarios/NGSIM/US101/USA_US101-18_2_I-1-1/_connections.net.xml"/>
        <tllogic-files value="./converted_scenarios/NGSIM/US101/USA_US101-18_2_I-1-1/_tll.net.xml"/>
    </input>

    <output>
        <output-file value="./converted_scenarios/NGSIM/US101/USA_US101-18_2_I-1-1/USA_US101-18_2_I-1-1.net.xml"/>
    </output>

    <processing>
        <plain.extend-edge-shape value="true"/>
        <geometry.remove.keep-edges.explicit value="true"/>
        <geometry.avoid-overlap value="true"/>
        <offset.disable-normalization value="true"/>
    </processing>

    <junctions>
        <no-turnarounds value="true"/>
        <junctions.internal-link-detail value="20"/>
    </junctions>

    <report>
        <aggregate-warnings value="5"/>
    </report>

    <random_number>
        <seed value="1234"/>
    </random_number>

</configuration>
-->

<net version="1.6" junctionCornerDetail="5" junctionLinkDetail="20" limitTurnSpeed="5.50" xmlns:xsi="http://www.w3.org/2001/XMLSchema-instance" xsi:noNamespaceSchemaLocation="http://sumo.dlr.de/xsd/net_file.xsd">

    <location netOffset="0.00,0.00" convBoundary="-33.48,-93.75,114.62,31.37" origBoundary="-33.48,-100.27,120.30,36.21" projParameter="!"/>

    <edge id=":2_0" function="internal">
        <lane id=":2_0_0" index="0" disallow="bus truck rail_fast" speed="36.11" length="5.45" width="3.68" shape="30.40,-31.64 34.52,-35.21"/>
    </edge>
    <edge id=":2_1" function="internal">
        <lane id=":2_1_0" index="0" disallow="bus truck rail_fast" speed="36.11" length="5.44" width="3.50" shape="32.87,-28.82 36.95,-32.42"/>
        <lane id=":2_1_1" index="1" disallow="bus truck rail_fast" speed="36.11" length="5.44" width="3.22" shape="35.15,-26.19 39.19,-29.84"/>
        <lane id=":2_1_2" index="2" disallow="bus rail_fast" speed="36.11" length="5.44" width="3.12" shape="37.35,-23.66 41.41,-27.28"/>
        <lane id=":2_1_3" index="3" disallow="bus truck rail_fast" speed="36.11" length="5.44" width="3.27" shape="39.54,-21.15 43.66,-24.70"/>
        <lane id=":2_1_4" index="4" disallow="bus truck rail_fast" speed="36.11" length="5.44" width="3.48" shape="41.75,-18.59 45.91,-22.10"/>
    </edge>

    <edge id="16" from="2" to="3" priority="1" spreadType="center" length="102.70">
        <lane id="16_0" index="0" disallow="bus rail_fast" speed="36.11" length="102.70" width="3.68" acceleration="1" customShape="1" shape="34.52,-35.21 37.09,-37.44 37.81,-38.09 40.52,-40.47 41.24,-41.11 43.96,-43.50 44.68,-44.15 47.35,-46.46 48.07,-47.11 48.80,-47.74 50.80,-49.48 51.53,-50.13 54.21,-52.49 54.93,-53.13 57.69,-55.53 58.41,-56.18 60.98,-58.40 61.70,-59.05 64.42,-61.38 65.14,-62.03 67.99,-64.54 68.71,-65.19 71.37,-67.54 72.09,-68.19 74.90,-70.61 75.63,-71.25 78.26,-73.56 78.98,-74.20 81.69,-76.57 82.33,-77.15 82.41,-77.22 85.24,-79.60 85.96,-80.25 88.58,-82.60 89.31,-83.25 91.98,-85.56 92.70,-86.21 95.50,-88.66 96.22,-89.30 98.73,-91.46 99.45,-92.11 102.23,-94.54 102.95,-95.18 105.65,-97.44 106.37,-98.09 108.80,-100.27"/>
        <lane id="16_1" index="1" disallow="bus truck rail_fast" speed="36.11" length="102.70" width="3.50" customShape="1" shape="36.95,-32.42 37.54,-32.95 39.38,-34.48 40.04,-35.03 40.15,-35.12 40.74,-35.62 40.92,-35.79 43.02,-37.68 43.74,-38.34 43.83,-38.43 46.39,-40.68 47.07,-41.29 49.80,-43.65 50.47,-44.25 51.00,-44.71 53.27,-46.75 53.91,-47.34 60.07,-52.64 60.74,-53.23 60.84,-53.31 61.75,-54.09 63.48,-55.64 64.19,-56.29 64.71,-56.75 66.86,-58.58 67.52,-59.16 70.40,-61.70 71.09,-62.31 72.75,-63.77 73.86,-64.78 74.57,-65.44 75.73,-66.46 77.32,-67.82 77.97,-68.39 80.66,-70.73 81.33,-71.32 83.73,-73.39 84.14,-73.75 84.87,-74.40 86.81,-76.03 87.70,-76.79 88.37,-77.38 90.96,-79.72 91.71,-80.39 94.43,-82.75 94.58,-82.88 95.09,-83.34 97.64,-85.57 97.96,-85.86 98.68,-86.51 101.18,-88.69 101.87,-89.31 104.66,-91.78 105.38,-92.43 106.33,-93.23 108.05,-94.68 108.72,-95.27 109.17,-95.68 111.25,-97.52"/>
        <lane id="16_2" index="2" disallow="bus truck rail_fast" speed="36.11" length="102.70" width="3.22" customShape="1" shape="39.19,-29.84 39.64,-30.23 39.80,-30.36 43.17,-33.13 45.70,-35.37 45.80,-35.47 46.17,-35.81 48.80,-38.18 53.26,-42.03 56.13,-44.59 56.24,-44.69 56.88,-45.23 56.96,-45.30 59.86,-47.86 64.04,-51.42 66.89,-53.96 66.98,-54.05 67.99,-54.92 70.94,-57.57 75.05,-61.09 77.91,-63.64 78.02,-63.73 79.13,-64.69 82.09,-67.33 86.05,-70.80 89.03,-73.42 90.15,-74.41 93.13,-77.01 96.94,-80.34 99.94,-82.94 101.05,-83.92 104.02,-86.54 108.54,-90.54 111.56,-93.17 112.15,-93.68 113.58,-94.91"/>
        <lane id="16_3" index="3" disallow="bus rail_fast" speed="36.11" length="102.70" width="3.12" customShape="1" shape="41.41,-27.28 42.92,-28.58 45.88,-31.21 48.01,-33.02 50.85,-35.54 50.97,-35.64 53.98,-38.20 56.94,-40.84 59.08,-42.69 61.94,-45.27 62.03,-45.35 65.10,-48.01 68.05,-50.65 70.09,-52.37 72.96,-54.89 73.09,-55.00 76.22,-57.64 79.18,-60.27 81.35,-62.13 84.20,-64.70 87.46,-67.57 90.38,-70.24 92.27,-71.89 95.29,-74.51 98.51,-77.30 101.52,-79.91 103.29,-81.48 106.26,-84.09 109.46,-86.92 112.44,-89.52 114.33,-91.19 115.77,-92.46"/>
        <lane id="16_4" index="4" disallow="bus truck rail_fast" speed="36.11" length="102.70" width="3.27" customShape="1" shape="43.66,-24.70 45.00,-25.85 45.19,-26.03 47.86,-28.52 48.05,-28.69 56.19,-35.63 56.36,-35.78 59.14,-38.37 59.30,-38.51 67.31,-45.39 70.17,-48.05 78.42,-55.10 78.54,-55.21 81.35,-57.84 81.48,-57.95 89.63,-64.95 89.75,-65.06 92.49,-67.61 100.46,-74.53 100.74,-74.77 103.44,-77.12 103.73,-77.37 111.51,-84.24 111.64,-84.35 114.55,-86.88 114.68,-87.00 118.00,-89.97"/>
        <lane id="16_5" index="5" disallow="bus truck rail_fast" speed="36.11" length="102.70" width="3.48" customShape="1" shape="45.91,-22.10 47.25,-23.23 47.49,-23.44 47.61,-23.55 50.22,-25.98 50.58,-26.29 58.65,-33.22 58.89,-33.44 58.99,-33.53 61.60,-35.96 61.97,-36.28 69.60,-42.72 69.84,-42.92 69.96,-43.04 72.57,-45.47 72.91,-45.77 80.81,-52.71 81.06,-52.94 81.14,-53.01 83.75,-55.44 84.10,-55.75 91.87,-62.34 92.11,-62.55 92.23,-62.66 94.84,-65.09 95.18,-65.39 102.70,-71.95 103.08,-72.29 105.68,-74.55 106.06,-74.88 113.84,-81.67 114.22,-82.00 116.82,-84.26 117.16,-84.56 120.32,-87.38"/>
    </edge>
    <edge id="17" from="4" to="2" priority="1" spreadType="center" length="84.22">
        <lane id="17_0" index="0" disallow="bus truck rail_fast" speed="36.11" length="84.22" width="3.64" customShape="1" shape="-33.48,20.88 -33.30,20.74 -25.38,14.66 -18.94,9.52 -13.81,5.35 -6.09,-0.94 -4.43,-2.31 4.12,-9.41 15.96,-19.19 16.28,-19.46 22.14,-24.44 25.60,-27.45 30.40,-31.64"/>
    </edge>
    <edge id="20" from="1" to="2" priority="1" spreadType="center" length="82.73">
        <lane id="20_0" index="0" disallow="bus truck rail_fast" speed="36.11" length="82.73" width="3.45" customShape="1" shape="-27.83,26.54 -27.40,26.12 -19.90,19.11 -17.06,16.35 -12.52,12.10 -9.00,8.86 -6.10,6.16 1.71,-0.95 2.29,-1.49 4.65,-3.66 11.96,-10.28 12.76,-11.01 15.68,-13.73 18.74,-16.48 23.56,-20.64 26.50,-23.29 28.05,-24.63 32.87,-28.82"/>
        <lane id="20_1" index="1" disallow="bus truck rail_fast" speed="36.11" length="82.73" width="3.25" customShape="1" shape="-25.39,28.97 -25.07,28.67 -19.56,23.54 -17.51,21.57 -16.77,20.83 -14.77,18.93 -8.77,13.42 -6.62,11.43 -5.86,10.72 -3.74,8.76 1.92,3.63 4.12,1.61 4.81,0.97 6.99,-1.02 13.12,-6.53 15.19,-8.43 16.02,-9.20 18.05,-11.06 23.88,-16.18 25.91,-18.01 26.76,-18.80 28.76,-20.61 34.88,-25.94 35.15,-26.19"/>
        <lane id="20_2" index="2" disallow="rail_fast" speed="36.11" length="82.73" width="3.19" customShape="1" shape="-23.00,31.37 -20.31,28.77 -17.32,25.99 -14.51,23.28 -12.25,21.21 -9.39,18.47 -6.52,15.88 -3.62,13.22 -1.01,10.85 1.90,8.16 4.15,6.11 7.05,3.44 9.78,0.99 12.71,-1.69 15.35,-4.06 18.25,-6.71 20.82,-9.00 23.75,-11.67 26.01,-13.63 28.94,-16.24 31.70,-18.62 34.64,-21.28 37.08,-23.42 37.35,-23.66"/>
        <lane id="20_3" index="3" disallow="bus rail_fast" speed="36.11" length="82.73" width="3.21" customShape="1" shape="-20.63,33.78 -18.00,31.15 -17.79,30.96 -9.97,23.67 -7.17,20.97 -6.99,20.80 1.00,13.55 1.27,13.31 3.88,10.87 4.14,10.63 11.85,3.59 12.02,3.44 14.73,0.91 14.87,0.79 22.88,-6.38 23.05,-6.54 25.75,-9.06 25.87,-9.17 33.91,-16.09 33.99,-16.17 36.85,-18.83 36.97,-18.93 39.54,-21.15"/>
        <lane id="20_4" index="4" disallow="bus truck rail_fast" speed="36.11" length="82.73" width="3.48" customShape="1" shape="-18.20,36.26 -18.04,36.11 -15.39,33.46 -15.15,33.23 -7.52,26.07 -7.24,25.81 -4.63,23.38 -4.33,23.10 3.32,16.10 3.61,15.83 6.23,13.39 6.53,13.11 14.15,6.12 14.44,5.85 17.06,3.41 17.38,3.11 25.16,-3.83 25.46,-4.09 28.09,-6.55 28.43,-6.85 36.28,-13.71 36.57,-13.98 39.22,-16.45 39.59,-16.77 41.75,-18.59"/>
    </edge>

    <junction id="1" type="dead_end" x="-22.99" y="31.37" incLanes="" intLanes="" shape="-16.98,37.50 -28.99,25.26"/>
    <junction id="2" type="priority" x="38.47" y="-24.68" incLanes="17_0 20_0 20_1 20_2 20_3 20_4" intLanes=":2_0_0 :2_1_0 :2_1_1 :2_1_2 :2_1_3 :2_1_4" shape="47.06,-20.79 33.31,-36.61 29.21,-33.01 31.60,-30.27 31.74,-30.12 42.90,-17.28">
        <request index="0" response="000000" foes="000000" cont="0"/>
        <request index="1" response="000000" foes="000000" cont="0"/>
        <request index="2" response="000000" foes="000000" cont="0"/>
        <request index="3" response="000000" foes="000000" cont="0"/>
        <request index="4" response="000000" foes="000000" cont="0"/>
        <request index="5" response="000000" foes="000000" cont="0"/>
    </junction>
    <junction id="3" type="dead_end" x="114.62" y="-93.75" incLanes="16_0 16_1 16_2 16_3 16_4 16_5" intLanes="" shape="107.56,-101.63 121.48,-86.08"/>
    <junction id="4" type="dead_end" x="-33.48" y="20.88" incLanes="" intLanes="" shape="-32.37,22.31 -34.60,19.44"/>

    <connection from="17" to="16" fromLane="0" toLane="0" contPos="-4.00" via=":2_0_0" dir="s" state="M"/>
    <connection from="20" to="16" fromLane="0" toLane="1" contPos="-4.00" via=":2_1_0" dir="s" state="M"/>
    <connection from="20" to="16" fromLane="1" toLane="2" contPos="-4.00" via=":2_1_1" dir="s" state="M"/>
    <connection from="20" to="16" fromLane="2" toLane="3" contPos="-4.00" via=":2_1_2" dir="s" state="M"/>
    <connection from="20" to="16" fromLane="3" toLane="4" contPos="-4.00" via=":2_1_3" dir="s" state="M"/>
    <connection from="20" to="16" fromLane="4" toLane="5" contPos="-4.00" via=":2_1_4" dir="s" state="M"/>

    <connection from=":2_0" to="16" fromLane="0" toLane="0" dir="s" state="M"/>
    <connection from=":2_1" to="16" fromLane="0" toLane="1" dir="s" state="M"/>
    <connection from=":2_1" to="16" fromLane="1" toLane="2" dir="s" state="M"/>
    <connection from=":2_1" to="16" fromLane="2" toLane="3" dir="s" state="M"/>
    <connection from=":2_1" to="16" fromLane="3" toLane="4" dir="s" state="M"/>
    <connection from=":2_1" to="16" fromLane="4" toLane="5" dir="s" state="M"/>

</net>
