<!-- generated on 2020-12-18 15:58:54.492664 by ipykernel_launcher.py v1_2_0+5214-53edc58fcd
-->
<edges>
	<edge from="1" function="normal" id="3498" length="9.586095898357163" numLanes="1" priority="1" speed="36.11111111111111" spreadType="center" to="2">
		<lane allow="moped bicycle pedestrian custom1 trailer evehicle rail_urban ship private truck vip custom2 authority delivery rail_electric taxi tram army hov coach motorcycle passenger bus rail emergency" index="0" length="9.586095898357163" shape="63.14795,50.9876 53.5672,51.3077" speed="36.11111111111111" width="4.771086938004798"/>
	</edge>
	<edge from="2" function="normal" id="3716" length="18.680147901632264" numLanes="1" priority="1" speed="36.11111111111111" spreadType="center" to="3">
		<lane allow="moped bicycle pedestrian custom1 trailer evehicle rail_urban ship private vip custom2 authority delivery rail_electric taxi tram army hov coach motorcycle passenger rail emergency" index="0" length="18.680147901632264" shape="53.5672,51.3077 49.58335,52.7491 46.72775,55.25175 45.676249999999996,57.641850000000005 44.973600000000005,59.6701 45.1186,62.8151 46.10975,65.37004999999999" speed="36.11111111111111" width="3.3538723559491603"/>
	</edge>
	<edge from="4" function="normal" id="3509" length="15.632980848532544" numLanes="3" priority="1" speed="36.11111111111111" spreadType="center" to="5">
		<lane allow="moped bicycle pedestrian custom1 trailer evehicle rail_urban ship private truck vip custom2 authority delivery rail_electric taxi tram army hov coach motorcycle passenger bus rail emergency" index="0" length="15.632980848532544" shape="-47.6451,-14.031749999999999 -43.248900000000006,-16.212600000000002 -33.63845,-20.99615" speed="36.11111111111111" width="3.2317602711216074"/>
		<lane allow="moped bicycle pedestrian custom1 trailer evehicle rail_urban ship private truck vip custom2 authority delivery rail_electric taxi tram army hov coach motorcycle passenger bus rail emergency" index="1" length="15.632980848532544" shape="-46.25555,-11.230699999999999 -41.81815,-13.432 -32.20765,-18.21555" speed="36.11111111111111" width="3.0217924167619445"/>
		<lane allow="moped bicycle pedestrian custom1 trailer evehicle rail_urban ship private truck vip custom2 authority delivery rail_electric taxi tram army hov coach motorcycle passenger bus rail emergency" index="2" length="15.632980848532544" shape="-44.904399999999995,-8.50705 -40.4118,-10.7357 -30.9009,-15.456299999999999" speed="36.11111111111111" width="3.058956104621314"/>
	</edge>
	<edge from="5" function="normal" id="3672" length="43.429643178518916" numLanes="1" priority="1" speed="36.11111111111111" spreadType="center" to="6">
		<lane allow="moped bicycle pedestrian custom1 trailer evehicle rail_urban ship private vip custom2 authority delivery rail_electric taxi tram army hov coach motorcycle passenger rail emergency" index="0" length="43.429643178518916" shape="-30.9009,-15.456299999999999 -25.7437,-17.996650000000002 -22.160899999999998,-19.48115 -18.31505,-20.8398 -15.53435,-21.8101 -13.0484,-22.30695 -10.81355,-22.519350000000003 -8.47735,-22.40235 -6.8328500000000005,-22.26795 -5.7234,-22.011699999999998 -4.78365,-21.4287 -3.8644000000000003,-20.0785 -2.7087000000000003,-18.15015 -0.04125000000000001,-13.912700000000001 1.5325,-10.860949999999999 3.0042500000000003,-7.748800000000001" speed="36.11111111111111" width="2.9171821763475787"/>
	</edge>
	<edge from="6" function="normal" id="3456" length="24.710920579823167" numLanes="3" priority="1" speed="36.11111111111111" spreadType="center" to="7">
		<lane allow="moped bicycle pedestrian custom1 trailer evehicle rail_urban ship private truck vip custom2 authority delivery rail_electric taxi tram army hov coach motorcycle passenger bus rail emergency" index="0" length="24.710920579823167" shape="8.5309,-10.5085 12.1267,-3.3148999999999997 15.98005,4.6022 19.3427,11.7106" speed="36.11111111111111" width="3.047668597469219"/>
		<lane allow="moped bicycle pedestrian custom1 trailer evehicle rail_urban ship private truck vip custom2 authority delivery rail_electric taxi tram army hov coach motorcycle passenger bus rail emergency" index="1" length="24.710920579823167" shape="5.70205,-9.11425 9.56215,-1.5473500000000002 13.240400000000001,6.01825 16.67925,13.0487" speed="36.11111111111111" width="2.9148241130469597"/>
		<lane allow="moped bicycle pedestrian custom1 trailer evehicle rail_urban ship private truck vip custom2 authority delivery rail_electric taxi tram army hov coach motorcycle passenger bus rail emergency" index="2" length="24.710920579823167" shape="3.0042500000000003,-7.748800000000001 6.93275,0.013400000000000023 10.7212,7.715949999999999 14.092749999999999,14.362549999999999" speed="36.11111111111111" width="2.888004380190585"/>
	</edge>
	<edge from="7" function="normal" id="3462" length="8.466645302154806" numLanes="3" priority="1" speed="36.11111111111111" spreadType="center" to="8">
		<lane allow="moped bicycle pedestrian custom1 trailer evehicle rail_urban ship private truck vip custom2 authority delivery rail_electric taxi tram army hov coach motorcycle passenger bus rail emergency" index="0" length="8.466645302154806" shape="19.3427,11.7106 23.222,19.27335" speed="36.11111111111111" width="3.047668597469219"/>
		<lane allow="moped bicycle pedestrian custom1 trailer evehicle rail_urban ship private truck vip custom2 authority delivery rail_electric taxi tram army hov coach motorcycle passenger bus rail emergency" index="1" length="8.466645302154806" shape="16.67925,13.0487 20.49735,20.6584" speed="36.11111111111111" width="2.9148241130469597"/>
		<lane allow="moped bicycle pedestrian custom1 trailer evehicle rail_urban ship private truck vip custom2 authority delivery rail_electric taxi tram army hov coach motorcycle passenger bus rail emergency" index="2" length="8.466645302154806" shape="14.092749999999999,14.362549999999999 17.8334,21.95805" speed="36.11111111111111" width="2.888004380190585"/>
	</edge>
	<edge from="8" function="normal" id="3468" length="22.23819662728308" numLanes="3" priority="1" speed="36.11111111111111" spreadType="center" to="9">
		<lane allow="moped bicycle pedestrian custom1 trailer evehicle rail_urban ship private truck vip custom2 authority delivery rail_electric taxi tram army hov coach motorcycle passenger bus rail emergency" index="0" length="22.23819662728308" shape="23.222,19.27335 27.821350000000002,28.5649 33.198,39.2459" speed="36.11111111111111" width="3.0326639856733197"/>
		<lane allow="moped bicycle pedestrian custom1 trailer evehicle rail_urban ship private truck vip custom2 authority delivery rail_electric taxi tram army hov coach motorcycle passenger bus rail emergency" index="1" length="22.23819662728308" shape="20.49735,20.6584 25.1436,29.980150000000002 30.39545,40.58595" speed="36.11111111111111" width="2.9980111023810427"/>
		<lane allow="moped bicycle pedestrian custom1 trailer evehicle rail_urban ship private truck vip custom2 authority delivery rail_electric taxi tram army hov coach motorcycle passenger bus rail emergency" index="2" length="22.23819662728308" shape="17.8334,21.95805 22.44975,31.357100000000003 27.6391,41.917649999999995" speed="36.11111111111111" width="2.9350875710956243"/>
	</edge>
	<edge from="9" function="normal" id="3713" length="29.14281680783744" numLanes="3" priority="1" speed="36.11111111111111" spreadType="center" to="10">
		<lane allow="moped bicycle pedestrian custom1 trailer evehicle rail_urban ship private truck vip custom2 authority delivery rail_electric taxi tram army hov coach motorcycle passenger bus rail emergency" index="0" length="29.14281680783744" shape="33.198,39.2459 37.114149999999995,47.23905 41.06075,55.1856 44.81685,62.79625 45.9902,65.4288" speed="36.11111111111111" width="3.157633506282831"/>
		<lane allow="moped bicycle pedestrian custom1 trailer evehicle rail_urban ship private truck vip custom2 authority delivery rail_electric taxi tram army hov coach motorcycle passenger rail emergency" index="1" length="29.14281680783744" shape="30.39545,40.58595 33.83295,47.52395 37.77945,55.47055 41.9501,63.96785 43.2351,66.78219999999999" speed="36.11111111111111" width="2.9348672269797813"/>
		<lane allow="moped bicycle pedestrian custom1 trailer evehicle rail_urban ship private truck vip custom2 authority delivery rail_electric taxi tram army hov coach motorcycle passenger bus rail emergency" index="2" length="29.14281680783744" shape="27.6391,41.917649999999995 30.4717,47.6177 34.30645,55.319599999999994 39.144999999999996,65.13095 40.53115,68.11045" speed="36.11111111111111" width="3.067322045367913"/>
	</edge>
	<edge from="5" function="normal" id="3636" length="10.13044496320374" numLanes="2" priority="1" speed="36.11111111111111" spreadType="center" to="11">
		<lane allow="moped bicycle pedestrian custom1 trailer evehicle rail_urban ship private truck vip custom2 authority delivery rail_electric taxi tram army hov coach motorcycle passenger bus rail emergency" index="0" length="10.13044496320374" shape="-33.63845,-20.99615 -24.62735,-25.6815" speed="36.11111111111111" width="3.2321866189934005"/>
		<lane allow="moped bicycle pedestrian custom1 trailer evehicle rail_urban ship private truck vip custom2 authority delivery rail_electric taxi tram army hov coach motorcycle passenger bus rail emergency" index="1" length="10.13044496320374" shape="-32.20765,-18.21555 -23.182949999999998,-22.8178" speed="36.11111111111111" width="3.0254656269738063"/>
	</edge>
	<edge from="11" function="normal" id="3658" length="24.83401336288984" numLanes="2" priority="1" speed="36.11111111111111" spreadType="center" to="12">
		<lane allow="moped bicycle pedestrian custom1 trailer evehicle rail_urban ship private truck vip custom2 authority delivery rail_electric taxi tram army hov coach motorcycle passenger bus rail emergency" index="0" length="24.83401336288984" shape="-24.62735,-25.6815 -21.73155,-27.1874 -19.076050000000002,-28.56815 -16.3591,-29.98085 -13.3708,-31.53475 -10.66915,-32.93965 -8.02445,-34.314800000000005 -5.3088999999999995,-35.7268 -2.53715,-37.168049999999994" speed="36.11111111111111" width="3.30890878840744"/>
		<lane allow="moped bicycle pedestrian custom1 trailer evehicle rail_urban ship private truck vip custom2 authority delivery rail_electric taxi tram army hov coach motorcycle passenger bus rail emergency" index="1" length="24.83401336288984" shape="-23.182949999999998,-22.8178 -20.314950000000003,-24.2804 -17.64395,-25.64245 -14.905650000000001,-27.038800000000002 -11.94105,-28.55055 -9.230599999999999,-29.9328 -6.58065,-31.28405 -3.8462,-32.678349999999995 -1.0594,-34.0995" speed="36.11111111111111" width="3.1057834261261688"/>
	</edge>
	<edge from="12" function="normal" id="3676" length="16.15592838945517" numLanes="2" priority="1" speed="36.11111111111111" spreadType="center" to="13">
		<lane allow="moped bicycle pedestrian custom1 trailer evehicle rail_urban ship private truck vip custom2 authority delivery rail_electric taxi tram army hov coach motorcycle passenger bus rail emergency" index="0" length="16.15592838945517" shape="-2.53715,-37.168049999999994 3.48255,-40.1743 11.916599999999999,-44.386300000000006" speed="36.11111111111111" width="3.5034549033775226"/>
		<lane allow="moped bicycle pedestrian custom1 trailer evehicle rail_urban ship private truck vip custom2 authority delivery rail_electric taxi tram army hov coach motorcycle passenger bus rail emergency" index="1" length="16.15592838945517" shape="-1.0594,-34.0995 4.96525,-37.0848 13.46145,-41.294700000000006" speed="36.11111111111111" width="3.3082245268421513"/>
	</edge>
	<edge from="13" function="normal" id="3525" length="17.28043527267281" numLanes="3" priority="1" speed="36.11111111111111" spreadType="center" to="14">
		<lane allow="moped bicycle pedestrian custom1 trailer evehicle rail_urban ship private truck vip custom2 authority delivery rail_electric taxi tram army hov coach motorcycle passenger bus rail emergency" index="0" length="17.28043527267281" shape="10.29355,-47.7144 19.020850000000003,-52.00945 25.80915,-55.35025" speed="36.11111111111111" width="3.873902747875843"/>
		<lane allow="moped bicycle pedestrian custom1 trailer evehicle rail_urban ship private truck vip custom2 authority delivery rail_electric taxi tram army hov coach motorcycle passenger bus rail emergency" index="1" length="17.28043527267281" shape="11.916599999999999,-44.386300000000006 20.64375,-48.67985 27.442999999999998,-52.0249" speed="36.11111111111111" width="3.5117895381130135"/>
		<lane allow="moped bicycle pedestrian custom1 trailer evehicle rail_urban ship private truck vip custom2 authority delivery rail_electric taxi tram army hov coach motorcycle passenger bus rail emergency" index="2" length="17.28043527267281" shape="13.46145,-41.294700000000006 22.14025,-45.5633 28.9678,-48.921400000000006" speed="36.11111111111111" width="3.379496749517598"/>
	</edge>
	<edge from="5" function="normal" id="3600" length="24.197467511365527" numLanes="1" priority="1" speed="36.11111111111111" spreadType="center" to="15">
		<lane allow="moped bicycle pedestrian custom1 trailer evehicle rail_urban ship private vip custom2 authority delivery rail_electric taxi tram army hov coach motorcycle passenger rail emergency" index="0" length="24.197467511365527" shape="-33.63845,-20.99615 -29.15015,-23.3911 -27.15715,-24.581200000000003 -25.5541,-25.491799999999998 -24.811,-25.97175 -24.3869,-26.55935 -24.351100000000002,-27.366300000000003 -24.7583,-28.777900000000002 -25.5592,-30.74405 -26.53965,-32.8424 -29.332549999999998,-38.84435" speed="36.11111111111111" width="3.2321866189934005"/>
	</edge>
	<edge from="15" function="normal" id="3542" length="74.24617535235409" numLanes="3" priority="1" speed="36.11111111111111" spreadType="center" to="16">
		<lane allow="moped bicycle pedestrian custom1 trailer evehicle rail_urban ship private truck vip custom2 authority delivery rail_electric taxi tram army hov coach motorcycle passenger bus rail emergency" index="0" length="74.24617535235409" shape="-29.332549999999998,-38.84435 -33.49385,-47.38305 -37.5471,-56.313050000000004 -41.31915,-65.03155 -44.9439,-74.2755 -48.6589,-83.33335 -52.34255,-92.36095 -56.0266,-101.4194 -58.313649999999996,-107.2154" speed="36.11111111111111" width="2.8235974571457607"/>
		<lane allow="moped bicycle pedestrian custom1 trailer evehicle rail_urban ship private truck vip custom2 authority delivery rail_electric taxi tram army hov coach motorcycle passenger bus rail emergency" index="1" length="74.24617535235409" shape="-26.4889,-40.337 -30.732300000000002,-48.8918 -34.81445,-57.675200000000004 -38.5551,-66.3634 -42.2091,-75.4837 -45.8622,-84.54255 -49.51365,-93.4782 -53.10495,-102.538 -55.4962,-108.6617" speed="36.11111111111111" width="2.9693589611227558"/>
		<lane allow="moped bicycle pedestrian custom1 trailer evehicle rail_urban ship private truck vip custom2 authority delivery rail_electric taxi tram army hov coach motorcycle passenger bus rail emergency" index="2" length="74.24617535235409" shape="-23.84085,-41.72695 -28.063650000000003,-50.4069 -32.114,-59.1292 -35.88555,-67.81700000000001 -39.3804,-76.61635 -43.0359,-85.84445 -46.68775,-94.81094999999999 -50.15455,-103.81085 -52.6657,-110.11474999999999" speed="36.11111111111111" width="2.962201547835665"/>
	</edge>
	<edge from="17" function="normal" id="3532" length="13.634900230131372" numLanes="2" priority="1" speed="36.11111111111111" spreadType="center" to="18">
		<lane allow="moped bicycle pedestrian custom1 trailer evehicle rail_urban ship private truck vip custom2 authority delivery rail_electric taxi tram army hov coach motorcycle passenger bus rail emergency" index="0" length="13.634900230131372" shape="33.5135,-39.66955 26.580849999999998,-36.280699999999996 21.236449999999998,-33.66815" speed="36.11111111111111" width="3.6072313177837665"/>
		<lane allow="moped bicycle pedestrian custom1 trailer evehicle rail_urban ship private truck vip custom2 authority delivery rail_electric taxi tram army hov coach motorcycle passenger bus rail emergency" index="1" length="13.634900230131372" shape="31.90885,-42.9355 25.05035,-39.582300000000004 19.6595,-36.94685" speed="36.11111111111111" width="3.623546501702443"/>
	</edge>
	<edge from="18" function="normal" id="3534" length="6.575577396130322" numLanes="3" priority="1" speed="36.11111111111111" spreadType="center" to="19">
		<lane allow="moped bicycle pedestrian custom1 trailer evehicle rail_urban ship private truck vip custom2 authority delivery rail_electric taxi tram army hov coach motorcycle passenger bus rail emergency" index="0" length="6.575577396130322" shape="21.236449999999998,-33.66815 16.8136,-27.6463" speed="36.11111111111111" width="3.2457372413675167"/>
		<lane allow="moped bicycle pedestrian custom1 trailer evehicle rail_urban ship private truck vip custom2 authority delivery rail_electric taxi tram army hov coach motorcycle passenger bus rail emergency" index="1" length="6.575577396130322" shape="21.236449999999998,-33.66815 15.32445,-30.72815" speed="36.11111111111111" width="3.602433613545151"/>
		<lane allow="moped bicycle pedestrian custom1 trailer evehicle rail_urban ship private truck vip custom2 authority delivery rail_electric taxi tram army hov coach motorcycle passenger bus rail emergency" index="2" length="6.575577396130322" shape="19.6595,-36.94685 13.77145,-34.019549999999995" speed="36.11111111111111" width="3.6713079753679065"/>
	</edge>
	<edge from="19" function="normal" id="3536" length="6.6083636571393365" numLanes="3" priority="1" speed="36.11111111111111" spreadType="center" to="20">
		<lane allow="moped bicycle pedestrian custom1 trailer evehicle rail_urban ship private truck vip custom2 authority delivery rail_electric taxi tram army hov coach motorcycle passenger bus rail emergency" index="0" length="6.6083636571393365" shape="16.8136,-27.6463 10.83405,-24.75685" speed="36.11111111111111" width="3.190167196245363"/>
		<lane allow="moped bicycle pedestrian custom1 trailer evehicle rail_urban ship private truck vip custom2 authority delivery rail_electric taxi tram army hov coach motorcycle passenger bus rail emergency" index="1" length="6.6083636571393365" shape="15.32445,-30.72815 9.3843,-27.7834" speed="36.11111111111111" width="3.5215687697388507"/>
		<lane allow="moped bicycle pedestrian custom1 trailer evehicle rail_urban ship private truck vip custom2 authority delivery rail_electric taxi tram army hov coach motorcycle passenger bus rail emergency" index="2" length="6.6083636571393365" shape="13.77145,-34.019549999999995 7.8614,-31.0629" speed="36.11111111111111" width="3.677371487897303"/>
	</edge>
	<edge from="20" function="normal" id="3620" length="6.669397413559939" numLanes="2" priority="1" speed="36.11111111111111" spreadType="center" to="21">
		<lane allow="moped bicycle pedestrian custom1 trailer evehicle rail_urban ship private truck vip custom2 authority delivery rail_electric taxi tram army hov coach motorcycle passenger bus rail emergency" index="0" length="6.669397413559939" shape="9.3843,-27.7834 3.4068,-24.8253" speed="36.11111111111111" width="3.455821945644771"/>
		<lane allow="moped bicycle pedestrian custom1 trailer evehicle rail_urban ship private truck vip custom2 authority delivery rail_electric taxi tram army hov coach motorcycle passenger bus rail emergency" index="1" length="6.669397413559939" shape="7.8614,-31.0629 1.8539499999999998,-28.0498" speed="36.11111111111111" width="3.7020390124902787"/>
	</edge>
	<edge from="21" function="normal" id="3662" length="24.644895567956993" numLanes="2" priority="1" speed="36.11111111111111" spreadType="center" to="22">
		<lane allow="moped bicycle pedestrian custom1 trailer evehicle rail_urban ship private truck vip custom2 authority delivery rail_electric taxi tram army hov coach motorcycle passenger bus rail emergency" index="0" length="24.644895567956993" shape="3.4068,-24.8253 0.5902499999999999,-23.431449999999998 -2.18655,-22.057299999999998 -4.83595,-20.7461 -7.55805,-19.39895 -10.42975,-17.97775 -13.21855,-16.5976 -15.9206,-15.2604 -18.6812,-13.8941" speed="36.11111111111111" width="3.2133408160355486"/>
		<lane allow="moped bicycle pedestrian custom1 trailer evehicle rail_urban ship private truck vip custom2 authority delivery rail_electric taxi tram army hov coach motorcycle passenger bus rail emergency" index="1" length="24.644895567956993" shape="1.8539499999999998,-28.0498 -0.95055,-26.6431 -3.7111,-25.25925 -6.35915,-23.9306 -9.075849999999999,-22.56915 -11.97765,-21.11155 -14.7464,-19.721449999999997 -17.43625,-18.37225 -20.2328,-16.9692" speed="36.11111111111111" width="3.6754043750314054"/>
	</edge>
	<edge from="22" function="normal" id="3640" length="10.509859510002977" numLanes="2" priority="1" speed="36.11111111111111" spreadType="center" to="23">
		<lane allow="moped bicycle pedestrian custom1 trailer evehicle rail_urban ship private truck vip custom2 authority delivery rail_electric taxi tram army hov coach motorcycle passenger bus rail emergency" index="0" length="10.509859510002977" shape="-18.6812,-13.8941 -28.5147,-9.072700000000001" speed="36.11111111111111" width="3.167378581729693"/>
		<lane allow="moped bicycle pedestrian custom1 trailer evehicle rail_urban ship private truck vip custom2 authority delivery rail_electric taxi tram army hov coach motorcycle passenger bus rail emergency" index="1" length="10.509859510002977" shape="-20.2328,-16.9692 -29.6504,-12.303799999999999" speed="36.11111111111111" width="3.6754043750314054"/>
	</edge>
	<edge from="23" function="normal" id="3517" length="14.49675390495733" numLanes="3" priority="1" speed="36.11111111111111" spreadType="center" to="24">
		<lane allow="moped bicycle pedestrian custom1 trailer evehicle rail_urban ship private truck vip custom2 authority delivery rail_electric taxi tram army hov coach motorcycle passenger bus rail emergency" index="0" length="14.49675390495733" shape="-26.797400000000003,-4.61875 -36.0109,-0.1793499999999999 -39.7594,1.8645" speed="36.11111111111111" width="5.130906839926057"/>
		<lane allow="moped bicycle pedestrian custom1 trailer evehicle rail_urban ship private truck vip custom2 authority delivery rail_electric taxi tram army hov coach motorcycle passenger bus rail emergency" index="1" length="14.49675390495733" shape="-28.5147,-9.072700000000001 -37.90515,-4.03065 -41.59065,-1.82695" speed="36.11111111111111" width="3.110520139783696"/>
		<lane allow="moped bicycle pedestrian custom1 trailer evehicle rail_urban ship private truck vip custom2 authority delivery rail_electric taxi tram army hov coach motorcycle passenger bus rail emergency" index="2" length="14.49675390495733" shape="-29.6504,-12.303799999999999 -39.4321,-7.056150000000001 -43.0975,-4.8645" speed="36.11111111111111" width="3.664585112942529"/>
	</edge>
	<edge from="20" function="normal" id="3668" length="38.24329000786905" numLanes="1" priority="1" speed="36.11111111111111" spreadType="center" to="15">
		<lane allow="moped bicycle pedestrian custom1 trailer evehicle rail_urban ship private vip custom2 authority delivery rail_electric taxi tram army hov coach motorcycle passenger rail emergency" index="0" length="38.24329000786905" shape="7.8614,-31.0629 4.52435,-29.9542 1.5902,-29.14735 -0.90545,-28.39975 -3.3208,-28.0962 -5.52265,-28.01125 -7.05885,-28.1396 -9.0291,-28.3464 -10.6332,-28.62375 -12.581,-28.9371 -14.389700000000001,-29.6941 -15.9256,-30.944200000000002 -17.36525,-32.8538 -20.06555,-36.531549999999996 -23.84085,-41.72695" speed="36.11111111111111" width="3.0119886487169896"/>
	</edge>
	<edge from="20" function="normal" id="3602" length="16.407319351256646" numLanes="1" priority="1" speed="36.11111111111111" spreadType="center" to="6">
		<lane allow="moped bicycle pedestrian custom1 trailer evehicle rail_urban ship private vip custom2 authority delivery rail_electric taxi tram army hov coach motorcycle passenger rail emergency" index="0" length="16.407319351256646" shape="10.83405,-24.75685 8.981449999999999,-23.4727 7.8314,-22.256 6.903700000000001,-20.627000000000002 6.32625,-18.8183 6.26835,-17.447850000000003 6.6308,-15.3216 7.4818999999999996,-12.946349999999999 8.5309,-10.5085" speed="36.11111111111111" width="2.934720000272598"/>
	</edge>
	<edge from="9" function="normal" id="3718" length="22.831237741532018" numLanes="1" priority="1" speed="36.11111111111111" spreadType="center" to="25">
		<lane allow="moped bicycle pedestrian custom1 trailer evehicle rail_urban ship private vip custom2 authority delivery rail_electric taxi tram army hov coach motorcycle passenger rail emergency" index="0" length="22.831237741532018" shape="33.198,39.2459 35.8197,42.617599999999996 37.88445,44.532799999999995 40.47825,45.7065 45.10655,46.1104 53.3565,46.24765" speed="36.11111111111111" width="3.157633506282831"/>
	</edge>
	<edge from="25" function="normal" id="3500" length="9.586145870473706" numLanes="1" priority="1" speed="36.11111111111111" spreadType="center" to="26">
		<lane allow="moped bicycle pedestrian custom1 trailer evehicle rail_urban ship private truck vip custom2 authority delivery rail_electric taxi tram army hov coach motorcycle passenger bus rail emergency" index="0" length="9.586145870473706" shape="53.3565,46.24765 62.9373,45.92755" speed="36.11111111111111" width="5.358070392408067"/>
	</edge>
	<edge from="27" function="normal" id="3555" length="8.74730251348951" numLanes="4" priority="1" speed="36.11111111111111" spreadType="center" to="28">
		<lane allow="moped bicycle pedestrian custom1 trailer evehicle rail_urban ship private truck vip custom2 authority delivery rail_electric taxi tram army hov coach motorcycle passenger bus rail emergency" index="0" length="8.74730251348951" shape="-39.9942,-116.6197 -36.018,-108.82835" speed="36.11111111111111" width="3.5111446353005746"/>
		<lane allow="moped bicycle pedestrian custom1 trailer evehicle rail_urban ship private truck vip custom2 authority delivery rail_electric taxi tram army hov coach motorcycle passenger bus rail emergency" index="1" length="8.74730251348951" shape="-42.938,-115.10849999999999 -38.9076,-107.22655" speed="36.11111111111111" width="2.9942633818687328"/>
		<lane allow="moped bicycle pedestrian custom1 trailer evehicle rail_urban ship private truck vip custom2 authority delivery rail_electric taxi tram army hov coach motorcycle passenger bus rail emergency" index="2" length="8.74730251348951" shape="-45.6375,-113.72275 -41.5493,-105.6894" speed="36.11111111111111" width="3.012211639310888"/>
		<lane allow="moped bicycle pedestrian custom1 trailer evehicle rail_urban ship private truck vip custom2 authority delivery rail_electric taxi tram army hov coach motorcycle passenger bus rail emergency" index="3" length="8.74730251348951" shape="-48.41545,-112.29665 -44.2345,-104.251" speed="36.11111111111111" width="3.0805742451692346"/>
	</edge>
	<edge from="28" function="normal" id="3559" length="17.692935382095484" numLanes="5" priority="1" speed="36.11111111111111" spreadType="center" to="29">
		<lane allow="moped bicycle pedestrian custom1 trailer evehicle rail_urban ship private truck vip custom2 authority delivery rail_electric taxi tram army hov coach motorcycle passenger bus rail emergency" index="0" length="17.692935382095484" shape="-36.018,-108.82835 -32.6723,-101.86070000000001 -28.163249999999998,-92.78190000000001" speed="36.11111111111111" width="3.5111446353005746"/>
		<lane allow="moped bicycle pedestrian custom1 trailer evehicle rail_urban ship private truck vip custom2 authority delivery rail_electric taxi tram army hov coach motorcycle passenger bus rail emergency" index="1" length="17.692935382095484" shape="-38.9076,-107.22655 -35.5128,-100.3014 -30.9525,-91.19085" speed="36.11111111111111" width="2.8911201583469404"/>
		<lane allow="moped bicycle pedestrian custom1 trailer evehicle rail_urban ship private truck vip custom2 authority delivery rail_electric taxi tram army hov coach motorcycle passenger bus rail emergency" index="2" length="17.692935382095484" shape="-41.5493,-105.6894 -38.202799999999996,-98.90205 -33.6425,-89.79155" speed="36.11111111111111" width="3.012211639310888"/>
		<lane allow="moped bicycle pedestrian custom1 trailer evehicle rail_urban ship private truck vip custom2 authority delivery rail_electric taxi tram army hov coach motorcycle passenger bus rail emergency" index="3" length="17.692935382095484" shape="-44.2345,-104.251 -40.87365,-97.54085 -36.3133,-88.43029999999999" speed="36.11111111111111" width="2.8198292501497306"/>
		<lane allow="moped bicycle pedestrian custom1 trailer evehicle rail_urban ship private truck vip custom2 authority delivery rail_electric taxi tram army hov coach motorcycle passenger rail emergency" index="4" length="17.692935382095484" shape="-44.2345,-104.251 -42.4019,-96.51585 -38.92105,-86.97755000000001" speed="36.11111111111111" width="2.9068515975192177"/>
	</edge>
	<edge from="29" function="normal" id="3568" length="47.08668512312134" numLanes="5" priority="1" speed="36.11111111111111" spreadType="center" to="30">
		<lane allow="moped bicycle pedestrian custom1 trailer evehicle rail_urban ship private truck vip custom2 authority delivery rail_electric taxi tram army hov coach motorcycle passenger bus rail emergency" index="0" length="47.08668512312134" shape="-28.163249999999998,-92.78190000000001 -23.96425,-84.3269 -19.7066,-75.75235 -15.26815,-66.81635 -10.96955,-58.3554 -6.78405,-50.7063" speed="36.11111111111111" width="3.346148869969773"/>