<!-- generated on 2020-12-18 15:58:54.586039 by ipykernel_launcher.py v1_2_0+5214-53edc58fcd
-->
<nodes>
	<node id="1" type="from" x="63.14795" y="50.9876"/>
	<node id="2" type="to" x="53.5672" y="51.3077"/>
	<node id="3" type="to" x="46.10975" y="65.37004999999999"/>
	<node id="4" type="from" x="-46.26835" y="-11.256499999999997"/>
	<node id="5" type="to" x="-32.249" y="-18.222666666666665"/>
	<node id="6" type="to" x="3.0042500000000003" y="-7.748800000000001"/>
	<node id="7" type="to" x="16.7049" y="13.040616666666665"/>
	<node id="8" type="to" x="20.517583333333334" y="20.629933333333334"/>
	<node id="9" type="to" x="30.41085" y="40.58316666666666"/>
	<node id="10" type="to" x="43.25215" y="66.77381666666666"/>
	<node id="11" type="to" x="-23.90515" y="-24.24965"/>
	<node id="12" type="to" x="-1.7982749999999998" y="-35.633775"/>
	<node id="13" type="to" x="12.689024999999999" y="-42.840500000000006"/>
	<node id="14" type="to" x="27.40665" y="-52.098850000000006"/>
	<node id="15" type="to" x="-29.332549999999998" y="-38.84435"/>
	<node id="16" type="to" x="-55.49185" y="-108.66395"/>
	<node id="17" type="from" x="32.711175" y="-41.302525"/>
	<node id="18" type="to" x="20.447975" y="-35.3075"/>
	<node id="19" type="to" x="15.303166666666668" y="-30.798"/>
	<node id="20" type="to" x="9.359916666666667" y="-27.867716666666666"/>
	<node id="21" type="to" x="2.630375" y="-26.43755"/>
	<node id="22" type="to" x="-19.457" y="-15.431650000000001"/>
	<node id="23" type="to" x="-29.08255" y="-10.68825"/>
	<node id="24" type="to" x="-41.48251666666666" y="-1.6089833333333334"/>
	<node id="25" type="to" x="53.3565" y="46.24765"/>
	<node id="26" type="to" x="62.9373" y="45.92755"/>
	<node id="27" type="from" x="-44.2462875" y="-114.4369"/>
	<node id="28" type="to" x="-40.177350000000004" y="-106.49882500000001"/>
	<node id="29" type="to" x="-33.59852" y="-89.83443000000001"/>
	<node id="30" type="to" x="-12.5437" y="-47.66965999999999"/>
	<node id="31" type="to" x="-7.394216666666668" y="-36.59573333333333"/>
	<node id="32" type="to" x="-0.034199999999999786" y="-21.220233333333333"/>
	<node id="33" type="from" x="32.376760000000004" y="72.11608000000001"/>
	<node id="34" type="to" x="19.41812" y="45.74116"/>
	<node id="35" type="to" x="9.65655" y="26.064159999999998"/>
	<node id="36" type="to" x="4.4823916666666666" y="19.148583333333335"/>
	<node id="37" type="to" x="-6.513825" y="-2.947391666666667"/>
	<node id="38" type="to" x="-13.8459" y="-14.469333333333333"/>
	<node id="39" type="to" x="-21.1722" y="-29.36351666666667"/>
</nodes>
