<?xml version="1.0" encoding="UTF-8"?>

<!-- generated on Fri Dec 18 15:58:54 2020 by Eclipse SUMO netconvert Version 1.8.0
<configuration xmlns:xsi="http://www.w3.org/2001/XMLSchema-instance" xsi:noNamespaceSchemaLocation="http://sumo.dlr.de/xsd/netconvertConfiguration.xsd">

    <input>
        <node-files value="./converted_scenarios/NGSIM/Lankershim/USA_Lanker-2_14_I-1-1/nodes.net.xml"/>
        <edge-files value="./converted_scenarios/NGSIM/Lankershim/USA_Lanker-2_14_I-1-1/edges.net.xml"/>
        <connection-files value="./converted_scenarios/NGSIM/Lankershim/USA_Lanker-2_14_I-1-1/_connections.net.xml"/>
        <tllogic-files value="./converted_scenarios/NGSIM/Lankershim/USA_Lanker-2_14_I-1-1/_tll.net.xml"/>
    </input>

    <output>
        <output-file value="./converted_scenarios/NGSIM/Lankershim/USA_Lanker-2_14_I-1-1/USA_Lanker-2_14_I-1-1.net.xml"/>
    </output>

    <processing>
        <plain.extend-edge-shape value="true"/>
        <geometry.remove.keep-edges.explicit value="true"/>
        <geometry.avoid-overlap value="true"/>
        <offset.disable-normalization value="true"/>
    </processing>

    <junctions>
        <no-turnarounds value="true"/>
        <junctions.internal-link-detail value="20"/>
    </junctions>

    <report>
        <aggregate-warnings value="5"/>
    </report>

    <random_number>
        <seed value="1234"/>
    </random_number>

</configuration>
-->

<net version="1.6" junctionCornerDetail="5" junctionLinkDetail="20" limitTurnSpeed="5.50" xmlns:xsi="http://www.w3.org/2001/XMLSchema-instance" xsi:noNamespaceSchemaLocation="http://sumo.dlr.de/xsd/net_file.xsd">

    <location netOffset="0.00,0.00" convBoundary="-55.49,-114.44,63.15,72.12" origBoundary="-58.31,-116.62,63.15,74.74" projParameter="!"/>

    <edge id=":11_0" function="internal">
        <lane id=":11_0_0" index="0" disallow="rail_fast" speed="36.11" length="0.26" width="3.31" shape="-23.08,-26.48 -23.31,-26.37"/>
        <lane id=":11_0_1" index="1" disallow="rail_fast" speed="36.11" length="0.26" width="3.11" shape="-21.61,-23.62 -21.85,-23.50"/>
    </edge>
    <edge id=":12_0" function="internal">
        <lane id=":12_0_0" index="0" disallow="rail_fast" speed="36.11" length="3.06" width="3.50" shape="-3.94,-36.44 -1.20,-37.84"/>
        <lane id=":12_0_1" index="1" disallow="rail_fast" speed="36.11" length="3.06" width="3.31" shape="-2.43,-33.40 0.30,-34.77"/>
    </edge>
    <edge id=":13_0" function="internal">
        <lane id=":13_0_0" index="0" disallow="bus truck rail_fast" speed="11.02" length="10.30" width="3.87" shape="1.46,-46.80 2.13,-46.64 2.73,-46.50 3.28,-46.37 3.79,-46.27 4.26,-46.20 4.70,-46.14 5.12,-46.11 5.51,-46.10 5.90,-46.12 6.27,-46.16 6.65,-46.23 7.03,-46.33 7.43,-46.45 7.85,-46.60 8.29,-46.78 8.77,-46.99 9.28,-47.23 9.84,-47.50 10.46,-47.79"/>
        <lane id=":13_0_1" index="1" disallow="bus truck rail_fast" speed="12.20" length="10.30" width="3.51" shape="1.35,-43.25 2.14,-43.06 2.87,-42.90 3.53,-42.76 4.14,-42.65 4.70,-42.56 5.23,-42.50 5.72,-42.46 6.19,-42.46 6.65,-42.48 7.10,-42.53 7.55,-42.61 8.01,-42.73 8.48,-42.87 8.98,-43.05 9.51,-43.26 10.08,-43.51 10.69,-43.79 11.36,-44.12 12.09,-44.47"/>
    </edge>
    <edge id=":13_2" function="internal">
        <lane id=":13_2_0" index="0" disallow="bus truck rail_fast" speed="36.11" length="11.23" width="3.51" shape="2.13,-39.23 12.09,-44.47"/>
        <lane id=":13_2_1" index="1" disallow="bus truck rail_fast" speed="36.11" length="11.23" width="3.38" shape="3.87,-35.91 4.56,-36.39 5.17,-36.83 5.74,-37.21 6.25,-37.55 6.72,-37.86 7.17,-38.13 7.58,-38.38 7.98,-38.61 8.38,-38.83 8.77,-39.04 9.17,-39.24 9.58,-39.44 10.03,-39.65 10.50,-39.88 11.01,-40.12 11.57,-40.38 12.19,-40.68 12.87,-41.01 13.62,-41.37"/>
    </edge>
    <edge id=":13_4" function="internal">
        <lane id=":13_4_0" index="0" disallow="rail_fast" speed="36.11" length="13.86" width="3.51" shape="-0.32,-38.28 12.09,-44.47"/>
        <lane id=":13_4_1" index="1" disallow="rail_fast" speed="36.11" length="13.86" width="3.38" shape="1.21,-35.22 13.62,-41.37"/>
    </edge>
    <edge id=":15_0" function="internal">
        <lane id=":15_0_0" index="0" disallow="rail_fast" speed="36.11" length="19.07" width="2.82" shape="-22.77,-25.61 -31.22,-42.71"/>
        <lane id=":15_0_1" index="1" disallow="rail_fast" speed="36.11" length="19.07" width="2.97" shape="-20.00,-27.04 -28.39,-44.16"/>
        <lane id=":15_0_2" index="2" disallow="rail_fast" speed="36.11" length="19.07" width="2.96" shape="-17.30,-28.43 -25.70,-45.54"/>
    </edge>
    <edge id=":15_3" function="internal">
        <lane id=":15_3_0" index="0" disallow="bus truck rail_fast" speed="13.68" length="23.17" width="2.96" shape="-10.88,-28.66 -11.63,-28.83 -12.39,-29.07 -13.15,-29.39 -13.92,-29.79 -14.68,-30.28 -15.45,-30.84 -16.23,-31.49 -17.00,-32.22 -17.78,-33.03 -18.56,-33.91 -19.34,-34.88 -20.13,-35.93 -20.91,-37.06 -21.70,-38.27 -22.50,-39.57 -23.29,-40.94 -24.09,-42.39 -24.89,-43.93 -25.70,-45.54"/>
    </edge>
    <edge id=":15_4" function="internal">
        <lane id=":15_4_0" index="0" disallow="bus truck rail_fast" speed="36.11" length="4.30" width="2.82" shape="-29.33,-38.84 -31.22,-42.71"/>
    </edge>
    <edge id=":18_0" function="internal">
        <lane id=":18_0_0" index="0" disallow="rail_fast" speed="14.45" length="8.28" width="3.25" shape="24.88,-35.45 24.34,-35.19 23.85,-34.94 23.41,-34.72 23.01,-34.51 22.65,-34.30 22.32,-34.11 22.02,-33.92 21.74,-33.72 21.48,-33.52 21.23,-33.31 20.99,-33.08 20.75,-32.84 20.51,-32.57 20.26,-32.28 20.00,-31.95 19.73,-31.60 19.43,-31.20 19.10,-30.76 18.74,-30.27"/>
        <lane id=":18_0_1" index="1" disallow="rail_fast" speed="36.11" length="8.28" width="3.60" shape="24.88,-35.45 17.65,-31.89"/>
        <lane id=":18_0_2" index="2" disallow="rail_fast" speed="36.11" length="8.28" width="3.67" shape="23.30,-38.73 15.59,-34.93"/>
    </edge>
    <edge id=":19_0" function="internal">
        <lane id=":19_0_0" index="0" disallow="rail_fast" speed="9.74" length="3.41" width="3.19" shape="17.41,-28.45 17.24,-28.24 17.09,-28.05 16.95,-27.88 16.81,-27.73 16.68,-27.61 16.55,-27.50 16.42,-27.40 16.29,-27.32 16.17,-27.24 16.03,-27.17 15.89,-27.11 15.75,-27.05 15.59,-26.99 15.43,-26.92 15.25,-26.85 15.06,-26.77 14.85,-26.68 14.62,-26.58 14.37,-26.47"/>
        <lane id=":19_0_1" index="1" disallow="rail_fast" speed="36.11" length="3.41" width="3.52" shape="15.93,-31.03 12.90,-29.52"/>
        <lane id=":19_0_2" index="2" disallow="rail_fast" speed="36.11" length="3.41" width="3.68" shape="14.12,-34.19 11.32,-32.79"/>
    </edge>
    <edge id=":2_0" function="internal">
        <lane id=":2_0_0" index="0" disallow="bus truck rail_fast" speed="8.75" length="5.40" width="3.35" shape="53.96,51.29 53.57,51.31 53.21,51.32 52.89,51.34 52.59,51.36 52.32,51.39 52.06,51.42 51.83,51.47 51.60,51.52 51.39,51.58 51.19,51.66 50.99,51.75 50.79,51.86 50.59,51.98 50.38,52.13 50.16,52.29 49.92,52.47 49.67,52.68 49.40,52.91 49.10,53.17"/>
    </edge>
    <edge id=":20_0" function="internal">
        <lane id=":20_0_0" index="0" disallow="bus truck rail_fast" speed="14.27" length="3.68" width="2.93" shape="11.75,-25.20 11.50,-25.08 11.28,-24.98 11.07,-24.88 10.89,-24.80 10.72,-24.72 10.56,-24.64 10.42,-24.57 10.28,-24.50 10.15,-24.43 10.02,-24.36 9.90,-24.27 9.78,-24.19 9.65,-24.09 9.52,-23.98 9.38,-23.86 9.23,-23.72 9.07,-23.56 8.90,-23.39 8.71,-23.19"/>
    </edge>
    <edge id=":20_1" function="internal">
        <lane id=":20_1_0" index="0" disallow="rail_fast" speed="36.11" length="4.87" width="3.46" shape="10.30,-28.24 5.95,-26.08"/>
        <lane id=":20_1_1" index="1" disallow="rail_fast" speed="36.11" length="4.87" width="3.70" shape="8.74,-31.50 4.37,-29.31"/>
    </edge>
    <edge id=":20_3" function="internal">
        <lane id=":20_3_0" index="0" disallow="bus truck rail_fast" speed="36.11" length="4.93" width="3.01" shape="8.74,-31.50 8.41,-31.34 8.11,-31.19 7.84,-31.06 7.59,-30.95 7.36,-30.84 7.15,-30.75 6.96,-30.67 6.77,-30.60 6.58,-30.53 6.40,-30.47 6.21,-30.41 6.01,-30.35 5.80,-30.30 5.58,-30.24 5.34,-30.17 5.08,-30.10 4.79,-30.02 4.47,-29.94 4.11,-29.84"/>
    </edge>
    <edge id=":21_0" function="internal">
        <lane id=":21_0_0" index="0" disallow="rail_fast" speed="36.11" length="3.05" width="3.21" shape="4.77,-25.50 2.04,-24.15"/>
        <lane id=":21_0_1" index="1" disallow="rail_fast" speed="36.11" length="3.05" width="3.68" shape="3.19,-28.72 0.47,-27.35"/>
    </edge>
    <edge id=":22_0" function="internal">
        <lane id=":22_0_0" index="0" disallow="rail_fast" speed="36.11" length="10.83" width="3.17" shape="-9.48,-18.45 -19.19,-13.64"/>
        <lane id=":22_0_1" index="1" disallow="rail_fast" speed="36.11" length="10.83" width="3.68" shape="-11.05,-21.58 -20.73,-16.72"/>
    </edge>
    <edge id=":22_2" function="internal">
        <lane id=":22_2_0" index="0" disallow="bus truck rail_fast" speed="9.83" length="11.33" width="3.68" shape="-14.10,-25.35 -14.22,-24.74 -14.37,-24.15 -14.54,-23.58 -14.74,-23.02 -14.96,-22.48 -15.21,-21.96 -15.48,-21.45 -15.78,-20.97 -16.11,-20.49 -16.46,-20.04 -16.83,-19.60 -17.23,-19.18 -17.65,-18.78 -18.10,-18.39 -18.58,-18.03 -19.08,-17.67 -19.60,-17.34 -20.15,-17.02 -20.73,-16.72"/>
    </edge>
    <edge id=":23_0" function="internal">
        <lane id=":23_0_0" index="0" disallow="bus truck rail_fast" speed="36.11" length="4.83" width="5.13" shape="-33.35,-2.49 -28.67,-3.71"/>
    </edge>
    <edge id=":23_1" function="internal">
        <lane id=":23_1_0" index="0" disallow="rail_fast" speed="36.11" length="4.52" width="3.11" shape="-26.43,-10.09 -30.47,-8.02"/>
        <lane id=":23_1_1" index="1" disallow="rail_fast" speed="36.11" length="4.52" width="3.66" shape="-27.76,-13.24 -31.77,-11.17"/>
    </edge>
    <edge id=":25_0" function="internal">
        <lane id=":25_0_0" index="0" disallow="bus truck rail_fast" speed="36.11" length="2.87" width="5.36" shape="51.92,46.22 54.79,46.20"/>
    </edge>
    <edge id=":28_0" function="internal">
        <lane id=":28_0_0" index="0" disallow="rail_fast" speed="36.11" length="7.96" width="3.51" shape="-37.56,-111.85 -33.95,-104.52"/>
        <lane id=":28_0_1" index="1" disallow="rail_fast" speed="36.11" length="7.96" width="2.89" shape="-40.46,-110.26 -36.87,-103.07"/>
        <lane id=":28_0_2" index="2" disallow="rail_fast" speed="36.11" length="7.96" width="3.01" shape="-43.13,-108.81 -39.60,-101.73"/>
        <lane id=":28_0_3" index="3" disallow="rail_fast" speed="36.11" length="7.96" width="2.82" shape="-45.84,-107.33 -42.30,-100.39"/>
        <lane id=":28_0_4" index="4" disallow="bus rail_fast" speed="36.11" length="7.96" width="2.91" shape="-45.84,-107.33 -45.57,-106.81 -45.32,-106.34 -45.11,-105.91 -44.92,-105.52 -44.75,-105.16 -44.60,-104.82 -44.47,-104.51 -44.34,-104.21 -44.24,-103.91 -44.14,-103.61 -44.04,-103.31 -43.95,-103.00 -43.86,-102.67 -43.77,-102.31 -43.68,-101.92 -43.58,-101.50 -43.47,-101.03 -43.35,-100.51 -43.21,-99.94"/>
    </edge>
    <edge id=":29_0" function="internal">
        <lane id=":29_0_0" index="0" disallow="rail_fast" speed="36.11" length="3.88" width="3.35" shape="-29.17,-94.81 -27.47,-91.39"/>
        <lane id=":29_0_1" index="1" disallow="rail_fast" speed="36.11" length="3.88" width="2.89" shape="-32.02,-93.33 -30.30,-89.89"/>
        <lane id=":29_0_2" index="2" disallow="rail_fast" speed="36.11" length="3.88" width="3.08" shape="-34.71,-91.93 -32.98,-88.47"/>
        <lane id=":29_0_3" index="3" disallow="rail_fast" speed="36.11" length="3.88" width="2.82" shape="-37.38,-90.55 -35.63,-87.07"/>
        <lane id=":29_0_4" index="4" disallow="bus rail_fast" speed="36.11" length="3.88" width="3.05" shape="-39.77,-89.31 -39.67,-89.03 -39.58,-88.78 -39.50,-88.56 -39.43,-88.35 -39.36,-88.16 -39.30,-87.99 -39.24,-87.83 -39.18,-87.68 -39.12,-87.53 -39.07,-87.38 -39.01,-87.24 -38.94,-87.09 -38.88,-86.93 -38.80,-86.76 -38.72,-86.58 -38.62,-86.38 -38.52,-86.17 -38.41,-85.93 -38.28,-85.66"/>
    </edge>
    <edge id=":30_0" function="internal">
        <lane id=":30_0_0" index="0" disallow="bus truck rail_fast" speed="10.23" length="10.24" width="3.11" shape="-7.74,-52.46 -7.51,-52.06 -7.25,-51.67 -6.97,-51.29 -6.67,-50.93 -6.34,-50.58 -5.99,-50.24 -5.62,-49.91 -5.23,-49.60 -4.82,-49.30 -4.38,-49.02 -3.92,-48.74 -3.43,-48.48 -2.93,-48.24 -2.40,-48.00 -1.85,-47.78 -1.27,-47.57 -0.68,-47.38 -0.06,-47.19 0.58,-47.02"/>
    </edge>
    <edge id=":30_1" function="internal">
        <lane id=":30_1_0" index="0" disallow="bus truck rail_fast" speed="11.58" length="11.05" width="3.13" shape="-10.80,-50.86 -10.44,-50.14 -10.09,-49.51 -9.77,-48.94 -9.44,-48.43 -9.13,-47.98 -8.81,-47.58 -8.49,-47.22 -8.16,-46.90 -7.81,-46.61 -7.45,-46.35 -7.06,-46.11 -6.64,-45.88 -6.19,-45.67 -5.71,-45.45 -5.18,-45.23 -4.60,-45.00 -3.97,-44.75 -3.29,-44.48 -2.54,-44.19"/>
    </edge>
    <edge id=":30_2" function="internal">
        <lane id=":30_2_0" index="0" disallow="rail_fast" speed="36.11" length="10.45" width="3.12" shape="-10.80,-50.86 -6.23,-41.30"/>
        <lane id=":30_2_1" index="1" disallow="rail_fast" speed="36.11" length="10.45" width="3.06" shape="-13.53,-49.42 -9.03,-39.98"/>
        <lane id=":30_2_2" index="2" disallow="rail_fast" speed="36.11" length="10.45" width="2.98" shape="-16.23,-48.00 -11.77,-38.70"/>
    </edge>
    <edge id=":30_5" function="internal">
        <lane id=":30_5_0" index="0" disallow="bus truck rail_fast" speed="36.11" length="10.20" width="2.87" shape="-18.91,-46.59 -18.58,-45.90 -18.27,-45.28 -17.99,-44.73 -17.74,-44.22 -17.51,-43.75 -17.29,-43.32 -17.10,-42.92 -16.91,-42.53 -16.74,-42.16 -16.57,-41.79 -16.41,-41.41 -16.24,-41.02 -16.08,-40.61 -15.91,-40.17 -15.72,-39.69 -15.53,-39.17 -15.33,-38.59 -15.10,-37.95 -14.85,-37.24"/>
    </edge>
    <edge id=":31_0" function="internal">
        <lane id=":31_0_0" index="0" disallow="rail_fast" speed="36.11" length="3.22" width="3.12" shape="-5.35,-39.44 -3.97,-36.54"/>
        <lane id=":31_0_1" index="1" disallow="rail_fast" speed="36.11" length="3.22" width="3.06" shape="-8.11,-38.04 -6.72,-35.14"/>
        <lane id=":31_0_2" index="2" disallow="rail_fast" speed="36.11" length="3.22" width="2.95" shape="-10.80,-36.67 -9.41,-33.77"/>
    </edge>
    <edge id=":32_0" function="internal">
        <lane id=":32_0_0" index="0" disallow="rail_fast" speed="36.11" length="2.64" width="3.14" shape="2.08,-23.95 3.23,-21.56"/>
        <lane id=":32_0_1" index="1" disallow="rail_fast" speed="36.11" length="2.64" width="3.10" shape="-0.72,-22.59 0.42,-20.20"/>
        <lane id=":32_0_2" index="2" disallow="rail_fast" speed="36.11" length="2.64" width="2.93" shape="-3.45,-21.27 -2.31,-18.89"/>
    </edge>
    <edge id=":34_0" function="internal">
        <lane id=":34_0_0" index="0" disallow="rail_fast" speed="36.11" length="3.05" width="2.78" shape="14.76,49.74 13.41,47.01"/>
        <lane id=":34_0_1" index="1" disallow="rail_fast" speed="36.11" length="3.05" width="3.00" shape="17.36,48.48 16.01,45.74"/>
        <lane id=":34_0_2" index="2" disallow="bus rail_fast" speed="36.11" length="3.05" width="3.02" shape="20.09,47.16 18.74,44.42"/>
        <lane id=":34_0_3" index="3" disallow="bus rail_fast" speed="36.11" length="3.05" width="2.96" shape="22.81,45.84 21.46,43.10"/>
        <lane id=":34_0_4" index="4" disallow="rail_fast" speed="36.11" length="3.05" width="3.03" shape="25.53,44.52 24.17,41.79"/>
    </edge>
    <edge id=":35_0" function="internal">
        <lane id=":35_0_0" index="0" disallow="rail_fast" speed="21.96" length="7.43" width="2.94" shape="5.41,31.14 5.15,30.64 4.91,30.19 4.69,29.80 4.48,29.44 4.28,29.12 4.09,28.83 3.90,28.57 3.70,28.33 3.51,28.10 3.30,27.88 3.09,27.66 2.86,27.44 2.62,27.22 2.35,26.98 2.07,26.72 1.76,26.45 1.41,26.14 1.04,25.80 0.63,25.41"/>
        <lane id=":35_0_1" index="1" disallow="rail_fast" speed="36.11" length="7.43" width="2.94" shape="5.41,31.14 2.10,24.58"/>
        <lane id=":35_0_2" index="2" disallow="rail_fast" speed="36.11" length="7.43" width="3.05" shape="8.07,29.79 4.74,23.08"/>
        <lane id=":35_0_3" index="3" disallow="rail_fast" speed="36.11" length="7.43" width="3.03" shape="10.80,28.41 7.40,21.57"/>
        <lane id=":35_0_4" index="4" disallow="rail_fast" speed="36.11" length="7.43" width="3.05" shape="13.53,27.04 10.06,20.07"/>
        <lane id=":35_0_5" index="5" disallow="rail_fast" speed="36.11" length="7.43" width="3.12" shape="16.28,25.65 13.29,19.58"/>
    </edge>
    <edge id=":36_0" function="internal">
        <lane id=":36_0_0" index="0" disallow="rail_fast" speed="15.71" length="3.50" width="3.22" shape="0.25,25.05 0.04,24.87 -0.15,24.71 -0.33,24.57 -0.50,24.44 -0.66,24.34 -0.81,24.24 -0.95,24.15 -1.09,24.07 -1.22,23.98 -1.35,23.90 -1.47,23.81 -1.59,23.71 -1.71,23.61 -1.83,23.48 -1.95,23.34 -2.06,23.18 -2.19,23.00 -2.31,22.79 -2.44,22.54"/>
        <lane id=":36_0_1" index="1" disallow="rail_fast" speed="36.11" length="3.50" width="2.87" shape="1.91,24.20 0.39,21.18"/>
        <lane id=":36_0_2" index="2" disallow="rail_fast" speed="36.11" length="3.50" width="3.00" shape="4.61,22.81 3.14,19.85"/>
        <lane id=":36_0_3" index="3" disallow="rail_fast" speed="36.11" length="3.50" width="3.02" shape="7.32,21.41 5.87,18.51"/>
        <lane id=":36_0_4" index="4" disallow="rail_fast" speed="36.11" length="3.50" width="3.02" shape="10.01,19.98 8.59,17.13"/>
        <lane id=":36_0_5" index="5" disallow="rail_fast" speed="36.11" length="3.50" width="3.03" shape="13.20,19.41 11.37,15.71"/>
    </edge>
    <edge id=":37_0" function="internal">
        <lane id=":37_0_0" index="0" disallow="bus truck rail_fast" speed="36.11" length="4.73" width="3.84" shape="-11.98,3.58 -12.15,3.27 -12.29,2.98 -12.41,2.72 -12.53,2.48 -12.63,2.27 -12.73,2.07 -12.82,1.88 -12.91,1.71 -12.99,1.54 -13.08,1.37 -13.18,1.21 -13.28,1.04 -13.39,0.87 -13.51,0.69 -13.65,0.50 -13.81,0.29 -13.98,0.06 -14.18,-0.19 -14.40,-0.47"/>
    </edge>
    <edge id=":37_1" function="internal">
        <lane id=":37_1_0" index="0" disallow="rail_fast" speed="36.11" length="5.10" width="2.87" shape="-9.02,2.07 -11.32,-2.52"/>
        <lane id=":37_1_1" index="1" disallow="rail_fast" speed="36.11" length="5.10" width="3.02" shape="-6.37,0.72 -8.67,-3.84"/>
        <lane id=":37_1_2" index="2" disallow="rail_fast" speed="36.11" length="5.10" width="3.12" shape="-3.64,-0.68 -5.89,-5.21"/>
    </edge>
    <edge id=":37_4" function="internal">
        <lane id=":37_4_0" index="0" disallow="bus truck rail_fast" speed="36.11" length="5.03" width="2.93" shape="-0.89,-2.08 -3.14,-6.58"/>
    </edge>
    <edge id=":37_5" function="internal">
        <lane id=":37_5_0" index="0" disallow="bus truck rail_fast" speed="36.11" length="4.99" width="3.03" shape="1.82,-3.46 -0.41,-7.93"/>
    </edge>
    <edge id=":38_0" function="internal">
        <lane id=":38_0_0" index="0" disallow="rail_fast" speed="36.11" length="3.02" width="3.06" shape="-15.91,-11.76 -17.25,-14.47"/>
        <lane id=":38_0_1" index="1" disallow="rail_fast" speed="36.11" length="3.02" width="2.99" shape="-13.19,-13.10 -14.51,-15.81"/>
        <lane id=":38_0_2" index="2" disallow="rail_fast" speed="36.11" length="3.02" width="3.06" shape="-10.43,-14.45 -11.76,-17.16"/>
    </edge>
    <edge id=":39_0" function="internal">
        <lane id=":39_0_0" index="0" disallow="rail_fast" speed="36.11" length="1.22" width="3.29" shape="-23.22,-26.52 -22.68,-25.43"/>
        <lane id=":39_0_1" index="1" disallow="rail_fast" speed="36.11" length="1.22" width="2.97" shape="-20.44,-27.96 -19.91,-26.86"/>
        <lane id=":39_0_2" index="2" disallow="rail_fast" speed="36.11" length="1.22" width="3.01" shape="-17.75,-29.34 -17.21,-28.25"/>
    </edge>
    <edge id=":5_0" function="internal">
        <lane id=":5_0_0" index="0" disallow="bus truck rail_fast" speed="8.72" length="16.70" width="3.23" shape="-35.55,-20.04 -34.31,-20.68 -33.16,-21.31 -32.08,-21.95 -31.09,-22.58 -30.18,-23.21 -29.35,-23.84 -28.61,-24.46 -27.94,-25.09 -27.36,-25.71 -26.86,-26.33 -26.45,-26.95 -26.11,-27.57 -25.86,-28.19 -25.69,-28.81 -25.60,-29.42 -25.60,-30.03 -25.68,-30.64 -25.84,-31.25 -26.08,-31.86"/>
    </edge>
    <edge id=":5_1" function="internal">
        <lane id=":5_1_0" index="0" disallow="rail_fast" speed="36.11" length="13.86" width="3.23" shape="-35.55,-20.04 -23.26,-26.39"/>
        <lane id=":5_1_1" index="1" disallow="rail_fast" speed="36.11" length="13.86" width="3.03" shape="-34.17,-17.24 -21.79,-23.53"/>
    </edge>
    <edge id=":5_3" function="internal">
        <lane id=":5_3_0" index="0" disallow="bus truck rail_fast" speed="36.11" length="1.56" width="2.92" shape="-32.81,-14.51 -34.21,-13.82"/>
    </edge>
    <edge id=":6_0" function="internal">
        <lane id=":6_0_0" index="0" disallow="bus truck rail_fast" speed="9.12" length="13.80" width="3.05" shape="8.16,-22.60 7.79,-22.17 7.47,-21.72 7.19,-21.23 6.96,-20.72 6.77,-20.18 6.63,-19.61 6.54,-19.02 6.49,-18.39 6.49,-17.74 6.53,-17.06 6.62,-16.35 6.75,-15.61 6.93,-14.84 7.15,-14.05 7.42,-13.22 7.74,-12.37 8.10,-11.49 8.51,-10.59 8.96,-9.65"/>
    </edge>
    <edge id=":6_1" function="internal">
        <lane id=":6_1_0" index="0" disallow="rail_fast" speed="36.11" length="13.06" width="3.05" shape="3.32,-21.38 8.96,-9.65"/>
        <lane id=":6_1_1" index="1" disallow="rail_fast" speed="36.11" length="13.06" width="2.91" shape="0.50,-20.02 6.15,-8.24"/>
        <lane id=":6_1_2" index="2" disallow="rail_fast" speed="36.11" length="13.06" width="2.89" shape="-2.23,-18.71 3.44,-6.89"/>
    </edge>
    <edge id=":6_4" function="internal">
        <lane id=":6_4_0" index="0" disallow="bus truck rail_fast" speed="36.11" length="13.55" width="2.89" shape="-3.08,-18.77 3.44,-6.89"/>
    </edge>
    <edge id=":7_0" function="internal">
        <lane id=":7_0_0" index="0" disallow="rail_fast" speed="36.11" length="0.24" width="3.05" shape="19.29,11.61 19.40,11.81"/>
        <lane id=":7_0_1" index="1" disallow="rail_fast" speed="36.11" length="0.24" width="2.91" shape="16.63,12.94 16.73,13.16"/>
        <lane id=":7_0_2" index="2" disallow="rail_fast" speed="36.11" length="0.24" width="2.89" shape="14.03,14.24 14.14,14.46"/>
    </edge>
    <edge id=":8_0" function="internal">
        <lane id=":8_0_0" index="0" disallow="rail_fast" speed="36.11" length="3.05" width="3.03" shape="22.51,17.89 23.89,20.62"/>
        <lane id=":8_0_1" index="1" disallow="rail_fast" speed="36.11" length="3.05" width="3.00" shape="19.79,19.25 21.15,21.97"/>
        <lane id=":8_0_2" index="2" disallow="rail_fast" speed="36.11" length="3.05" width="2.94" shape="17.15,20.57 18.49,23.30"/>
    </edge>
    <edge id=":9_0" function="internal">
        <lane id=":9_0_0" index="0" disallow="bus truck rail_fast" speed="10.11" length="13.46" width="3.16" shape="32.14,37.15 32.58,37.99 33.02,38.79 33.48,39.54 33.94,40.26 34.40,40.93 34.88,41.55 35.36,42.14 35.84,42.68 36.34,43.18 36.84,43.63 37.35,44.05 37.87,44.42 38.39,44.74 38.92,45.03 39.46,45.27 40.01,45.47 40.56,45.63 41.12,45.74 41.69,45.81"/>
    </edge>
    <edge id=":9_1" function="internal">
        <lane id=":9_1_0" index="0" disallow="rail_fast" speed="36.11" length="13.11" width="3.16" shape="32.14,37.15 37.95,48.91"/>
        <lane id=":9_1_1" index="1" disallow="bus rail_fast" speed="36.11" length="13.11" width="2.93" shape="29.36,38.50 35.19,50.25"/>
        <lane id=":9_1_2" index="2" disallow="rail_fast" speed="36.11" length="13.11" width="3.07" shape="26.62,39.84 32.44,51.58"/>
    </edge>

    <edge id="3426" from="34" to="35" priority="1" spreadType="center" length="21.90">
        <lane id="3426_0" index="0" disallow="rail_fast" speed="36.11" length="21.90" width="2.78" customShape="1" shape="13.41,47.01 8.93,38.11 5.41,31.14"/>
        <lane id="3426_1" index="1" disallow="rail_fast" speed="36.11" length="21.90" width="3.00" customShape="1" shape="16.01,45.74 11.59,36.86 8.07,29.79"/>
        <lane id="3426_2" index="2" disallow="rail_fast" speed="36.11" length="21.90" width="3.02" customShape="1" shape="18.74,44.42 14.27,35.42 10.80,28.41"/>
        <lane id="3426_3" index="3" disallow="rail_fast" speed="36.11" length="21.90" width="2.96" customShape="1" shape="21.46,43.10 16.96,33.97 13.53,27.04"/>
        <lane id="3426_4" index="4" disallow="rail_fast" speed="36.11" length="21.90" width="3.03" customShape="1" shape="24.17,41.79 19.68,32.59 16.28,25.65"/>
    </edge>
    <edge id="3438" from="35" to="36" priority="1" spreadType="center" length="8.44">
        <lane id="3438_0" index="0" disallow="rail_fast" speed="36.11" length="8.44" width="2.94" customShape="1" shape="0.63,25.41 0.25,25.05"/>
        <lane id="3438_1" index="1" disallow="rail_fast" speed="36.11" length="8.44" width="2.94" customShape="1" shape="2.10,24.58 1.91,24.20"/>
        <lane id="3438_2" index="2" disallow="rail_fast" speed="36.11" length="8.44" width="3.05" customShape="1" shape="4.74,23.08 4.61,22.81"/>
        <lane id="3438_3" index="3" disallow="rail_fast" speed="36.11" length="8.44" width="3.03" customShape="1" shape="7.40,21.57 7.32,21.41"/>
        <lane id="3438_4" index="4" disallow="rail_fast" speed="36.11" length="8.44" width="3.05" customShape="1" shape="10.06,20.07 10.01,19.98"/>
        <lane id="3438_5" index="5" disallow="rail_fast" speed="36.11" length="8.44" width="3.12" customShape="1" shape="13.29,19.58 13.20,19.41"/>
    </edge>
    <edge id="3450" from="36" to="37" priority="1" spreadType="center" length="24.49">
        <lane id="3450_0" index="0" disallow="rail_fast" speed="36.11" length="24.49" width="3.22" customShape="1" shape="-2.44,22.54 -5.62,16.28 -9.41,8.59 -11.98,3.58"/>
        <lane id="3450_1" index="1" disallow="rail_fast" speed="36.11" length="24.49" width="2.87" customShape="1" shape="0.39,21.18 -2.62,15.13 -6.44,7.18 -9.02,2.07"/>
        <lane id="3450_2" index="2" disallow="rail_fast" speed="36.11" length="24.49" width="3.00" customShape="1" shape="3.14,19.85 0.11,13.80 -3.74,5.85 -6.37,0.72"/>
        <lane id="3450_3" index="3" disallow="rail_fast" speed="36.11" length="24.49" width="3.02" customShape="1" shape="5.87,18.51 2.78,12.35 -1.10,4.40 -3.64,-0.68"/>
        <lane id="3450_4" index="4" disallow="rail_fast" speed="36.11" length="24.49" width="3.02" customShape="1" shape="8.59,17.13 5.47,10.89 1.58,2.94 -0.89,-2.08"/>
        <lane id="3450_5" index="5" disallow="rail_fast" speed="36.11" length="24.49" width="3.03" customShape="1" shape="11.37,15.71 8.16,9.39 4.28,1.44 1.82,-3.46"/>
    </edge>
    <edge id="3456" from="6" to="7" priority="1" spreadType="center" length="24.71">
        <lane id="3456_0" index="0" disallow="rail_fast" speed="36.11" length="24.71" width="3.05" customShape="1" shape="8.96,-9.65 12.13,-3.31 15.98,4.60 19.29,11.61"/>
        <lane id="3456_1" index="1" disallow="rail_fast" speed="36.11" length="24.71" width="2.91" customShape="1" shape="6.15,-8.24 9.56,-1.55 13.24,6.02 16.63,12.94"/>
        <lane id="3456_2" index="2" disallow="rail_fast" speed="36.11" length="24.71" width="2.89" customShape="1" shape="3.44,-6.89 6.93,0.01 10.72,7.72 14.03,14.24"/>
    </edge>
    <edge id="3462" from="7" to="8" priority="1" spreadType="center" length="8.47">
        <lane id="3462_0" index="0" disallow="rail_fast" speed="36.11" length="8.47" width="3.05" customShape="1" shape="19.40,11.81 22.51,17.89"/>
        <lane id="3462_1" index="1" disallow="rail_fast" speed="36.11" length="8.47" width="2.91" customShape="1" shape="16.73,13.16 19.79,19.25"/>
        <lane id="3462_2" index="2" disallow="rail_fast" speed="36.11" length="8.47" width="2.89" customShape="1" shape="14.14,14.46 17.15,20.57"/>
    </edge>
    <edge id="3468" from="8" to="9" priority="1" spreadType="center" length="22.24">
        <lane id="3468_0" index="0" disallow="rail_fast" speed="36.11" length="22.24" width="3.03" customShape="1" shape="23.89,20.62 27.82,28.56 32.14,37.15"/>
        <lane id="3468_1" index="1" disallow="rail_fast" speed="36.11" length="22.24" width="3.00" customShape="1" shape="21.15,21.97 25.14,29.98 29.36,38.50"/>
        <lane id="3468_2" index="2" disallow="rail_fast" speed="36.11" length="22.24" width="2.94" customShape="1" shape="18.49,23.30 22.45,31.36 26.62,39.84"/>
    </edge>
    <edge id="3498" from="1" to="2" priority="1" spreadType="center" length="9.59">
        <lane id="3498_0" index="0" disallow="rail_fast" speed="36.11" length="9.59" width="4.77" customShape="1" shape="63.15,50.99 53.96,51.29"/>
    </edge>
    <edge id="3500" from="25" to="26" priority="1" spreadType="center" length="9.59">
        <lane id="3500_0" index="0" disallow="rail_fast" speed="36.11" length="9.59" width="5.36" customShape="1" shape="54.79,46.20 62.94,45.93"/>
    </edge>
    <edge id="3509" from="4" to="5" priority="1" spreadType="center" length="15.63">
        <lane id="3509_0" index="0" disallow="rail_fast" speed="36.11" length="15.63" width="3.23" customShape="1" shape="-47.65,-14.03 -43.25,-16.21 -35.55,-20.04"/>
        <lane id="3509_1" index="1" disallow="rail_fast" speed="36.11" length="15.63" width="3.02" customShape="1" shape="-46.26,-11.23 -41.82,-13.43 -34.17,-17.24"/>
        <lane id="3509_2" index="2" disallow="rail_fast" speed="36.11" length="15.63" width="3.06" customShape="1" shape="-44.90,-8.51 -40.41,-10.74 -32.81,-14.51"/>
    </edge>
    <edge id="3517" from="23" to="24" priority="1" spreadType="center" length="14.50">
        <lane id="3517_0" index="0" disallow="rail_fast" speed="36.11" length="14.50" width="5.13" acceleration="1" customShape="1" shape="-28.67,-3.71 -36.01,-0.18 -39.63,1.79"/>
        <lane id="3517_1" index="1" disallow="rail_fast" speed="36.11" length="14.50" width="3.11" customShape="1" shape="-30.47,-8.02 -37.91,-4.03 -41.60,-1.82"/>
        <lane id="3517_2" index="2" disallow="rail_fast" speed="36.11" length="14.50" width="3.66" customShape="1" shape="-31.77,-11.17 -39.43,-7.06 -43.22,-4.79"/>
    </edge>