<routes>
	<vehicle depart="0.1" departLane="0" departPos="4.5562276252846265" departSpeed="1.9658994" id="3110" type="bicycle">
		<route edges="31869 31872"/>
	</vehicle>
	<vehicle depart="0.1" departLane="0" departPos="30.421128366211978" departSpeed="4.1716542" id="310" type="passenger">
		<route edges="32085 31872"/>
	</vehicle>
	<vehicle depart="0.1" departLane="0" departPos="84.97958816771977" departSpeed="4.608593" id="319" type="passenger">
		<route edges="31871 31868"/>
	</vehicle>
	<vehicle depart="0.1" departLane="0" departPos="96.7996339688046" departSpeed="7.8480635" id="320" type="passenger">
		<route edges="31871 31868"/>
	</vehicle>
	<vehicle depart="0.1" departLane="0" departPos="8.804048397284891" departSpeed="5.6356795" id="331" type="passenger">
		<route edges=":64_2 31872"/>
	</vehicle>
	<vehicle depart="0.1" departLane="0" departPos="6.7610249977336805" departSpeed="3.5755514" id="398" type="passenger">
		<route edges="31872 31185"/>
	</vehicle>
	<vehicle depart="0.1" departLane="0" departPos="30.051795079177896" departSpeed="4.8340784" id="3102" type="passenger">
		<route edges=":64_3 31872 31185"/>
	</vehicle>
	<vehicle depart="0.1" departLane="0" departPos="11.44550124413912" departSpeed="1.2500597e-05" id="3105" type="passenger">
		<route edges=":64_3 31872"/>
	</vehicle>
	<vehicle depart="0.1" departLane="0" departPos="23.199410904169877" departSpeed="1.5419731" id="3107" type="passenger">
		<route edges="31869 31872"/>
	</vehicle>
	<vehicle depart="0.1" departLane="0" departPos="12.31076915496239" departSpeed="2.8486533" id="3109" type="truck">
		<route edges="31869 31872"/>
	</vehicle>
</routes>
