<routes>
	<vehicle depart="0.1" departLane="0" departPos="38.415229585470044" departSpeed="2.3526649" id="314" type="passenger">
		<route edges=":50_1 2647"/>
	</vehicle>
	<vehicle depart="0.1" departLane="0" departPos="72.49999923444985" departSpeed="2.696368" id="317" type="passenger">
		<route edges="2646 1702 1755"/>
	</vehicle>
	<vehicle depart="0.1" departLane="0" departPos="62.74225369764521" departSpeed="1.4954406" id="318" type="passenger">
		<route edges="2646 1702"/>
	</vehicle>
	<vehicle depart="0.1" departLane="0" departPos="54.74511373598989" departSpeed="0.60613881" id="325" type="passenger">
		<route edges="2646 1702"/>
	</vehicle>
	<vehicle depart="0.1" departLane="0" departPos="47.166546710986175" departSpeed="0.15231132" id="329" type="passenger">
		<route edges="2646 1702"/>
	</vehicle>
	<vehicle depart="0.1" departLane="0" departPos="34.57308270926382" departSpeed="0.040321432" id="341" type="passenger">
		<route edges="2646 1702"/>
	</vehicle>
	<vehicle depart="0.1" departLane="0" departPos="26.965454696705763" departSpeed="0.11205316" id="350" type="passenger">
		<route edges="2646 1702"/>
	</vehicle>
	<vehicle depart="0.1" departLane="0" departPos="19.203948206560373" departSpeed="0.26993175" id="356" type="passenger">
		<route edges="2646 1702"/>
	</vehicle>
	<vehicle depart="0.1" departLane="0" departPos="39.61538728998836" departSpeed="0.036675225" id="334" type="motorcycle">
		<route edges="2646 1702"/>
	</vehicle>
	<vehicle depart="0.1" departLane="0" departPos="7.312945562228871" departSpeed="11.901966" id="320" type="truck">
		<route edges="2647"/>
	</vehicle>
</routes>
