<routes>
	<vehicle depart="0.1" departLane="0" departPos="20.720456136712574" departSpeed="0.63287758" id="315" type="bicycle">
		<route edges=":17_6 38215"/>
	</vehicle>
	<vehicle depart="0.1" departLane="0" departPos="6.504759093761311" departSpeed="0.35529621" id="317" type="bicycle">
		<route edges=":17_6 38215"/>
	</vehicle>
	<vehicle depart="0.1" departLane="0" departPos="8.13202470404918" departSpeed="8.9205448" id="32" type="passenger">
		<route edges=":17_0 37691"/>
	</vehicle>
	<vehicle depart="0.1" departLane="0" departPos="47.997327038396094" departSpeed="7.4252146" id="39" type="passenger">
		<route edges="38214 37691"/>
	</vehicle>
	<vehicle depart="0.1" departLane="0" departPos="18.135521907777566" departSpeed="9.4768025" id="314" type="passenger">
		<route edges=":17_1 38030"/>
	</vehicle>
	<vehicle depart="0.1" departLane="0" departPos="71.17932718910924" departSpeed="0.40235629" id="320" type="passenger">
		<route edges="37690 38215"/>
	</vehicle>
	<vehicle depart="0.1" departLane="0" departPos="17.981201332593827" departSpeed="4.2002942" id="322" type="passenger">
		<route edges="38214 37691"/>
	</vehicle>
	<vehicle depart="0.1" departLane="0" departPos="63.53157048036437" departSpeed="0.506592" id="325" type="passenger">
		<route edges="37690 38030"/>
	</vehicle>
	<vehicle depart="0.1" departLane="0" departPos="54.98955085407113" departSpeed="1.0420278" id="329" type="passenger">
		<route edges="37690 38030"/>
	</vehicle>
	<vehicle depart="0.1" departLane="0" departPos="68.06077672164032" departSpeed="0.20273082" id="30" type="truck">
		<route edges="38029 37699"/>
	</vehicle>
</routes>
