<!-- generated on 2020-12-18 16:00:11.821898 by ipykernel_launcher.py v1_2_0+5214-53edc58fcd
-->
<edges>
	<edge from="1" function="normal" id="3498" length="9.586095898357156" numLanes="1" priority="1" speed="36.11111111111111" spreadType="center" to="2">
		<lane allow="moped bicycle pedestrian custom1 trailer evehicle rail_urban ship private truck vip custom2 authority delivery rail_electric taxi tram army hov coach motorcycle passenger bus rail emergency" index="0" length="9.586095898357156" shape="86.27895,119.98310000000001 76.6982,120.3032" speed="36.11111111111111" width="4.771086938004798"/>
	</edge>
	<edge from="2" function="normal" id="3716" length="18.680147901632267" numLanes="1" priority="1" speed="36.11111111111111" spreadType="center" to="3">
		<lane allow="moped bicycle pedestrian custom1 trailer evehicle rail_urban ship private vip custom2 authority delivery rail_electric taxi tram army hov coach motorcycle passenger rail emergency" index="0" length="18.680147901632267" shape="76.6982,120.3032 72.71435,121.74459999999999 69.85875,124.24725000000001 68.80725000000001,126.63735 68.1046,128.66559999999998 68.24959999999999,131.81060000000002 69.24075,134.36554999999998" speed="36.11111111111111" width="3.353872355949154"/>
	</edge>
	<edge from="4" function="normal" id="3509" length="15.632980848532547" numLanes="3" priority="1" speed="36.11111111111111" spreadType="center" to="5">
		<lane allow="moped bicycle pedestrian custom1 trailer evehicle rail_urban ship private truck vip custom2 authority delivery rail_electric taxi tram army hov coach motorcycle passenger bus rail emergency" index="0" length="15.632980848532547" shape="-24.5141,54.96375 -20.1179,52.7829 -10.507449999999999,47.99935" speed="36.11111111111111" width="3.2317602711216056"/>
		<lane allow="moped bicycle pedestrian custom1 trailer evehicle rail_urban ship private truck vip custom2 authority delivery rail_electric taxi tram army hov coach motorcycle passenger bus rail emergency" index="1" length="15.632980848532547" shape="-23.12455,57.764799999999994 -18.687150000000003,55.563500000000005 -9.07665,50.77995" speed="36.11111111111111" width="3.0217924167619463"/>
		<lane allow="moped bicycle pedestrian custom1 trailer evehicle rail_urban ship private truck vip custom2 authority delivery rail_electric taxi tram army hov coach motorcycle passenger bus rail emergency" index="2" length="15.632980848532547" shape="-21.7734,60.48845 -17.2808,58.2598 -7.7699,53.5392" speed="36.11111111111111" width="3.058956104621318"/>
	</edge>
	<edge from="5" function="normal" id="3672" length="43.429643178518916" numLanes="1" priority="1" speed="36.11111111111111" spreadType="center" to="6">
		<lane allow="moped bicycle pedestrian custom1 trailer evehicle rail_urban ship private vip custom2 authority delivery rail_electric taxi tram army hov coach motorcycle passenger rail emergency" index="0" length="43.429643178518916" shape="-7.7699,53.5392 -2.6127000000000002,50.998850000000004 0.9701,49.51435 4.81595,48.155699999999996 7.59665,47.1854 10.0826,46.688550000000006 12.317450000000001,46.476150000000004 14.653649999999999,46.59315 16.29815,46.72755 17.407600000000002,46.9838 18.34735,47.5668 19.2666,48.917 20.4223,50.845349999999996 23.089750000000002,55.0828 24.6635,58.134550000000004 26.13525,61.246700000000004" speed="36.11111111111111" width="2.9171821763475787"/>
	</edge>
	<edge from="6" function="normal" id="3456" length="24.710920579823156" numLanes="3" priority="1" speed="36.11111111111111" spreadType="center" to="7">
		<lane allow="moped bicycle pedestrian custom1 trailer evehicle rail_urban ship private truck vip custom2 authority delivery rail_electric taxi tram army hov coach motorcycle passenger bus rail emergency" index="0" length="24.710920579823156" shape="31.661900000000003,58.487 35.2577,65.6806 39.11105,73.5977 42.4737,80.70609999999999" speed="36.11111111111111" width="3.0476685974692197"/>
		<lane allow="moped bicycle pedestrian custom1 trailer evehicle rail_urban ship private truck vip custom2 authority delivery rail_electric taxi tram army hov coach motorcycle passenger bus rail emergency" index="1" length="24.710920579823156" shape="28.83305,59.88125 32.69315,67.44815 36.3714,75.01375 39.810249999999996,82.04419999999999" speed="36.11111111111111" width="2.9148241130469597"/>
		<lane allow="moped bicycle pedestrian custom1 trailer evehicle rail_urban ship private truck vip custom2 authority delivery rail_electric taxi tram army hov coach motorcycle passenger bus rail emergency" index="2" length="24.710920579823156" shape="26.13525,61.246700000000004 30.06375,69.00890000000001 33.852199999999996,76.71145 37.223749999999995,83.35804999999999" speed="36.11111111111111" width="2.888004380190589"/>
	</edge>
	<edge from="7" function="normal" id="3462" length="8.466645302154818" numLanes="3" priority="1" speed="36.11111111111111" spreadType="center" to="8">
		<lane allow="moped bicycle pedestrian custom1 trailer evehicle rail_urban ship private truck vip custom2 authority delivery rail_electric taxi tram army hov coach motorcycle passenger bus rail emergency" index="0" length="8.466645302154818" shape="42.4737,80.70609999999999 46.352999999999994,88.26885" speed="36.11111111111111" width="3.0476685974692197"/>
		<lane allow="moped bicycle pedestrian custom1 trailer evehicle rail_urban ship private truck vip custom2 authority delivery rail_electric taxi tram army hov coach motorcycle passenger bus rail emergency" index="1" length="8.466645302154818" shape="39.810249999999996,82.04419999999999 43.62835,89.6539" speed="36.11111111111111" width="2.9148241130469597"/>
		<lane allow="moped bicycle pedestrian custom1 trailer evehicle rail_urban ship private truck vip custom2 authority delivery rail_electric taxi tram army hov coach motorcycle passenger bus rail emergency" index="2" length="8.466645302154818" shape="37.223749999999995,83.35804999999999 40.9644,90.95355" speed="36.11111111111111" width="2.888004380190589"/>
	</edge>
	<edge from="8" function="normal" id="3468" length="22.23819662728308" numLanes="3" priority="1" speed="36.11111111111111" spreadType="center" to="9">
		<lane allow="moped bicycle pedestrian custom1 trailer evehicle rail_urban ship private truck vip custom2 authority delivery rail_electric taxi tram army hov coach motorcycle passenger bus rail emergency" index="0" length="22.23819662728308" shape="46.352999999999994,88.26885 50.952349999999996,97.5604 56.329,108.2414" speed="36.11111111111111" width="3.0326639856733215"/>
		<lane allow="moped bicycle pedestrian custom1 trailer evehicle rail_urban ship private truck vip custom2 authority delivery rail_electric taxi tram army hov coach motorcycle passenger bus rail emergency" index="1" length="22.23819662728308" shape="43.62835,89.6539 48.2746,98.97565 53.52645,109.58144999999999" speed="36.11111111111111" width="2.998011102381041"/>
		<lane allow="moped bicycle pedestrian custom1 trailer evehicle rail_urban ship private truck vip custom2 authority delivery rail_electric taxi tram army hov coach motorcycle passenger bus rail emergency" index="2" length="22.23819662728308" shape="40.9644,90.95355 45.58075,100.3526 50.7701,110.91315" speed="36.11111111111111" width="2.9350875710956243"/>
	</edge>
	<edge from="9" function="normal" id="3713" length="29.142816807837438" numLanes="3" priority="1" speed="36.11111111111111" spreadType="center" to="10">
		<lane allow="moped bicycle pedestrian custom1 trailer evehicle rail_urban ship private truck vip custom2 authority delivery rail_electric taxi tram army hov coach motorcycle passenger bus rail emergency" index="0" length="29.142816807837438" shape="56.329,108.2414 60.245149999999995,116.23455 64.19175,124.1811 67.94785,131.79175 69.1212,134.4243" speed="36.11111111111111" width="3.1576335062828216"/>
		<lane allow="moped bicycle pedestrian custom1 trailer evehicle rail_urban ship private truck vip custom2 authority delivery rail_electric taxi tram army hov coach motorcycle passenger rail emergency" index="1" length="29.142816807837438" shape="53.52645,109.58144999999999 56.96395,116.51945 60.91045,124.46605 65.0811,132.96335 66.3661,135.77769999999998" speed="36.11111111111111" width="2.9348672269797813"/>
		<lane allow="moped bicycle pedestrian custom1 trailer evehicle rail_urban ship private truck vip custom2 authority delivery rail_electric taxi tram army hov coach motorcycle passenger bus rail emergency" index="2" length="29.142816807837438" shape="50.7701,110.91315 53.6027,116.6132 57.43745,124.3151 62.275999999999996,134.12645 63.662150000000004,137.10595" speed="36.11111111111111" width="3.067322045367913"/>
	</edge>
	<edge from="5" function="normal" id="3636" length="10.130444963203738" numLanes="2" priority="1" speed="36.11111111111111" spreadType="center" to="11">
		<lane allow="moped bicycle pedestrian custom1 trailer evehicle rail_urban ship private truck vip custom2 authority delivery rail_electric taxi tram army hov coach motorcycle passenger bus rail emergency" index="0" length="10.130444963203738" shape="-10.507449999999999,47.99935 -1.49635,43.314" speed="36.11111111111111" width="3.2321866189934076"/>
		<lane allow="moped bicycle pedestrian custom1 trailer evehicle rail_urban ship private truck vip custom2 authority delivery rail_electric taxi tram army hov coach motorcycle passenger bus rail emergency" index="1" length="10.130444963203738" shape="-9.07665,50.77995 -0.051949999999999996,46.1777" speed="36.11111111111111" width="3.0254656269738054"/>
	</edge>
	<edge from="11" function="normal" id="3658" length="24.83401336288985" numLanes="2" priority="1" speed="36.11111111111111" spreadType="center" to="12">
		<lane allow="moped bicycle pedestrian custom1 trailer evehicle rail_urban ship private truck vip custom2 authority delivery rail_electric taxi tram army hov coach motorcycle passenger bus rail emergency" index="0" length="24.83401336288985" shape="-1.49635,43.314 1.3994499999999999,41.808099999999996 4.05495,40.42735 6.7719000000000005,39.01465 9.760200000000001,37.460750000000004 12.46185,36.05585 15.10655,34.6807 17.8221,33.2687 20.59385,31.82745" speed="36.11111111111111" width="3.3089087884074475"/>
		<lane allow="moped bicycle pedestrian custom1 trailer evehicle rail_urban ship private truck vip custom2 authority delivery rail_electric taxi tram army hov coach motorcycle passenger bus rail emergency" index="1" length="24.83401336288985" shape="-0.051949999999999996,46.1777 2.8160499999999997,44.7151 5.48705,43.353049999999996 8.22535,41.9567 11.18995,40.444950000000006 13.900400000000001,39.0627 16.55035,37.71145 19.2848,36.31715 22.0716,34.896" speed="36.11111111111111" width="3.1057834261261648"/>
	</edge>
	<edge from="12" function="normal" id="3676" length="16.15592838945517" numLanes="2" priority="1" speed="36.11111111111111" spreadType="center" to="13">
		<lane allow="moped bicycle pedestrian custom1 trailer evehicle rail_urban ship private truck vip custom2 authority delivery rail_electric taxi tram army hov coach motorcycle passenger bus rail emergency" index="0" length="16.15592838945517" shape="20.59385,31.82745 26.61355,28.821199999999997 35.0476,24.6092" speed="36.11111111111111" width="3.5034549033775257"/>
		<lane allow="moped bicycle pedestrian custom1 trailer evehicle rail_urban ship private truck vip custom2 authority delivery rail_electric taxi tram army hov coach motorcycle passenger bus rail emergency" index="1" length="16.15592838945517" shape="22.0716,34.896 28.096249999999998,31.9107 36.59245,27.7008" speed="36.11111111111111" width="3.3082245268421517"/>
	</edge>
	<edge from="13" function="normal" id="3525" length="17.280435272672808" numLanes="3" priority="1" speed="36.11111111111111" spreadType="center" to="14">
		<lane allow="moped bicycle pedestrian custom1 trailer evehicle rail_urban ship private truck vip custom2 authority delivery rail_electric taxi tram army hov coach motorcycle passenger bus rail emergency" index="0" length="17.280435272672808" shape="33.424549999999996,21.281100000000002 42.151849999999996,16.98605 48.94015,13.64525" speed="36.11111111111111" width="3.8739027478758414"/>
		<lane allow="moped bicycle pedestrian custom1 trailer evehicle rail_urban ship private truck vip custom2 authority delivery rail_electric taxi tram army hov coach motorcycle passenger bus rail emergency" index="1" length="17.280435272672808" shape="35.0476,24.6092 43.77475,20.315649999999998 50.574,16.9706" speed="36.11111111111111" width="3.511789538113011"/>
		<lane allow="moped bicycle pedestrian custom1 trailer evehicle rail_urban ship private truck vip custom2 authority delivery rail_electric taxi tram army hov coach motorcycle passenger bus rail emergency" index="2" length="17.280435272672808" shape="36.59245,27.7008 45.27125,23.4322 52.0988,20.0741" speed="36.11111111111111" width="3.3794967495175916"/>
	</edge>
	<edge from="5" function="normal" id="3600" length="24.19746751136553" numLanes="1" priority="1" speed="36.11111111111111" spreadType="center" to="15">
		<lane allow="moped bicycle pedestrian custom1 trailer evehicle rail_urban ship private vip custom2 authority delivery rail_electric taxi tram army hov coach motorcycle passenger rail emergency" index="0" length="24.19746751136553" shape="-10.507449999999999,47.99935 -6.01915,45.6044 -4.0261499999999995,44.4143 -2.4231,43.503699999999995 -1.68,43.02375 -1.2559,42.43615 -1.2201,41.6292 -1.6273,40.217600000000004 -2.4282,38.25145 -3.4086499999999997,36.153099999999995 -6.20155,30.15115" speed="36.11111111111111" width="3.2321866189934076"/>
	</edge>
	<edge from="15" function="normal" id="3542" length="74.24617535235409" numLanes="3" priority="1" speed="36.11111111111111" spreadType="center" to="16">
		<lane allow="moped bicycle pedestrian custom1 trailer evehicle rail_urban ship private truck vip custom2 authority delivery rail_electric taxi tram army hov coach motorcycle passenger bus rail emergency" index="0" length="74.24617535235409" shape="-6.20155,30.15115 -10.36285,21.61245 -14.4161,12.68245 -18.18815,3.96395 -21.8129,-5.279999999999999 -25.5279,-14.33785 -29.21155,-23.36545 -32.8956,-32.4239 -35.18265,-38.219899999999996" speed="36.11111111111111" width="2.823597457145759"/>
		<lane allow="moped bicycle pedestrian custom1 trailer evehicle rail_urban ship private truck vip custom2 authority delivery rail_electric taxi tram army hov coach motorcycle passenger bus rail emergency" index="1" length="74.24617535235409" shape="-3.3579,28.6585 -7.6013,20.1037 -11.68345,11.3203 -15.4241,2.6321000000000003 -19.0781,-6.4882 -22.7312,-15.54705 -26.382649999999998,-24.4827 -29.973950000000002,-33.542500000000004 -32.3652,-39.6662" speed="36.11111111111111" width="2.9693589611227553"/>
		<lane allow="moped bicycle pedestrian custom1 trailer evehicle rail_urban ship private truck vip custom2 authority delivery rail_electric taxi tram army hov coach motorcycle passenger bus rail emergency" index="2" length="74.24617535235409" shape="-0.7098499999999999,27.268549999999998 -4.932650000000001,18.5886 -8.983,9.866299999999999 -12.75455,1.1785 -16.2494,-7.620850000000001 -19.904899999999998,-16.848950000000002 -23.55675,-25.81545 -27.02355,-34.815349999999995 -29.5347,-41.11925" speed="36.11111111111111" width="2.962201547835666"/>
	</edge>
	<edge from="17" function="normal" id="3532" length="13.634900230131372" numLanes="2" priority="1" speed="36.11111111111111" spreadType="center" to="18">
		<lane allow="moped bicycle pedestrian custom1 trailer evehicle rail_urban ship private truck vip custom2 authority delivery rail_electric taxi tram army hov coach motorcycle passenger bus rail emergency" index="0" length="13.634900230131372" shape="56.6445,29.32595 49.71185,32.714800000000004 44.367450000000005,35.32735" speed="36.11111111111111" width="3.607231317783765"/>
		<lane allow="moped bicycle pedestrian custom1 trailer evehicle rail_urban ship private truck vip custom2 authority delivery rail_electric taxi tram army hov coach motorcycle passenger bus rail emergency" index="1" length="13.634900230131372" shape="55.03985,26.060000000000002 48.181349999999995,29.4132 42.7905,32.04865" speed="36.11111111111111" width="3.623546501702438"/>
	</edge>
	<edge from="18" function="normal" id="3534" length="6.575577396130318" numLanes="3" priority="1" speed="36.11111111111111" spreadType="center" to="19">
		<lane allow="moped bicycle pedestrian custom1 trailer evehicle rail_urban ship private truck vip custom2 authority delivery rail_electric taxi tram army hov coach motorcycle passenger bus rail emergency" index="0" length="6.575577396130318" shape="44.367450000000005,35.32735 39.944599999999994,41.349199999999996" speed="36.11111111111111" width="3.2457372413675167"/>
		<lane allow="moped bicycle pedestrian custom1 trailer evehicle rail_urban ship private truck vip custom2 authority delivery rail_electric taxi tram army hov coach motorcycle passenger bus rail emergency" index="1" length="6.575577396130318" shape="44.367450000000005,35.32735 38.45545,38.26735" speed="36.11111111111111" width="3.60243361354515"/>
		<lane allow="moped bicycle pedestrian custom1 trailer evehicle rail_urban ship private truck vip custom2 authority delivery rail_electric taxi tram army hov coach motorcycle passenger bus rail emergency" index="2" length="6.575577396130318" shape="42.7905,32.04865 36.90245,34.97595" speed="36.11111111111111" width="3.6713079753679114"/>
	</edge>
	<edge from="19" function="normal" id="3536" length="6.608363657139337" numLanes="3" priority="1" speed="36.11111111111111" spreadType="center" to="20">
		<lane allow="moped bicycle pedestrian custom1 trailer evehicle rail_urban ship private truck vip custom2 authority delivery rail_electric taxi tram army hov coach motorcycle passenger bus rail emergency" index="0" length="6.608363657139337" shape="39.944599999999994,41.349199999999996 33.96505,44.23865000000001" speed="36.11111111111111" width="3.190167196245363"/>
		<lane allow="moped bicycle pedestrian custom1 trailer evehicle rail_urban ship private truck vip custom2 authority delivery rail_electric taxi tram army hov coach motorcycle passenger bus rail emergency" index="1" length="6.608363657139337" shape="38.45545,38.26735 32.515299999999996,41.21210000000001" speed="36.11111111111111" width="3.5215687697388494"/>
		<lane allow="moped bicycle pedestrian custom1 trailer evehicle rail_urban ship private truck vip custom2 authority delivery rail_electric taxi tram army hov coach motorcycle passenger bus rail emergency" index="2" length="6.608363657139337" shape="36.90245,34.97595 30.992400000000004,37.9326" speed="36.11111111111111" width="3.677371487897301"/>
	</edge>
	<edge from="20" function="normal" id="3620" length="6.669397413559929" numLanes="2" priority="1" speed="36.11111111111111" spreadType="center" to="21">
		<lane allow="moped bicycle pedestrian custom1 trailer evehicle rail_urban ship private truck vip custom2 authority delivery rail_electric taxi tram army hov coach motorcycle passenger bus rail emergency" index="0" length="6.669397413559929" shape="32.515299999999996,41.21210000000001 26.5378,44.170199999999994" speed="36.11111111111111" width="3.4558219456447685"/>
		<lane allow="moped bicycle pedestrian custom1 trailer evehicle rail_urban ship private truck vip custom2 authority delivery rail_electric taxi tram army hov coach motorcycle passenger bus rail emergency" index="1" length="6.669397413559929" shape="30.992400000000004,37.9326 24.984949999999998,40.9457" speed="36.11111111111111" width="3.7020390124902796"/>
	</edge>
	<edge from="21" function="normal" id="3662" length="24.644895567957004" numLanes="2" priority="1" speed="36.11111111111111" spreadType="center" to="22">
		<lane allow="moped bicycle pedestrian custom1 trailer evehicle rail_urban ship private truck vip custom2 authority delivery rail_electric taxi tram army hov coach motorcycle passenger bus rail emergency" index="0" length="24.644895567957004" shape="26.5378,44.170199999999994 23.721249999999998,45.564049999999995 20.94445,46.938199999999995 18.29505,48.2494 15.572949999999999,49.59655 12.70125,51.01775000000001 9.91245,52.3979 7.2104,53.7351 4.4498,55.1014" speed="36.11111111111111" width="3.2133408160355486"/>
		<lane allow="moped bicycle pedestrian custom1 trailer evehicle rail_urban ship private truck vip custom2 authority delivery rail_electric taxi tram army hov coach motorcycle passenger bus rail emergency" index="1" length="24.644895567957004" shape="24.984949999999998,40.9457 22.18045,42.3524 19.4199,43.73625 16.77185,45.0649 14.055150000000001,46.42635 11.15335,47.88395 8.3846,49.27405 5.694750000000001,50.62325 2.8982,52.0263" speed="36.11111111111111" width="3.6754043750314103"/>
	</edge>
	<edge from="22" function="normal" id="3640" length="10.509859510002975" numLanes="2" priority="1" speed="36.11111111111111" spreadType="center" to="23">
		<lane allow="moped bicycle pedestrian custom1 trailer evehicle rail_urban ship private truck vip custom2 authority delivery rail_electric taxi tram army hov coach motorcycle passenger bus rail emergency" index="0" length="10.509859510002975" shape="4.4498,55.1014 -5.383699999999999,59.9228" speed="36.11111111111111" width="3.1673785817296918"/>
		<lane allow="moped bicycle pedestrian custom1 trailer evehicle rail_urban ship private truck vip custom2 authority delivery rail_electric taxi tram army hov coach motorcycle passenger bus rail emergency" index="1" length="10.509859510002975" shape="2.8982,52.0263 -6.5194,56.6917" speed="36.11111111111111" width="3.6754043750314103"/>
	</edge>
	<edge from="23" function="normal" id="3517" length="14.49675390495733" numLanes="3" priority="1" speed="36.11111111111111" spreadType="center" to="24">
		<lane allow="moped bicycle pedestrian custom1 trailer evehicle rail_urban ship private truck vip custom2 authority delivery rail_electric taxi tram army hov coach motorcycle passenger bus rail emergency" index="0" length="14.49675390495733" shape="-3.6664,64.37675 -12.8799,68.81615 -16.6284,70.86" speed="36.11111111111111" width="5.1309068399260465"/>
		<lane allow="moped bicycle pedestrian custom1 trailer evehicle rail_urban ship private truck vip custom2 authority delivery rail_electric taxi tram army hov coach motorcycle passenger bus rail emergency" index="1" length="14.49675390495733" shape="-5.383699999999999,59.9228 -14.77415,64.96485 -18.45965,67.16855000000001" speed="36.11111111111111" width="3.110520139783702"/>
		<lane allow="moped bicycle pedestrian custom1 trailer evehicle rail_urban ship private truck vip custom2 authority delivery rail_electric taxi tram army hov coach motorcycle passenger bus rail emergency" index="2" length="14.49675390495733" shape="-6.5194,56.6917 -16.301099999999998,61.939350000000005 -19.9665,64.131" speed="36.11111111111111" width="3.6645851129425298"/>
	</edge>
	<edge from="20" function="normal" id="3668" length="38.24329000786906" numLanes="1" priority="1" speed="36.11111111111111" spreadType="center" to="15">
		<lane allow="moped bicycle pedestrian custom1 trailer evehicle rail_urban ship private vip custom2 authority delivery rail_electric taxi tram army hov coach motorcycle passenger rail emergency" index="0" length="38.24329000786906" shape="30.992400000000004,37.9326 27.65535,39.0413 24.7212,39.848150000000004 22.22555,40.59575 19.810200000000002,40.8993 17.60835,40.98425 16.07215,40.855900000000005 14.1019,40.649100000000004 12.4978,40.37175 10.55,40.058400000000006 8.7413,39.3014 7.2054,38.0513 5.76575,36.1417 3.06545,32.46395 -0.7098499999999999,27.268549999999998" speed="36.11111111111111" width="3.0119886487169896"/>
	</edge>
	<edge from="20" function="normal" id="3602" length="16.407319351256643" numLanes="1" priority="1" speed="36.11111111111111" spreadType="center" to="6">
		<lane allow="moped bicycle pedestrian custom1 trailer evehicle rail_urban ship private vip custom2 authority delivery rail_electric taxi tram army hov coach motorcycle passenger rail emergency" index="0" length="16.407319351256643" shape="33.96505,44.23865000000001 32.112449999999995,45.522800000000004 30.962400000000002,46.7395 30.0347,48.3685 29.457250000000002,50.1772 29.39935,51.547650000000004 29.7618,53.6739 30.6129,56.04915 31.661900000000003,58.487" speed="36.11111111111111" width="2.9347200002725997"/>
	</edge>
	<edge from="9" function="normal" id="3718" length="22.83123774153202" numLanes="1" priority="1" speed="36.11111111111111" spreadType="center" to="25">
		<lane allow="moped bicycle pedestrian custom1 trailer evehicle rail_urban ship private vip custom2 authority delivery rail_electric taxi tram army hov coach motorcycle passenger rail emergency" index="0" length="22.83123774153202" shape="56.329,108.2414 58.9507,111.6131 61.01545,113.5283 63.60925,114.702 68.23755,115.1059 76.4875,115.24315" speed="36.11111111111111" width="3.1576335062828216"/>
	</edge>
	<edge from="25" function="normal" id="3500" length="9.586145870473697" numLanes="1" priority="1" speed="36.11111111111111" spreadType="center" to="26">
		<lane allow="moped bicycle pedestrian custom1 trailer evehicle rail_urban ship private truck vip custom2 authority delivery rail_electric taxi tram army hov coach motorcycle passenger bus rail emergency" index="0" length="9.586145870473697" shape="76.4875,115.24315 86.0683,114.92305" speed="36.11111111111111" width="5.358070392408067"/>
	</edge>
	<edge from="27" function="normal" id="3555" length="8.747302513489515" numLanes="4" priority="1" speed="36.11111111111111" spreadType="center" to="28">
		<lane allow="moped bicycle pedestrian custom1 trailer evehicle rail_urban ship private truck vip custom2 authority delivery rail_electric taxi tram army hov coach motorcycle passenger bus rail emergency" index="0" length="8.747302513489515" shape="-16.8632,-47.6242 -12.887,-39.83285" speed="36.11111111111111" width="3.5111446353005746"/>
		<lane allow="moped bicycle pedestrian custom1 trailer evehicle rail_urban ship private truck vip custom2 authority delivery rail_electric taxi tram army hov coach motorcycle passenger bus rail emergency" index="1" length="8.747302513489515" shape="-19.807000000000002,-46.113 -15.7766,-38.231049999999996" speed="36.11111111111111" width="2.9942633818687363"/>
		<lane allow="moped bicycle pedestrian custom1 trailer evehicle rail_urban ship private truck vip custom2 authority delivery rail_electric taxi tram army hov coach motorcycle passenger bus rail emergency" index="2" length="8.747302513489515" shape="-22.5065,-44.72725 -18.418300000000002,-36.6939" speed="36.11111111111111" width="3.012211639310892"/>
		<lane allow="moped bicycle pedestrian custom1 trailer evehicle rail_urban ship private truck vip custom2 authority delivery rail_electric taxi tram army hov coach motorcycle passenger bus rail emergency" index="3" length="8.747302513489515" shape="-25.28445,-43.30115 -21.1035,-35.2555" speed="36.11111111111111" width="3.0805742451692346"/>
	</edge>
	<edge from="28" function="normal" id="3559" length="17.692935382095463" numLanes="5" priority="1" speed="36.11111111111111" spreadType="center" to="29">
		<lane allow="moped bicycle pedestrian custom1 trailer evehicle rail_urban ship private truck vip custom2 authority delivery rail_electric taxi tram army hov coach motorcycle passenger bus rail emergency" index="0" length="17.692935382095463" shape="-12.887,-39.83285 -9.5413,-32.8652 -5.03225,-23.7864" speed="36.11111111111111" width="3.5111446353005746"/>
		<lane allow="moped bicycle pedestrian custom1 trailer evehicle rail_urban ship private truck vip custom2 authority delivery rail_electric taxi tram army hov coach motorcycle passenger bus rail emergency" index="1" length="17.692935382095463" shape="-15.7766,-38.231049999999996 -12.3818,-31.3059 -7.8215,-22.19535" speed="36.11111111111111" width="2.8911201583469337"/>
		<lane allow="moped bicycle pedestrian custom1 trailer evehicle rail_urban ship private truck vip custom2 authority delivery rail_electric taxi tram army hov coach motorcycle passenger bus rail emergency" index="2" length="17.692935382095463" shape="-18.418300000000002,-36.6939 -15.0718,-29.90655 -10.5115,-20.79605" speed="36.11111111111111" width="3.012211639310892"/>
		<lane allow="moped bicycle pedestrian custom1 trailer evehicle rail_urban ship private truck vip custom2 authority delivery rail_electric taxi tram army hov coach motorcycle passenger bus rail emergency" index="3" length="17.692935382095463" shape="-21.1035,-35.2555 -17.742649999999998,-28.54535 -13.1823,-19.434800000000003" speed="36.11111111111111" width="2.8198292501497324"/>
		<lane allow="moped bicycle pedestrian custom1 trailer evehicle rail_urban ship private truck vip custom2 authority delivery rail_electric taxi tram army hov coach motorcycle passenger rail emergency" index="4" length="17.692935382095463" shape="-21.1035,-35.2555 -19.270899999999997,-27.52035 -15.79005,-17.98205" speed="36.11111111111111" width="2.9068515975192115"/>
	</edge>
	<edge from="29" function="normal" id="3568" length="47.086685123121356" numLanes="5" priority="1" speed="36.11111111111111" spreadType="center" to="30">
		<lane allow="moped bicycle pedestrian custom1 trailer evehicle rail_urban ship private truck vip custom2 authority delivery rail_electric taxi tram army hov coach motorcycle passenger bus rail emergency" index="0" length="47.086685123121356" shape="-5.03225,-23.7864 -0.83325,-15.3314 3.4244,-6.75685 7.86285,2.17915 12.161449999999999,10.6401 16.34695,18.2892" speed="36.11111111111111" width="3.346148869969775"/>