<routes>
	<vehicle depart="0.1" departLane="0" departPos="0" departSpeed="13.7922" id="3719" type="passenger">
		<route edges="3713"/>
	</vehicle>
	<vehicle depart="0.1" departLane="1" departPos="0" departSpeed="15.6393" id="25" type="passenger">
		<route edges="3713"/>
	</vehicle>
	<vehicle depart="0.1" departLane="1" departPos="0" departSpeed="13.6611" id="29" type="passenger">
		<route edges="3468 3713"/>
	</vehicle>
	<vehicle depart="0.1" departLane="1" departPos="20.499432274619437" departSpeed="15.4777" id="210" type="passenger">
		<route edges="3456 3462 3468 3713"/>
	</vehicle>
	<vehicle depart="0.1" departLane="0" departPos="0" departSpeed="11.5397" id="214" type="passenger">
		<route edges="3456 3462 3468 3713"/>
	</vehicle>
	<vehicle depart="0.1" departLane="0" departPos="9.225812951084656" departSpeed="10.3175" id="219" type="passenger">
		<route edges="3652 3616 3602 3616 3456 3462 3468 3713"/>
	</vehicle>
	<vehicle depart="0.1" departLane="2" departPos="17.207613985897325" departSpeed="11.7135" id="220" type="passenger">
		<route edges="3456 3462 3468 3713"/>
	</vehicle>
	<vehicle depart="0.1" departLane="1" departPos="0" departSpeed="14.5999" id="223" type="passenger">
		<route edges="3456 3462 3468 3713"/>
	</vehicle>
	<vehicle depart="0.1" departLane="0" departPos="0" departSpeed="11.9329" id="224" type="passenger">
		<route edges="3632 3652 3616 3602 3456 3462 3468 3713"/>
	</vehicle>
	<vehicle depart="0.1" departLane="1" departPos="0" departSpeed="10.3541" id="227" type="passenger">
		<route edges="3652 3616 3456 3462 3468 3468 3713"/>
	</vehicle>
	<vehicle depart="0.1" departLane="1" departPos="30.96583187203838" departSpeed="8.827" id="230" type="passenger">
		<route edges="3568 3632 3652 3616 3456 3462 3468 3713"/>
	</vehicle>
	<vehicle depart="0.1" departLane="2" departPos="0" departSpeed="11.9664" id="231" type="passenger">
		<route edges="3456 3462 3468 3713"/>
	</vehicle>
	<vehicle depart="0.1" departLane="2" departPos="47.116916666997874" departSpeed="9.1074" id="234" type="passenger">
		<route edges="3568 3632 3652 3616 3456 3462 3468 3713"/>
	</vehicle>
	<vehicle depart="0.1" departLane="2" departPos="7.3802125699563526" departSpeed="10.1895" id="236" type="passenger">
		<route edges="3652 3616 3672 3616 3456 3462 3468 3713"/>
	</vehicle>
	<vehicle depart="0.1" departLane="1" departPos="0" departSpeed="7.0896" id="237" type="passenger">
		<route edges="3568 3632 3652 3616 3456 3462 3468 3713"/>
	</vehicle>
	<vehicle depart="0.1" departLane="1" departPos="0" departSpeed="6.3551" id="238" type="passenger">
		<route edges="3568 3632 3652 3616 3456 3462 3468 3713"/>
	</vehicle>
	<vehicle depart="0.1" departLane="0" departPos="74.28443874208686" departSpeed="10.7686" id="260" type="passenger">
		<route edges="3542"/>
	</vehicle>
	<vehicle depart="0.1" departLane="0" departPos="54.9917947197756" departSpeed="12.9875" id="262" type="passenger">
		<route edges="3542"/>
	</vehicle>
	<vehicle depart="0.1" departLane="0" departPos="0" departSpeed="13.146" id="270" type="passenger">
		<route edges="3542"/>
	</vehicle>
	<vehicle depart="0.1" departLane="0" departPos="17.938752882946726" departSpeed="7.9888" id="275" type="passenger">
		<route edges="3426 3438 3450 3450 3604 3517"/>
	</vehicle>
	<vehicle depart="0.1" departLane="0" departPos="29.397618684004435" departSpeed="7.2664" id="276" type="passenger">
		<route edges="3705 3426 3438 3450 3610 3646 3626 3542"/>
	</vehicle>
	<vehicle depart="0.1" departLane="0" departPos="13.23742135058165" departSpeed="6.0747" id="277" type="passenger">
		<route edges="3604 3517"/>
	</vehicle>
	<vehicle depart="0.1" departLane="0" departPos="0" departSpeed="13.4813" id="281" type="passenger">
		<route edges="3646 3626 3600 3542"/>
	</vehicle>
	<vehicle depart="0.1" departLane="2" departPos="0" departSpeed="9.147" id="282" type="passenger">
		<route edges="3632 3652 3616 3672 3616 3672 3456 3462 3468 3713"/>
	</vehicle>
	<vehicle depart="0.1" departLane="5" departPos="23.136591100822365" departSpeed="0.03048" id="283" type="passenger">
		<route edges="3450 3664 3525"/>
	</vehicle>
	<vehicle depart="0.1" departLane="0" departPos="0" departSpeed="5.5047" id="284" type="passenger">
		<route edges="3705 3426 3438 3450 3610 3646 3626 3542"/>
	</vehicle>
	<vehicle depart="0.1" departLane="2" departPos="62.029138651710994" departSpeed="6.7696" id="291" type="passenger">
		<route edges="3542"/>
	</vehicle>
	<vehicle depart="0.1" departLane="4" departPos="24.195345854415294" departSpeed="0.097536" id="292" type="passenger">
		<route edges="3450 3664 3525"/>
	</vehicle>
	<vehicle depart="0.1" departLane="1" departPos="41.48989122154335" departSpeed="12.7437" id="294" type="passenger">
		<route edges="3542"/>
	</vehicle>
	<vehicle depart="0.1" departLane="4" departPos="16.994366897480557" departSpeed="0.0" id="296" type="passenger">
		<route edges="3450 3664 3525"/>
	</vehicle>
	<vehicle depart="0.1" departLane="1" departPos="0" departSpeed="4.7183" id="2106" type="passenger">
		<route edges="3559 3568 3632 3652 3616 3456 3462 3468 3713"/>
	</vehicle>
	<vehicle depart="0.1" departLane="4" departPos="0" departSpeed="2.4689" id="2120" type="passenger">
		<route edges="3450 3664 3525"/>
	</vehicle>
	<vehicle depart="0.1" departLane="2" departPos="0" departSpeed="4.9347" id="2122" type="passenger">
		<route edges="3705 3705 3426 3438 3438 3450 3664 3525"/>
	</vehicle>
	<vehicle depart="0.1" departLane="2" departPos="28.350141791336757" departSpeed="14.3774" id="2124" type="passenger">
		<route edges="3542"/>
	</vehicle>
	<vehicle depart="0.1" departLane="1" departPos="19.35380663802028" departSpeed="15.6423" id="2127" type="passenger">
		<route edges="3426 3438 3450 3610 3646 3626 3542"/>
	</vehicle>
	<vehicle depart="0.1" departLane="2" departPos="6.1800099586651465" departSpeed="14.4932" id="2128" type="passenger">
		<route edges="3626 3542"/>
	</vehicle>
	<vehicle depart="0.1" departLane="1" departPos="16.59962974270946" departSpeed="15.749" id="2129" type="passenger">
		<route edges="3646 3626 3542"/>
	</vehicle>
	<vehicle depart="0.1" departLane="1" departPos="0" departSpeed="13.3411" id="2131" type="passenger">
		<route edges="3705 3426 3438 3450 3610 3646 3626 3542"/>
	</vehicle>
	<vehicle depart="0.1" departLane="3" departPos="30.378618966970834" departSpeed="8.1382" id="2146" type="passenger">
		<route edges="3568 3632 3652 3616 3456 3462 3468 3713"/>
	</vehicle>
	<vehicle depart="0.1" departLane="3" departPos="0" departSpeed="6.2088" id="2150" type="passenger">
		<route edges="3568 3632 3652 3616 3672 3616 3456 3462 3468 3713"/>
	</vehicle>
	<vehicle depart="0.1" departLane="0" departPos="0" departSpeed="0.0" id="2159" type="passenger">
		<route edges="3602 3456 3462 3468 3713"/>
	</vehicle>
	<vehicle depart="0.1" departLane="1" departPos="0" departSpeed="0.0" id="2162" type="passenger">
		<route edges="3620 3662 3640 3517"/>
	</vehicle>
	<vehicle depart="0.1" departLane="1" departPos="4.573753340094884" departSpeed="2.539" id="2164" type="passenger">
		<route edges="3555 3559 3568 3680 3525"/>
	</vehicle>
</routes>
