<?xml version="1.0" encoding="UTF-8"?>

<!-- generated on Fri Dec 18 16:00:12 2020 by Eclipse SUMO netconvert Version 1.8.0
<configuration xmlns:xsi="http://www.w3.org/2001/XMLSchema-instance" xsi:noNamespaceSchemaLocation="http://sumo.dlr.de/xsd/netconvertConfiguration.xsd">

    <input>
        <node-files value="./converted_scenarios/NGSIM/Lankershim/USA_Lanker-2_16_I-1-1/nodes.net.xml"/>
        <edge-files value="./converted_scenarios/NGSIM/Lankershim/USA_Lanker-2_16_I-1-1/edges.net.xml"/>
        <connection-files value="./converted_scenarios/NGSIM/Lankershim/USA_Lanker-2_16_I-1-1/_connections.net.xml"/>
        <tllogic-files value="./converted_scenarios/NGSIM/Lankershim/USA_Lanker-2_16_I-1-1/_tll.net.xml"/>
    </input>

    <output>
        <output-file value="./converted_scenarios/NGSIM/Lankershim/USA_Lanker-2_16_I-1-1/USA_Lanker-2_16_I-1-1.net.xml"/>
    </output>

    <processing>
        <plain.extend-edge-shape value="true"/>
        <geometry.remove.keep-edges.explicit value="true"/>
        <geometry.avoid-overlap value="true"/>
        <offset.disable-normalization value="true"/>
    </processing>

    <junctions>
        <no-turnarounds value="true"/>
        <junctions.internal-link-detail value="20"/>
    </junctions>

    <report>
        <aggregate-warnings value="5"/>
    </report>

    <random_number>
        <seed value="1234"/>
    </random_number>

</configuration>
-->

<net version="1.6" junctionCornerDetail="5" junctionLinkDetail="20" limitTurnSpeed="5.50" xmlns:xsi="http://www.w3.org/2001/XMLSchema-instance" xsi:noNamespaceSchemaLocation="http://sumo.dlr.de/xsd/net_file.xsd">

    <location netOffset="0.00,0.00" convBoundary="-32.36,-45.44,86.28,141.11" origBoundary="-35.18,-47.62,86.28,143.74" projParameter="!"/>

    <edge id=":11_0" function="internal">
        <lane id=":11_0_0" index="0" disallow="rail_fast" speed="36.11" length="0.26" width="3.31" shape="0.05,42.51 -0.18,42.63"/>
        <lane id=":11_0_1" index="1" disallow="rail_fast" speed="36.11" length="0.26" width="3.11" shape="1.52,45.38 1.29,45.50"/>
    </edge>
    <edge id=":12_0" function="internal">
        <lane id=":12_0_0" index="0" disallow="rail_fast" speed="36.11" length="3.06" width="3.50" shape="19.19,32.56 21.93,31.16"/>
        <lane id=":12_0_1" index="1" disallow="rail_fast" speed="36.11" length="3.06" width="3.31" shape="20.71,35.59 23.43,34.22"/>
    </edge>
    <edge id=":13_0" function="internal">
        <lane id=":13_0_0" index="0" disallow="bus truck rail_fast" speed="11.02" length="10.30" width="3.87" shape="24.59,22.19 25.26,22.36 25.86,22.50 26.41,22.62 26.92,22.72 27.39,22.80 27.83,22.85 28.25,22.89 28.64,22.89 29.03,22.88 29.40,22.83 29.78,22.76 30.16,22.67 30.56,22.55 30.98,22.40 31.42,22.22 31.90,22.01 32.41,21.77 32.98,21.50 33.59,21.20"/>
        <lane id=":13_0_1" index="1" disallow="bus truck rail_fast" speed="12.20" length="10.30" width="3.51" shape="24.48,25.75 25.27,25.93 26.00,26.09 26.66,26.23 27.27,26.35 27.83,26.43 28.36,26.50 28.85,26.53 29.32,26.54 29.78,26.52 30.23,26.47 30.68,26.38 31.14,26.27 31.61,26.12 32.11,25.95 32.64,25.73 33.21,25.48 33.82,25.20 34.49,24.88 35.22,24.52"/>
    </edge>
    <edge id=":13_2" function="internal">
        <lane id=":13_2_0" index="0" disallow="bus truck rail_fast" speed="36.11" length="11.23" width="3.51" shape="25.26,29.77 35.22,24.52"/>
        <lane id=":13_2_1" index="1" disallow="bus truck rail_fast" speed="36.11" length="11.23" width="3.38" shape="27.00,33.09 27.69,32.60 28.30,32.17 28.87,31.79 29.38,31.44 29.85,31.14 30.30,30.86 30.71,30.61 31.11,30.38 31.51,30.17 31.90,29.96 32.30,29.76 32.72,29.55 33.16,29.34 33.63,29.12 34.14,28.88 34.70,28.61 35.32,28.32 36.00,27.99 36.75,27.62"/>
    </edge>
    <edge id=":13_4" function="internal">
        <lane id=":13_4_0" index="0" disallow="rail_fast" speed="36.11" length="13.86" width="3.51" shape="22.81,30.72 35.22,24.52"/>
        <lane id=":13_4_1" index="1" disallow="rail_fast" speed="36.11" length="13.86" width="3.38" shape="24.34,33.77 36.75,27.62"/>
    </edge>
    <edge id=":15_0" function="internal">
        <lane id=":15_0_0" index="0" disallow="rail_fast" speed="36.11" length="19.07" width="2.82" shape="0.36,43.38 -8.09,26.28"/>
        <lane id=":15_0_1" index="1" disallow="rail_fast" speed="36.11" length="19.07" width="2.97" shape="3.14,41.95 -5.26,24.83"/>
        <lane id=":15_0_2" index="2" disallow="rail_fast" speed="36.11" length="19.07" width="2.96" shape="5.83,40.57 -2.57,23.45"/>
    </edge>
    <edge id=":15_3" function="internal">
        <lane id=":15_3_0" index="0" disallow="bus truck rail_fast" speed="13.68" length="23.17" width="2.96" shape="12.25,40.33 11.50,40.17 10.74,39.93 9.98,39.60 9.21,39.20 8.45,38.72 7.68,38.15 6.91,37.50 6.13,36.78 5.35,35.97 4.57,35.08 3.79,34.11 3.01,33.06 2.22,31.93 1.43,30.72 0.63,29.43 -0.16,28.06 -0.96,26.60 -1.76,25.07 -2.57,23.45"/>
    </edge>
    <edge id=":15_4" function="internal">
        <lane id=":15_4_0" index="0" disallow="bus truck rail_fast" speed="36.11" length="4.30" width="2.82" shape="-6.20,30.15 -8.09,26.28"/>
    </edge>
    <edge id=":18_0" function="internal">
        <lane id=":18_0_0" index="0" disallow="rail_fast" speed="14.45" length="8.28" width="3.25" shape="48.02,33.54 47.47,33.81 46.98,34.05 46.54,34.28 46.14,34.49 45.78,34.69 45.45,34.89 45.15,35.08 44.87,35.27 44.61,35.48 44.36,35.69 44.12,35.91 43.88,36.16 43.64,36.42 43.39,36.72 43.13,37.04 42.86,37.40 42.56,37.80 42.23,38.24 41.87,38.72"/>
        <lane id=":18_0_1" index="1" disallow="rail_fast" speed="36.11" length="8.28" width="3.60" shape="48.02,33.54 40.78,37.11"/>
        <lane id=":18_0_2" index="2" disallow="rail_fast" speed="36.11" length="8.28" width="3.67" shape="46.43,30.27 38.72,34.07"/>
    </edge>
    <edge id=":19_0" function="internal">
        <lane id=":19_0_0" index="0" disallow="rail_fast" speed="9.74" length="3.41" width="3.19" shape="40.54,40.54 40.37,40.76 40.22,40.95 40.08,41.12 39.94,41.26 39.81,41.39 39.68,41.50 39.55,41.59 39.43,41.68 39.30,41.75 39.16,41.82 39.02,41.88 38.88,41.95 38.72,42.01 38.56,42.07 38.38,42.14 38.19,42.22 37.98,42.31 37.75,42.41 37.50,42.53"/>
        <lane id=":19_0_1" index="1" disallow="rail_fast" speed="36.11" length="3.41" width="3.52" shape="39.06,37.97 36.03,39.47"/>
        <lane id=":19_0_2" index="2" disallow="rail_fast" speed="36.11" length="3.41" width="3.68" shape="37.25,34.80 34.45,36.20"/>
    </edge>
    <edge id=":2_0" function="internal">
        <lane id=":2_0_0" index="0" disallow="bus truck rail_fast" speed="8.75" length="5.40" width="3.35" shape="77.10,120.29 76.70,120.30 76.35,120.32 76.02,120.34 75.72,120.36 75.45,120.39 75.19,120.42 74.96,120.46 74.74,120.52 74.52,120.58 74.32,120.66 74.12,120.75 73.92,120.86 73.72,120.98 73.51,121.12 73.29,121.29 73.05,121.47 72.80,121.68 72.53,121.91 72.23,122.17"/>
    </edge>
    <edge id=":20_0" function="internal">
        <lane id=":20_0_0" index="0" disallow="bus truck rail_fast" speed="14.27" length="3.68" width="2.93" shape="34.88,43.80 34.63,43.91 34.41,44.02 34.21,44.11 34.02,44.20 33.85,44.28 33.69,44.35 33.55,44.42 33.41,44.49 33.28,44.57 33.15,44.64 33.03,44.72 32.91,44.81 32.78,44.91 32.65,45.02 32.51,45.14 32.36,45.28 32.21,45.43 32.03,45.61 31.84,45.81"/>
    </edge>
    <edge id=":20_1" function="internal">
        <lane id=":20_1_0" index="0" disallow="rail_fast" speed="36.11" length="4.87" width="3.46" shape="33.43,40.76 29.08,42.91"/>
        <lane id=":20_1_1" index="1" disallow="rail_fast" speed="36.11" length="4.87" width="3.70" shape="31.87,37.50 27.50,39.68"/>
    </edge>
    <edge id=":20_3" function="internal">
        <lane id=":20_3_0" index="0" disallow="bus truck rail_fast" speed="36.11" length="4.93" width="3.01" shape="31.87,37.50 31.54,37.66 31.24,37.81 30.97,37.93 30.72,38.05 30.50,38.15 30.28,38.24 30.09,38.32 29.90,38.39 29.71,38.46 29.53,38.52 29.34,38.58 29.14,38.64 28.94,38.70 28.71,38.76 28.47,38.82 28.21,38.89 27.92,38.97 27.60,39.06 27.24,39.15"/>
    </edge>
    <edge id=":21_0" function="internal">
        <lane id=":21_0_0" index="0" disallow="rail_fast" speed="36.11" length="3.05" width="3.21" shape="27.90,43.50 25.17,44.85"/>
        <lane id=":21_0_1" index="1" disallow="rail_fast" speed="36.11" length="3.05" width="3.68" shape="26.32,40.27 23.60,41.64"/>
    </edge>
    <edge id=":22_0" function="internal">
        <lane id=":22_0_0" index="0" disallow="rail_fast" speed="36.11" length="10.83" width="3.17" shape="13.65,50.55 3.94,55.35"/>
        <lane id=":22_0_1" index="1" disallow="rail_fast" speed="36.11" length="10.83" width="3.68" shape="12.08,47.42 2.40,52.27"/>
    </edge>
    <edge id=":22_2" function="internal">
        <lane id=":22_2_0" index="0" disallow="bus truck rail_fast" speed="9.83" length="11.33" width="3.68" shape="9.03,43.64 8.91,44.25 8.76,44.84 8.59,45.42 8.39,45.97 8.17,46.51 7.92,47.04 7.65,47.54 7.35,48.03 7.02,48.50 6.68,48.96 6.30,49.39 5.90,49.81 5.48,50.22 5.03,50.60 4.55,50.97 4.05,51.32 3.53,51.65 2.98,51.97 2.40,52.27"/>
    </edge>
    <edge id=":23_0" function="internal">
        <lane id=":23_0_0" index="0" disallow="bus truck rail_fast" speed="36.11" length="4.83" width="5.13" shape="-10.22,66.50 -5.54,65.28"/>
    </edge>
    <edge id=":23_1" function="internal">
        <lane id=":23_1_0" index="0" disallow="rail_fast" speed="36.11" length="4.52" width="3.11" shape="-3.30,58.90 -7.33,60.97"/>
        <lane id=":23_1_1" index="1" disallow="rail_fast" speed="36.11" length="4.52" width="3.66" shape="-4.63,55.75 -8.64,57.83"/>
    </edge>
    <edge id=":25_0" function="internal">
        <lane id=":25_0_0" index="0" disallow="bus truck rail_fast" speed="36.11" length="2.87" width="5.36" shape="75.05,115.22 77.92,115.20"/>
    </edge>
    <edge id=":28_0" function="internal">
        <lane id=":28_0_0" index="0" disallow="rail_fast" speed="36.11" length="7.96" width="3.51" shape="-14.43,-42.85 -10.82,-35.52"/>
        <lane id=":28_0_1" index="1" disallow="rail_fast" speed="36.11" length="7.96" width="2.89" shape="-17.33,-41.27 -13.74,-34.08"/>
        <lane id=":28_0_2" index="2" disallow="rail_fast" speed="36.11" length="7.96" width="3.01" shape="-20.00,-39.81 -16.46,-32.73"/>
        <lane id=":28_0_3" index="3" disallow="rail_fast" speed="36.11" length="7.96" width="2.82" shape="-22.70,-38.34 -19.17,-31.39"/>
        <lane id=":28_0_4" index="4" disallow="bus rail_fast" speed="36.11" length="7.96" width="2.91" shape="-22.70,-38.34 -22.43,-37.81 -22.19,-37.34 -21.98,-36.91 -21.79,-36.52 -21.62,-36.16 -21.47,-35.83 -21.33,-35.51 -21.21,-35.21 -21.11,-34.91 -21.00,-34.62 -20.91,-34.32 -20.82,-34.00 -20.73,-33.67 -20.64,-33.31 -20.55,-32.93 -20.45,-32.50 -20.34,-32.03 -20.22,-31.52 -20.08,-30.94"/>
    </edge>
    <edge id=":29_0" function="internal">
        <lane id=":29_0_0" index="0" disallow="rail_fast" speed="36.11" length="3.88" width="3.35" shape="-6.04,-25.81 -4.34,-22.39"/>
        <lane id=":29_0_1" index="1" disallow="rail_fast" speed="36.11" length="3.88" width="2.89" shape="-8.89,-24.33 -7.17,-20.89"/>
        <lane id=":29_0_2" index="2" disallow="rail_fast" speed="36.11" length="3.88" width="3.08" shape="-11.58,-22.94 -9.85,-19.47"/>
        <lane id=":29_0_3" index="3" disallow="rail_fast" speed="36.11" length="3.88" width="2.82" shape="-14.24,-21.56 -12.50,-18.07"/>
        <lane id=":29_0_4" index="4" disallow="bus rail_fast" speed="36.11" length="3.88" width="3.05" shape="-16.64,-20.31 -16.54,-20.04 -16.45,-19.79 -16.37,-19.56 -16.30,-19.35 -16.23,-19.17 -16.17,-18.99 -16.11,-18.83 -16.05,-18.68 -15.99,-18.53 -15.94,-18.39 -15.88,-18.24 -15.81,-18.09 -15.75,-17.93 -15.67,-17.77 -15.59,-17.59 -15.49,-17.39 -15.39,-17.17 -15.27,-16.93 -15.14,-16.67"/>
    </edge>
    <edge id=":30_0" function="internal">
        <lane id=":30_0_0" index="0" disallow="bus truck rail_fast" speed="10.23" length="10.24" width="3.11" shape="15.39,16.53 15.62,16.94 15.88,17.33 16.16,17.70 16.46,18.07 16.79,18.42 17.14,18.76 17.51,19.08 17.90,19.39 18.32,19.69 18.75,19.98 19.21,20.25 19.70,20.51 20.20,20.76 20.73,20.99 21.28,21.22 21.86,21.42 22.45,21.62 23.07,21.80 23.71,21.97"/>
    </edge>
    <edge id=":30_1" function="internal">
        <lane id=":30_1_0" index="0" disallow="bus truck rail_fast" speed="11.58" length="11.05" width="3.13" shape="12.33,18.14 12.69,18.85 13.04,19.49 13.37,20.06 13.69,20.57 14.00,21.02 14.32,21.42 14.64,21.78 14.97,22.10 15.32,22.38 15.68,22.64 16.07,22.88 16.49,23.11 16.94,23.33 17.42,23.55 17.95,23.77 18.53,24.00 19.16,24.24 19.84,24.51 20.59,24.81"/>
    </edge>
    <edge id=":30_2" function="internal">
        <lane id=":30_2_0" index="0" disallow="rail_fast" speed="36.11" length="10.45" width="3.12" shape="12.33,18.14 16.90,27.70"/>
        <lane id=":30_2_1" index="1" disallow="rail_fast" speed="36.11" length="10.45" width="3.06" shape="9.60,19.58 14.10,29.01"/>
        <lane id=":30_2_2" index="2" disallow="rail_fast" speed="36.11" length="10.45" width="2.98" shape="6.90,20.99 11.36,30.30"/>
    </edge>
    <edge id=":30_5" function="internal">
        <lane id=":30_5_0" index="0" disallow="bus truck rail_fast" speed="36.11" length="10.20" width="2.87" shape="4.22,22.41 4.56,23.09 4.86,23.71 5.14,24.27 5.39,24.78 5.63,25.24 5.84,25.67 6.03,26.08 6.22,26.46 6.39,26.84 6.56,27.21 6.72,27.58 6.89,27.97 7.05,28.39 7.23,28.83 7.41,29.30 7.60,29.83 7.81,30.40 8.03,31.04 8.28,31.75"/>
    </edge>
    <edge id=":31_0" function="internal">
        <lane id=":31_0_0" index="0" disallow="rail_fast" speed="36.11" length="3.22" width="3.12" shape="17.78,29.55 19.16,32.46"/>
        <lane id=":31_0_1" index="1" disallow="rail_fast" speed="36.11" length="3.22" width="3.06" shape="15.02,30.95 16.41,33.86"/>
        <lane id=":31_0_2" index="2" disallow="rail_fast" speed="36.11" length="3.22" width="2.95" shape="12.33,32.32 13.72,35.23"/>
    </edge>
    <edge id=":32_0" function="internal">
        <lane id=":32_0_0" index="0" disallow="rail_fast" speed="36.11" length="2.64" width="3.14" shape="25.21,45.04 26.36,47.44"/>
        <lane id=":32_0_1" index="1" disallow="rail_fast" speed="36.11" length="2.64" width="3.10" shape="22.41,46.41 23.55,48.79"/>
        <lane id=":32_0_2" index="2" disallow="rail_fast" speed="36.11" length="2.64" width="2.93" shape="19.68,47.73 20.82,50.11"/>
    </edge>
    <edge id=":34_0" function="internal">
        <lane id=":34_0_0" index="0" disallow="rail_fast" speed="36.11" length="3.05" width="2.78" shape="37.90,118.73 36.54,116.00"/>
        <lane id=":34_0_1" index="1" disallow="rail_fast" speed="36.11" length="3.05" width="3.00" shape="40.49,117.47 39.14,114.74"/>
        <lane id=":34_0_2" index="2" disallow="bus rail_fast" speed="36.11" length="3.05" width="3.02" shape="43.22,116.15 41.87,113.41"/>
        <lane id=":34_0_3" index="3" disallow="bus rail_fast" speed="36.11" length="3.05" width="2.96" shape="45.94,114.83 44.59,112.10"/>
        <lane id=":34_0_4" index="4" disallow="rail_fast" speed="36.11" length="3.05" width="3.03" shape="48.66,113.51 47.30,110.78"/>
    </edge>
    <edge id=":35_0" function="internal">
        <lane id=":35_0_0" index="0" disallow="rail_fast" speed="21.96" length="7.43" width="2.94" shape="28.54,100.13 28.28,99.63 28.04,99.19 27.82,98.79 27.61,98.44 27.41,98.12 27.22,97.83 27.03,97.56 26.83,97.32 26.64,97.09 26.43,96.87 26.22,96.66 25.99,96.44 25.75,96.21 25.49,95.98 25.20,95.72 24.89,95.44 24.54,95.13 24.17,94.79 23.76,94.41"/>
        <lane id=":35_0_1" index="1" disallow="rail_fast" speed="36.11" length="7.43" width="2.94" shape="28.54,100.13 25.23,93.58"/>
        <lane id=":35_0_2" index="2" disallow="rail_fast" speed="36.11" length="7.43" width="3.05" shape="31.20,98.79 27.87,92.08"/>
        <lane id=":35_0_3" index="3" disallow="rail_fast" speed="36.11" length="7.43" width="3.03" shape="33.93,97.41 30.53,90.57"/>
        <lane id=":35_0_4" index="4" disallow="rail_fast" speed="36.11" length="7.43" width="3.05" shape="36.66,96.03 33.19,89.06"/>
        <lane id=":35_0_5" index="5" disallow="rail_fast" speed="36.11" length="7.43" width="3.12" shape="39.41,94.65 36.42,88.58"/>
    </edge>
    <edge id=":36_0" function="internal">
        <lane id=":36_0_0" index="0" disallow="rail_fast" speed="15.71" length="3.50" width="3.22" shape="23.38,94.05 23.17,93.86 22.98,93.70 22.80,93.56 22.63,93.44 22.47,93.33 22.32,93.23 22.18,93.14 22.04,93.06 21.91,92.98 21.78,92.89 21.66,92.81 21.54,92.71 21.42,92.60 21.30,92.48 21.19,92.34 21.07,92.18 20.95,91.99 20.82,91.78 20.69,91.54"/>
        <lane id=":36_0_1" index="1" disallow="rail_fast" speed="36.11" length="3.50" width="2.87" shape="25.04,93.19 23.52,90.18"/>
        <lane id=":36_0_2" index="2" disallow="rail_fast" speed="36.11" length="3.50" width="3.00" shape="27.74,91.81 26.27,88.85"/>
        <lane id=":36_0_3" index="3" disallow="rail_fast" speed="36.11" length="3.50" width="3.02" shape="30.45,90.41 29.00,87.50"/>
        <lane id=":36_0_4" index="4" disallow="rail_fast" speed="36.11" length="3.50" width="3.02" shape="33.14,88.97 31.72,86.12"/>
        <lane id=":36_0_5" index="5" disallow="rail_fast" speed="36.11" length="3.50" width="3.03" shape="36.33,88.40 34.50,84.71"/>
    </edge>
    <edge id=":37_0" function="internal">
        <lane id=":37_0_0" index="0" disallow="bus truck rail_fast" speed="36.11" length="4.73" width="3.84" shape="11.15,72.58 10.99,72.26 10.84,71.98 10.72,71.72 10.60,71.48 10.50,71.26 10.40,71.06 10.31,70.88 10.22,70.70 10.14,70.53 10.05,70.37 9.95,70.21 9.85,70.04 9.74,69.87 9.62,69.68 9.48,69.49 9.32,69.28 9.15,69.05 8.95,68.80 8.73,68.53"/>
    </edge>
    <edge id=":37_1" function="internal">
        <lane id=":37_1_0" index="0" disallow="rail_fast" speed="36.11" length="5.10" width="2.87" shape="14.11,71.06 11.81,66.48"/>
        <lane id=":37_1_1" index="1" disallow="rail_fast" speed="36.11" length="5.10" width="3.02" shape="16.76,69.71 14.46,65.16"/>
        <lane id=":37_1_2" index="2" disallow="rail_fast" speed="36.11" length="5.10" width="3.12" shape="19.49,68.32 17.24,63.78"/>
    </edge>
    <edge id=":37_4" function="internal">
        <lane id=":37_4_0" index="0" disallow="bus truck rail_fast" speed="36.11" length="5.03" width="2.93" shape="22.24,66.92 19.99,62.42"/>
    </edge>
    <edge id=":37_5" function="internal">
        <lane id=":37_5_0" index="0" disallow="bus truck rail_fast" speed="36.11" length="4.99" width="3.03" shape="24.95,65.53 22.72,61.07"/>
    </edge>
    <edge id=":38_0" function="internal">
        <lane id=":38_0_0" index="0" disallow="rail_fast" speed="36.11" length="3.02" width="3.06" shape="7.23,57.23 5.88,54.52"/>
        <lane id=":38_0_1" index="1" disallow="rail_fast" speed="36.11" length="3.02" width="2.99" shape="9.94,55.90 8.62,53.18"/>
        <lane id=":38_0_2" index="2" disallow="rail_fast" speed="36.11" length="3.02" width="3.06" shape="12.70,54.55 11.37,51.83"/>
    </edge>
    <edge id=":39_0" function="internal">
        <lane id=":39_0_0" index="0" disallow="rail_fast" speed="36.11" length="1.22" width="3.29" shape="-0.09,42.47 0.45,43.56"/>
        <lane id=":39_0_1" index="1" disallow="rail_fast" speed="36.11" length="1.22" width="2.97" shape="2.69,41.04 3.22,42.13"/>
        <lane id=":39_0_2" index="2" disallow="rail_fast" speed="36.11" length="1.22" width="3.01" shape="5.38,39.66 5.92,40.75"/>
    </edge>
    <edge id=":5_0" function="internal">
        <lane id=":5_0_0" index="0" disallow="bus truck rail_fast" speed="8.72" length="16.70" width="3.23" shape="-12.42,48.95 -11.18,48.32 -10.03,47.68 -8.95,47.05 -7.96,46.42 -7.05,45.79 -6.22,45.16 -5.48,44.53 -4.81,43.91 -4.23,43.28 -3.73,42.66 -3.32,42.04 -2.98,41.42 -2.73,40.81 -2.56,40.19 -2.47,39.58 -2.47,38.96 -2.55,38.35 -2.71,37.75 -2.95,37.14"/>
    </edge>
    <edge id=":5_1" function="internal">
        <lane id=":5_1_0" index="0" disallow="rail_fast" speed="36.11" length="13.86" width="3.23" shape="-12.42,48.95 -0.13,42.60"/>
        <lane id=":5_1_1" index="1" disallow="rail_fast" speed="36.11" length="13.86" width="3.03" shape="-11.04,51.75 1.34,45.47"/>
    </edge>
    <edge id=":5_3" function="internal">
        <lane id=":5_3_0" index="0" disallow="bus truck rail_fast" speed="36.11" length="1.56" width="2.92" shape="-9.68,54.49 -11.08,55.17"/>
    </edge>
    <edge id=":6_0" function="internal">
        <lane id=":6_0_0" index="0" disallow="bus truck rail_fast" speed="9.12" length="13.80" width="3.05" shape="31.29,46.40 30.92,46.82 30.60,47.28 30.32,47.76 30.09,48.27 29.91,48.81 29.77,49.38 29.67,49.98 29.62,50.60 29.62,51.26 29.66,51.94 29.75,52.65 29.88,53.39 30.06,54.15 30.29,54.95 30.56,55.77 30.87,56.62 31.23,57.50 31.64,58.41 32.09,59.35"/>
    </edge>
    <edge id=":6_1" function="internal">
        <lane id=":6_1_0" index="0" disallow="rail_fast" speed="36.11" length="13.06" width="3.05" shape="26.45,47.62 32.09,59.35"/>
        <lane id=":6_1_1" index="1" disallow="rail_fast" speed="36.11" length="13.06" width="2.91" shape="23.63,48.97 29.28,60.75"/>
        <lane id=":6_1_2" index="2" disallow="rail_fast" speed="36.11" length="13.06" width="2.89" shape="20.90,50.29 26.57,62.11"/>
    </edge>
    <edge id=":6_4" function="internal">
        <lane id=":6_4_0" index="0" disallow="bus truck rail_fast" speed="36.11" length="13.55" width="2.89" shape="20.05,50.23 26.57,62.11"/>
    </edge>
    <edge id=":7_0" function="internal">
        <lane id=":7_0_0" index="0" disallow="rail_fast" speed="36.11" length="0.24" width="3.05" shape="42.42,80.60 42.53,80.81"/>
        <lane id=":7_0_1" index="1" disallow="rail_fast" speed="36.11" length="0.24" width="2.91" shape="39.76,81.94 39.86,82.15"/>
        <lane id=":7_0_2" index="2" disallow="rail_fast" speed="36.11" length="0.24" width="2.89" shape="37.16,83.23 37.27,83.46"/>
    </edge>
    <edge id=":8_0" function="internal">
        <lane id=":8_0_0" index="0" disallow="rail_fast" speed="36.11" length="3.05" width="3.03" shape="45.64,86.89 47.02,89.61"/>
        <lane id=":8_0_1" index="1" disallow="rail_fast" speed="36.11" length="3.05" width="3.00" shape="42.92,88.25 44.28,90.97"/>
        <lane id=":8_0_2" index="2" disallow="rail_fast" speed="36.11" length="3.05" width="2.94" shape="40.28,89.57 41.62,92.29"/>
    </edge>
    <edge id=":9_0" function="internal">
        <lane id=":9_0_0" index="0" disallow="bus truck rail_fast" speed="10.11" length="13.46" width="3.16" shape="55.27,106.14 55.71,106.99 56.16,107.78 56.61,108.54 57.07,109.25 57.53,109.92 58.01,110.55 58.49,111.13 58.98,111.67 59.47,112.17 59.97,112.63 60.48,113.04 61.00,113.41 61.52,113.74 62.05,114.02 62.59,114.27 63.14,114.47 63.69,114.62 64.25,114.74 64.82,114.81"/>
    </edge>
    <edge id=":9_1" function="internal">
        <lane id=":9_1_0" index="0" disallow="rail_fast" speed="36.11" length="13.11" width="3.16" shape="55.27,106.14 61.08,117.91"/>
        <lane id=":9_1_1" index="1" disallow="bus rail_fast" speed="36.11" length="13.11" width="2.93" shape="52.49,107.50 58.32,119.25"/>
        <lane id=":9_1_2" index="2" disallow="rail_fast" speed="36.11" length="13.11" width="3.07" shape="49.75,108.83 55.58,120.58"/>
    </edge>

    <edge id="3426" from="34" to="35" priority="1" spreadType="center" length="21.90">
        <lane id="3426_0" index="0" disallow="rail_fast" speed="36.11" length="21.90" width="2.78" customShape="1" shape="36.54,116.00 32.06,107.11 28.54,100.13"/>
        <lane id="3426_1" index="1" disallow="rail_fast" speed="36.11" length="21.90" width="3.00" customShape="1" shape="39.14,114.74 34.72,105.85 31.20,98.79"/>
        <lane id="3426_2" index="2" disallow="rail_fast" speed="36.11" length="21.90" width="3.02" customShape="1" shape="41.87,113.41 37.40,104.42 33.93,97.41"/>
        <lane id="3426_3" index="3" disallow="rail_fast" speed="36.11" length="21.90" width="2.96" customShape="1" shape="44.59,112.10 40.09,102.96 36.66,96.03"/>
        <lane id="3426_4" index="4" disallow="rail_fast" speed="36.11" length="21.90" width="3.03" customShape="1" shape="47.30,110.78 42.81,101.58 39.41,94.65"/>
    </edge>
    <edge id="3438" from="35" to="36" priority="1" spreadType="center" length="8.44">
        <lane id="3438_0" index="0" disallow="rail_fast" speed="36.11" length="8.44" width="2.94" customShape="1" shape="23.76,94.41 23.38,94.05"/>
        <lane id="3438_1" index="1" disallow="rail_fast" speed="36.11" length="8.44" width="2.94" customShape="1" shape="25.23,93.58 25.04,93.19"/>
        <lane id="3438_2" index="2" disallow="rail_fast" speed="36.11" length="8.44" width="3.05" customShape="1" shape="27.87,92.08 27.74,91.81"/>
        <lane id="3438_3" index="3" disallow="rail_fast" speed="36.11" length="8.44" width="3.03" customShape="1" shape="30.53,90.57 30.45,90.41"/>
        <lane id="3438_4" index="4" disallow="rail_fast" speed="36.11" length="8.44" width="3.05" customShape="1" shape="33.19,89.06 33.14,88.97"/>
        <lane id="3438_5" index="5" disallow="rail_fast" speed="36.11" length="8.44" width="3.12" customShape="1" shape="36.42,88.58 36.33,88.40"/>
    </edge>
    <edge id="3450" from="36" to="37" priority="1" spreadType="center" length="24.49">
        <lane id="3450_0" index="0" disallow="rail_fast" speed="36.11" length="24.49" width="3.22" customShape="1" shape="20.69,91.54 17.51,85.28 13.72,77.59 11.15,72.58"/>
        <lane id="3450_1" index="1" disallow="rail_fast" speed="36.11" length="24.49" width="2.87" customShape="1" shape="23.52,90.18 20.51,84.13 16.69,76.18 14.11,71.06"/>
        <lane id="3450_2" index="2" disallow="rail_fast" speed="36.11" length="24.49" width="3.00" customShape="1" shape="26.27,88.85 23.24,82.79 19.39,74.85 16.76,69.71"/>
        <lane id="3450_3" index="3" disallow="rail_fast" speed="36.11" length="24.49" width="3.02" customShape="1" shape="29.00,87.50 25.91,81.34 22.03,73.40 19.49,68.32"/>
        <lane id="3450_4" index="4" disallow="rail_fast" speed="36.11" length="24.49" width="3.02" customShape="1" shape="31.72,86.12 28.60,79.89 24.71,71.94 22.24,66.92"/>
        <lane id="3450_5" index="5" disallow="rail_fast" speed="36.11" length="24.49" width="3.03" customShape="1" shape="34.50,84.71 31.29,78.38 27.41,70.44 24.95,65.53"/>
    </edge>
    <edge id="3456" from="6" to="7" priority="1" spreadType="center" length="24.71">
        <lane id="3456_0" index="0" disallow="rail_fast" speed="36.11" length="24.71" width="3.05" customShape="1" shape="32.09,59.35 35.26,65.68 39.11,73.60 42.42,80.60"/>
        <lane id="3456_1" index="1" disallow="rail_fast" speed="36.11" length="24.71" width="2.91" customShape="1" shape="29.28,60.75 32.69,67.45 36.37,75.01 39.76,81.94"/>
        <lane id="3456_2" index="2" disallow="rail_fast" speed="36.11" length="24.71" width="2.89" customShape="1" shape="26.57,62.11 30.06,69.01 33.85,76.71 37.16,83.23"/>
    </edge>
    <edge id="3462" from="7" to="8" priority="1" spreadType="center" length="8.47">
        <lane id="3462_0" index="0" disallow="rail_fast" speed="36.11" length="8.47" width="3.05" customShape="1" shape="42.53,80.81 45.64,86.89"/>
        <lane id="3462_1" index="1" disallow="rail_fast" speed="36.11" length="8.47" width="2.91" customShape="1" shape="39.86,82.15 42.92,88.25"/>
        <lane id="3462_2" index="2" disallow="rail_fast" speed="36.11" length="8.47" width="2.89" customShape="1" shape="37.27,83.46 40.28,89.57"/>
    </edge>
    <edge id="3468" from="8" to="9" priority="1" spreadType="center" length="22.24">
        <lane id="3468_0" index="0" disallow="rail_fast" speed="36.11" length="22.24" width="3.03" customShape="1" shape="47.02,89.61 50.95,97.56 55.27,106.14"/>
        <lane id="3468_1" index="1" disallow="rail_fast" speed="36.11" length="22.24" width="3.00" customShape="1" shape="44.28,90.97 48.27,98.98 52.49,107.50"/>
        <lane id="3468_2" index="2" disallow="rail_fast" speed="36.11" length="22.24" width="2.94" customShape="1" shape="41.62,92.29 45.58,100.35 49.75,108.83"/>
    </edge>
    <edge id="3498" from="1" to="2" priority="1" spreadType="center" length="9.59">
        <lane id="3498_0" index="0" disallow="rail_fast" speed="36.11" length="9.59" width="4.77" customShape="1" shape="86.28,119.98 77.10,120.29"/>
    </edge>
    <edge id="3500" from="25" to="26" priority="1" spreadType="center" length="9.59">
        <lane id="3500_0" index="0" disallow="rail_fast" speed="36.11" length="9.59" width="5.36" customShape="1" shape="77.92,115.20 86.07,114.92"/>
    </edge>
    <edge id="3509" from="4" to="5" priority="1" spreadType="center" length="15.63">
        <lane id="3509_0" index="0" disallow="rail_fast" speed="36.11" length="15.63" width="3.23" customShape="1" shape="-24.51,54.96 -20.12,52.78 -12.42,48.95"/>
        <lane id="3509_1" index="1" disallow="rail_fast" speed="36.11" length="15.63" width="3.02" customShape="1" shape="-23.12,57.76 -18.69,55.56 -11.04,51.75"/>
        <lane id="3509_2" index="2" disallow="rail_fast" speed="36.11" length="15.63" width="3.06" customShape="1" shape="-21.77,60.49 -17.28,58.26 -9.68,54.49"/>
    </edge>
    <edge id="3517" from="23" to="24" priority="1" spreadType="center" length="14.50">
        <lane id="3517_0" index="0" disallow="rail_fast" speed="36.11" length="14.50" width="5.13" acceleration="1" customShape="1" shape="-5.54,65.28 -12.88,68.82 -16.50,70.79"/>
        <lane id="3517_1" index="1" disallow="rail_fast" speed="36.11" length="14.50" width="3.11" customShape="1" shape="-7.33,60.97 -14.77,64.96 -18.47,67.17"/>
        <lane id="3517_2" index="2" disallow="rail_fast" speed="36.11" length="14.50" width="3.66" customShape="1" shape="-8.64,57.83 -16.30,61.94 -20.09,64.20"/>
    </edge>
    <edge id="3525" from="13" to="14" priority="1" spreadType="center" length="17.28">
        <lane id="3525_0" index="0" disallow="rail_fast" speed="36.11" length="17.28" width="3.87" customShape="1" shape="33.59,21.20 42.15,16.99 48.94,13.65"/>