<routes>
	<vehicle depart="0.1" departLane="0" departPos="0" departSpeed="17.9648" id="31" type="passenger">
		<route edges="20 19"/>
	</vehicle>
	<vehicle depart="0.1" departLane="1" departPos="158.02339361218432" departSpeed="28.506" id="34" type="passenger">
		<route edges="19"/>
	</vehicle>
	<vehicle depart="0.1" departLane="1" departPos="0" departSpeed="22.9886" id="36" type="passenger">
		<route edges="19"/>
	</vehicle>
	<vehicle depart="0.1" departLane="0" departPos="27.86739085441488" departSpeed="20.8315" id="38" type="passenger">
		<route edges="22 20 19"/>
	</vehicle>
	<vehicle depart="0.1" departLane="1" departPos="253.80462172352" departSpeed="26.7027" id="310" type="passenger">
		<route edges="16 20 22 19"/>
	</vehicle>
	<vehicle depart="0.1" departLane="1" departPos="306.6605268329266" departSpeed="23.6044" id="312" type="passenger">
		<route edges="16 20 22 19"/>
	</vehicle>
	<vehicle depart="0.1" departLane="0" departPos="236.4235831882864" departSpeed="23.2557" id="314" type="passenger">
		<route edges="16 20 19"/>
	</vehicle>
	<vehicle depart="0.1" departLane="1" departPos="224.27972824846526" departSpeed="25.7628" id="316" type="passenger">
		<route edges="16 20 22 19"/>
	</vehicle>
	<vehicle depart="0.1" departLane="0" departPos="181.4165633223195" departSpeed="24.9474" id="317" type="passenger">
		<route edges="16 20 19"/>
	</vehicle>
	<vehicle depart="0.1" departLane="1" departPos="195.6955078917577" departSpeed="24.9443" id="319" type="passenger">
		<route edges="16 20 22 19"/>
	</vehicle>
	<vehicle depart="0.1" departLane="0" departPos="148.25844440017448" departSpeed="23.9952" id="320" type="passenger">
		<route edges="16 20 19"/>
	</vehicle>
	<vehicle depart="0.1" departLane="0" departPos="113.4119467257584" departSpeed="21.1188" id="322" type="passenger">
		<route edges="16 20 19"/>
	</vehicle>
	<vehicle depart="0.1" departLane="1" departPos="147.82785245387842" departSpeed="25.094" id="323" type="passenger">
		<route edges="16 20 22 19"/>
	</vehicle>
	<vehicle depart="0.1" departLane="0" departPos="86.53436994083027" departSpeed="18.8124" id="325" type="passenger">
		<route edges="16 20 19"/>
	</vehicle>
	<vehicle depart="0.1" departLane="1" departPos="121.73447207824046" departSpeed="23.5333" id="326" type="passenger">
		<route edges="16 20 22 19"/>
	</vehicle>
	<vehicle depart="0.1" departLane="0" departPos="59.24726402417095" departSpeed="15.2875" id="328" type="passenger">
		<route edges="16 16 20 19"/>
	</vehicle>
	<vehicle depart="0.1" departLane="0" departPos="51.60112791480037" departSpeed="14.141" id="329" type="passenger">
		<route edges="14 21 17 22 20 22 19"/>
	</vehicle>
	<vehicle depart="0.1" departLane="1" departPos="64.17737716725425" departSpeed="17.7592" id="330" type="passenger">
		<route edges="16 20 19"/>
	</vehicle>
	<vehicle depart="0.1" departLane="0" departPos="0" departSpeed="9.8466" id="331" type="passenger">
		<route edges="14 21 17 22 20 22 19"/>
	</vehicle>
	<vehicle depart="0.1" departLane="0" departPos="0" departSpeed="6.6474" id="332" type="passenger">
		<route edges="14 21 17 22 19"/>
	</vehicle>
	<vehicle depart="0.1" departLane="0" departPos="0" departSpeed="3.4486" id="333" type="passenger">
		<route edges="14 21 17 22 19"/>
	</vehicle>
</routes>
