<routes>
	<vehicle depart="0.1" departLane="0" departPos="31.682226431343143" departSpeed="5.2023714" id="337" type="bus">
		<route edges="22503 21343 20871"/>
	</vehicle>
	<vehicle depart="0.1" departLane="0" departPos="25.33372938223991" departSpeed="7.2521147" id="31" type="passenger">
		<route edges=":16_5 21538"/>
	</vehicle>
	<vehicle depart="0.1" departLane="0" departPos="2.5" departSpeed="6.5497888" id="311" type="passenger">
		<route edges=":16_5 21538"/>
	</vehicle>
	<vehicle depart="0.1" departLane="0" departPos="21.171378806924658" departSpeed="3.250933" id="316" type="passenger">
		<route edges="22504 21343 21538"/>
	</vehicle>
	<vehicle depart="0.1" departLane="0" departPos="69.90861640705603" departSpeed="0.0" id="319" type="passenger">
		<route edges="21539 20871"/>
	</vehicle>
	<vehicle depart="0.1" departLane="0" departPos="59.64385648286286" departSpeed="0.40182456" id="325" type="passenger">
		<route edges="20870 21538"/>
	</vehicle>
	<vehicle depart="0.1" departLane="0" departPos="16.388661169084752" departSpeed="12.181752" id="334" type="passenger">
		<route edges=":16_4 20871"/>
	</vehicle>
	<vehicle depart="0.1" departLane="0" departPos="18.32560908842397" departSpeed="1.7983825" id="340" type="passenger">
		<route edges="22034"/>
	</vehicle>
	<vehicle depart="0.1" departLane="0" departPos="18.357341176828385" departSpeed="3.1752011" id="341" type="passenger">
		<route edges="22503 21343 20871"/>
	</vehicle>
	<vehicle depart="0.1" departLane="0" departPos="69.5207574916842" departSpeed="0.42943466" id="322" type="truck">
		<route edges="20870 21538"/>
	</vehicle>
</routes>
