<routes>
	<vehicle depart="0.1" departLane="0" departPos="70.71306893009624" departSpeed="0.42047814" id="32" type="passenger">
		<route edges="8052 8570"/>
	</vehicle>
	<vehicle depart="0.1" departLane="0" departPos="18.175159191407246" departSpeed="0.13317545" id="312" type="passenger">
		<route edges=":18_2 8041"/>
	</vehicle>
	<vehicle depart="0.1" departLane="0" departPos="5.727923728353398" departSpeed="8.8335812" id="316" type="passenger">
		<route edges="8051"/>
	</vehicle>
	<vehicle depart="0.1" departLane="0" departPos="30.800003554218314" departSpeed="12.447978" id="317" type="passenger">
		<route edges=":18_4 8057"/>
	</vehicle>
	<vehicle depart="0.1" departLane="0" departPos="14.337045357883671" departSpeed="10.948227" id="320" type="passenger">
		<route edges=":18_4 8057"/>
	</vehicle>
	<vehicle depart="0.1" departLane="0" departPos="2.5" departSpeed="0.56976212" id="325" type="passenger">
		<route edges=":18_1 8051"/>
	</vehicle>
	<vehicle depart="0.1" departLane="0" departPos="52.45538308151824" departSpeed="9.2665801" id="327" type="passenger">
		<route edges="8040 8051"/>
	</vehicle>
	<vehicle depart="0.1" departLane="0" departPos="20.71539545889887" departSpeed="8.4001213" id="333" type="passenger">
		<route edges=":18_9 8051"/>
	</vehicle>
	<vehicle depart="0.1" departLane="0" departPos="61.10140498357285" departSpeed="11.541193" id="335" type="passenger">
		<route edges="8058 8041"/>
	</vehicle>
	<vehicle depart="0.1" departLane="0" departPos="26.132303467432692" departSpeed="0.66764332" id="33" type="motorcycle">
		<route edges=":18_1 8051"/>
	</vehicle>
</routes>
