<routes>
	<vehicle depart="0.1" departLane="0" departPos="8.149275707072434" departSpeed="0.9602066" id="319" type="passenger">
		<route edges="99 96"/>
	</vehicle>
	<vehicle depart="0.1" departLane="0" departPos="23.84075129922889" departSpeed="0.85952769" id="320" type="passenger">
		<route edges=":30_3 96"/>
	</vehicle>
	<vehicle depart="0.1" departLane="0" departPos="63.210723717972456" departSpeed="1.2557425" id="321" type="passenger">
		<route edges="422 99"/>
	</vehicle>
	<vehicle depart="0.1" departLane="0" departPos="39.8960779207664" departSpeed="9.0752348" id="338" type="passenger">
		<route edges=":30_5 100 103 106"/>
	</vehicle>
	<vehicle depart="0.1" departLane="0" departPos="42.26676007201578" departSpeed="5.853298" id="347" type="passenger">
		<route edges="97 350"/>
	</vehicle>
	<vehicle depart="0.1" departLane="0" departPos="32.294136324482736" departSpeed="4.3952049" id="351" type="passenger">
		<route edges="97 100"/>
	</vehicle>
	<vehicle depart="0.1" departLane="0" departPos="19.423741582802233" departSpeed="3.3144436" id="353" type="passenger">
		<route edges="97 100"/>
	</vehicle>
</routes>
