<!-- generated on 2020-12-18 15:56:44.229225 by ipykernel_launcher.py v1_2_0+5214-53edc58fcd
-->
<nodes>
	<node id="1" type="from" x="1.3583166666666668" y="74.44701666666667"/>
	<node id="2" type="to" x="-1.191366666666667" y="29.461516666666665"/>
	<node id="3" type="to" x="-1.7689333333333332" y="18.4464"/>
	<node id="4" type="to" x="7.71705" y="7.39315"/>
	<node id="5" type="to" x="17.16715" y="5.74835"/>
	<node id="6" type="to" x="54.40582499999999" y="8.17795"/>
	<node id="7" type="to" x="-4.18395" y="2.13905"/>
	<node id="8" type="to" x="-4.61025" y="-5.863125"/>
	<node id="9" type="to" x="-5.67875" y="-30.735725000000002"/>
	<node id="10" type="to" x="-4.84315" y="-50.450199999999995"/>
	<node id="11" type="to" x="-4.881275" y="-57.7885"/>
	<node id="12" type="to" x="-14.3092" y="17.05285"/>
	<node id="13" type="to" x="-26.99485" y="14.897425"/>
	<node id="14" type="to" x="-54.893175" y="9.52045"/>
	<node id="15" type="to" x="-67.839425" y="4.517075"/>
	<node id="16" type="from" x="1.5109249999999999" y="-58.01395"/>
	<node id="17" type="to" x="1.8624500000000002" y="-50.705875"/>
	<node id="18" type="to" x="1.45315" y="-30.911533333333335"/>
	<node id="19" type="to" x="2.896483333333333" y="-6.29595"/>
	<node id="20" type="to" x="3.3302333333333336" y="2.2091999999999996"/>
	<node id="21" type="to" x="4.151683333333334" y="18.34595"/>
	<node id="22" type="to" x="-6.563549999999999" y="13.690100000000001"/>
	<node id="23" type="to" x="6.1769" y="29.241575"/>
	<node id="24" type="to" x="8.744025" y="74.012775"/>
	<node id="25" type="from" x="-64.28011666666667" y="-3.1450333333333336"/>
	<node id="26" type="to" x="-51.89535" y="1.6687500000000002"/>
	<node id="27" type="to" x="-26.1257" y="4.824225"/>
	<node id="28" type="to" x="-13.985724999999999" y="5.48685"/>
	<node id="29" type="to" x="-6.944483333333333" y="7.24575"/>
	<node id="30" type="from" x="53.89025" y="16.034866666666666"/>
	<node id="31" type="to" x="16.651633333333333" y="13.605266666666665"/>
	<node id="32" type="to" x="8.047550000000001" y="13.643949999999998"/>
</nodes>
