<routes>
	<vehicle depart="0.1" departLane="1" departPos="0" departSpeed="11.6616" id="11" type="passenger">
		<route edges="43594 43632 43654 43832 43382 43386 43390"/>
	</vehicle>
	<vehicle depart="0.1" departLane="1" departPos="0" departSpeed="13.0698" id="17" type="passenger">
		<route edges="43343 43594 43632 43832 43382 43386 43390"/>
	</vehicle>
	<vehicle depart="0.1" departLane="2" departPos="0" departSpeed="7.1201" id="53" type="passenger">
		<route edges="43343 43594 43652 43602 43488"/>
	</vehicle>
	<vehicle depart="0.1" departLane="1" departPos="0" departSpeed="9.7018" id="98" type="passenger">
		<route edges="43205"/>
	</vehicle>
	<vehicle depart="0.1" departLane="1" departPos="0" departSpeed="5.8552" id="102" type="passenger">
		<route edges="43406 43406 43646 43488"/>
	</vehicle>
	<vehicle depart="0.1" departLane="0" departPos="0" departSpeed="11.0917" id="104" type="passenger">
		<route edges="43406 43838 43638 43598 43642 43598 43642 43205"/>
	</vehicle>
</routes>
