<!-- generated on 2020-12-18 16:01:33.583510 by ipykernel_launcher.py v1_2_0+5214-53edc58fcd
-->
<edges>
	<edge from="1" function="normal" id="3498" length="9.586095898357163" numLanes="1" priority="1" speed="36.11111111111111" spreadType="center" to="2">
		<lane allow="moped bicycle pedestrian custom1 trailer evehicle rail_urban ship private truck vip custom2 authority delivery rail_electric taxi tram army hov coach motorcycle passenger bus rail emergency" index="0" length="9.586095898357163" shape="62.61525,56.7408 53.0345,57.0609" speed="36.11111111111111" width="4.771086938004798"/>
	</edge>
	<edge from="2" function="normal" id="3716" length="18.680147901632274" numLanes="1" priority="1" speed="36.11111111111111" spreadType="center" to="3">
		<lane allow="moped bicycle pedestrian custom1 trailer evehicle rail_urban ship private vip custom2 authority delivery rail_electric taxi tram army hov coach motorcycle passenger rail emergency" index="0" length="18.680147901632274" shape="53.0345,57.0609 49.05065,58.502300000000005 46.19505,61.004949999999994 45.143550000000005,63.39505 44.4409,65.42330000000001 44.5859,68.5683 45.57705,71.12325" speed="36.11111111111111" width="3.353872355949167"/>
	</edge>
	<edge from="4" function="normal" id="3509" length="15.632980848532549" numLanes="3" priority="1" speed="36.11111111111111" spreadType="center" to="5">
		<lane allow="moped bicycle pedestrian custom1 trailer evehicle rail_urban ship private truck vip custom2 authority delivery rail_electric taxi tram army hov coach motorcycle passenger bus rail emergency" index="0" length="15.632980848532549" shape="-48.1778,-8.278550000000001 -43.7816,-10.459399999999999 -34.17115,-15.24295" speed="36.11111111111111" width="3.2317602711216065"/>
		<lane allow="moped bicycle pedestrian custom1 trailer evehicle rail_urban ship private truck vip custom2 authority delivery rail_electric taxi tram army hov coach motorcycle passenger bus rail emergency" index="1" length="15.632980848532549" shape="-46.78825,-5.4775 -42.35085,-7.6788 -32.74035,-12.46235" speed="36.11111111111111" width="3.0217924167619463"/>
		<lane allow="moped bicycle pedestrian custom1 trailer evehicle rail_urban ship private truck vip custom2 authority delivery rail_electric taxi tram army hov coach motorcycle passenger bus rail emergency" index="2" length="15.632980848532549" shape="-45.4371,-2.75385 -40.944500000000005,-4.9825 -31.4336,-9.7031" speed="36.11111111111111" width="3.0589561046213136"/>
	</edge>
	<edge from="5" function="normal" id="3672" length="43.429643178518916" numLanes="1" priority="1" speed="36.11111111111111" spreadType="center" to="6">
		<lane allow="moped bicycle pedestrian custom1 trailer evehicle rail_urban ship private vip custom2 authority delivery rail_electric taxi tram army hov coach motorcycle passenger rail emergency" index="0" length="43.429643178518916" shape="-31.4336,-9.7031 -26.276400000000002,-12.24345 -22.6936,-13.72795 -18.847749999999998,-15.086599999999999 -16.067050000000002,-16.0569 -13.5811,-16.55375 -11.346250000000001,-16.76615 -9.01005,-16.64915 -7.365549999999999,-16.51475 -6.2561,-16.2585 -5.31635,-15.6755 -4.3971,-14.3253 -3.2413999999999996,-12.39695 -0.57395,-8.1595 0.9998000000000001,-5.10775 2.4715499999999997,-1.9956" speed="36.11111111111111" width="2.91718217634758"/>
	</edge>
	<edge from="6" function="normal" id="3456" length="24.710920579823167" numLanes="3" priority="1" speed="36.11111111111111" spreadType="center" to="7">
		<lane allow="moped bicycle pedestrian custom1 trailer evehicle rail_urban ship private truck vip custom2 authority delivery rail_electric taxi tram army hov coach motorcycle passenger bus rail emergency" index="0" length="24.710920579823167" shape="7.998200000000001,-4.7553 11.594000000000001,2.4383 15.44735,10.3554 18.810000000000002,17.4638" speed="36.11111111111111" width="3.0476685974692184"/>
		<lane allow="moped bicycle pedestrian custom1 trailer evehicle rail_urban ship private truck vip custom2 authority delivery rail_electric taxi tram army hov coach motorcycle passenger bus rail emergency" index="1" length="24.710920579823167" shape="5.16935,-3.3610499999999996 9.02945,4.20585 12.707699999999999,11.771450000000002 16.14655,18.8019" speed="36.11111111111111" width="2.914824113046961"/>
		<lane allow="moped bicycle pedestrian custom1 trailer evehicle rail_urban ship private truck vip custom2 authority delivery rail_electric taxi tram army hov coach motorcycle passenger bus rail emergency" index="2" length="24.710920579823167" shape="2.4715499999999997,-1.9956 6.40005,5.7666 10.188500000000001,13.469149999999999 13.56005,20.11575" speed="36.11111111111111" width="2.888004380190584"/>
	</edge>
	<edge from="7" function="normal" id="3462" length="8.466645302154804" numLanes="3" priority="1" speed="36.11111111111111" spreadType="center" to="8">
		<lane allow="moped bicycle pedestrian custom1 trailer evehicle rail_urban ship private truck vip custom2 authority delivery rail_electric taxi tram army hov coach motorcycle passenger bus rail emergency" index="0" length="8.466645302154804" shape="18.810000000000002,17.4638 22.6893,25.02655" speed="36.11111111111111" width="3.0476685974692184"/>
		<lane allow="moped bicycle pedestrian custom1 trailer evehicle rail_urban ship private truck vip custom2 authority delivery rail_electric taxi tram army hov coach motorcycle passenger bus rail emergency" index="1" length="8.466645302154804" shape="16.14655,18.8019 19.96465,26.4116" speed="36.11111111111111" width="2.914824113046961"/>
		<lane allow="moped bicycle pedestrian custom1 trailer evehicle rail_urban ship private truck vip custom2 authority delivery rail_electric taxi tram army hov coach motorcycle passenger bus rail emergency" index="2" length="8.466645302154804" shape="13.56005,20.11575 17.3007,27.71125" speed="36.11111111111111" width="2.888004380190584"/>
	</edge>
	<edge from="8" function="normal" id="3468" length="22.238196627283088" numLanes="3" priority="1" speed="36.11111111111111" spreadType="center" to="9">
		<lane allow="moped bicycle pedestrian custom1 trailer evehicle rail_urban ship private truck vip custom2 authority delivery rail_electric taxi tram army hov coach motorcycle passenger bus rail emergency" index="0" length="22.238196627283088" shape="22.6893,25.02655 27.28865,34.3181 32.6653,44.9991" speed="36.11111111111111" width="3.0326639856733246"/>
		<lane allow="moped bicycle pedestrian custom1 trailer evehicle rail_urban ship private truck vip custom2 authority delivery rail_electric taxi tram army hov coach motorcycle passenger bus rail emergency" index="1" length="22.238196627283088" shape="19.96465,26.4116 24.6109,35.73335 29.86275,46.339150000000004" speed="36.11111111111111" width="2.9980111023810445"/>
		<lane allow="moped bicycle pedestrian custom1 trailer evehicle rail_urban ship private truck vip custom2 authority delivery rail_electric taxi tram army hov coach motorcycle passenger bus rail emergency" index="2" length="22.238196627283088" shape="17.3007,27.71125 21.91705,37.110299999999995 27.1064,47.67085" speed="36.11111111111111" width="2.9350875710956212"/>
	</edge>
	<edge from="9" function="normal" id="3713" length="29.14281680783744" numLanes="3" priority="1" speed="36.11111111111111" spreadType="center" to="10">
		<lane allow="moped bicycle pedestrian custom1 trailer evehicle rail_urban ship private truck vip custom2 authority delivery rail_electric taxi tram army hov coach motorcycle passenger bus rail emergency" index="0" length="29.14281680783744" shape="32.6653,44.9991 36.581450000000004,52.99225 40.52805,60.9388 44.28415,68.54945000000001 45.457499999999996,71.182" speed="36.11111111111111" width="3.157633506282828"/>
		<lane allow="moped bicycle pedestrian custom1 trailer evehicle rail_urban ship private truck vip custom2 authority delivery rail_electric taxi tram army hov coach motorcycle passenger rail emergency" index="1" length="29.14281680783744" shape="29.86275,46.339150000000004 33.30025,53.27715 37.24675,61.223749999999995 41.4174,69.72105 42.7024,72.53540000000001" speed="36.11111111111111" width="2.9348672269797813"/>
		<lane allow="moped bicycle pedestrian custom1 trailer evehicle rail_urban ship private truck vip custom2 authority delivery rail_electric taxi tram army hov coach motorcycle passenger bus rail emergency" index="2" length="29.14281680783744" shape="27.1064,47.67085 29.939,53.3709 33.77375,61.0728 38.612300000000005,70.88415 39.998450000000005,73.86365" speed="36.11111111111111" width="3.067322045367913"/>
	</edge>
	<edge from="5" function="normal" id="3636" length="10.130444963203738" numLanes="2" priority="1" speed="36.11111111111111" spreadType="center" to="11">
		<lane allow="moped bicycle pedestrian custom1 trailer evehicle rail_urban ship private truck vip custom2 authority delivery rail_electric taxi tram army hov coach motorcycle passenger bus rail emergency" index="0" length="10.130444963203738" shape="-34.17115,-15.24295 -25.16005,-19.9283" speed="36.11111111111111" width="3.232186618993405"/>
		<lane allow="moped bicycle pedestrian custom1 trailer evehicle rail_urban ship private truck vip custom2 authority delivery rail_electric taxi tram army hov coach motorcycle passenger bus rail emergency" index="1" length="10.130444963203738" shape="-32.74035,-12.46235 -23.71565,-17.0646" speed="36.11111111111111" width="3.0254656269738027"/>
	</edge>
	<edge from="11" function="normal" id="3658" length="24.834013362889845" numLanes="2" priority="1" speed="36.11111111111111" spreadType="center" to="12">
		<lane allow="moped bicycle pedestrian custom1 trailer evehicle rail_urban ship private truck vip custom2 authority delivery rail_electric taxi tram army hov coach motorcycle passenger bus rail emergency" index="0" length="24.834013362889845" shape="-25.16005,-19.9283 -22.26425,-21.434199999999997 -19.60875,-22.81495 -16.8918,-24.22765 -13.903500000000001,-25.78155 -11.20185,-27.18645 -8.55715,-28.5616 -5.8416,-29.9736 -3.0698499999999997,-31.41485" speed="36.11111111111111" width="3.3089087884074417"/>
		<lane allow="moped bicycle pedestrian custom1 trailer evehicle rail_urban ship private truck vip custom2 authority delivery rail_electric taxi tram army hov coach motorcycle passenger bus rail emergency" index="1" length="24.834013362889845" shape="-23.71565,-17.0646 -20.84765,-18.5272 -18.176650000000002,-19.889249999999997 -15.43835,-21.285600000000002 -12.473749999999999,-22.79735 -9.763300000000001,-24.1796 -7.1133500000000005,-25.53085 -4.3789,-26.925150000000002 -1.5921,-28.3463" speed="36.11111111111111" width="3.105783426126167"/>
	</edge>
	<edge from="12" function="normal" id="3676" length="16.155928389455166" numLanes="2" priority="1" speed="36.11111111111111" spreadType="center" to="13">
		<lane allow="moped bicycle pedestrian custom1 trailer evehicle rail_urban ship private truck vip custom2 authority delivery rail_electric taxi tram army hov coach motorcycle passenger bus rail emergency" index="0" length="16.155928389455166" shape="-3.0698499999999997,-31.41485 2.9498499999999996,-34.421099999999996 11.3839,-38.6331" speed="36.11111111111111" width="3.5034549033775195"/>
		<lane allow="moped bicycle pedestrian custom1 trailer evehicle rail_urban ship private truck vip custom2 authority delivery rail_electric taxi tram army hov coach motorcycle passenger bus rail emergency" index="1" length="16.155928389455166" shape="-1.5921,-28.3463 4.43255,-31.331599999999998 12.92875,-35.5415" speed="36.11111111111111" width="3.3082245268421544"/>
	</edge>
	<edge from="13" function="normal" id="3525" length="17.280435272672808" numLanes="3" priority="1" speed="36.11111111111111" spreadType="center" to="14">
		<lane allow="moped bicycle pedestrian custom1 trailer evehicle rail_urban ship private truck vip custom2 authority delivery rail_electric taxi tram army hov coach motorcycle passenger bus rail emergency" index="0" length="17.280435272672808" shape="9.760850000000001,-41.961200000000005 18.488149999999997,-46.25625 25.27645,-49.59705" speed="36.11111111111111" width="3.873902747875843"/>
		<lane allow="moped bicycle pedestrian custom1 trailer evehicle rail_urban ship private truck vip custom2 authority delivery rail_electric taxi tram army hov coach motorcycle passenger bus rail emergency" index="1" length="17.280435272672808" shape="11.3839,-38.6331 20.11105,-42.92665 26.9103,-46.2717" speed="36.11111111111111" width="3.511789538113012"/>
		<lane allow="moped bicycle pedestrian custom1 trailer evehicle rail_urban ship private truck vip custom2 authority delivery rail_electric taxi tram army hov coach motorcycle passenger bus rail emergency" index="2" length="17.280435272672808" shape="12.92875,-35.5415 21.60755,-39.810100000000006 28.4351,-43.1682" speed="36.11111111111111" width="3.3794967495175965"/>
	</edge>
	<edge from="5" function="normal" id="3600" length="24.19746751136553" numLanes="1" priority="1" speed="36.11111111111111" spreadType="center" to="15">
		<lane allow="moped bicycle pedestrian custom1 trailer evehicle rail_urban ship private vip custom2 authority delivery rail_electric taxi tram army hov coach motorcycle passenger rail emergency" index="0" length="24.19746751136553" shape="-34.17115,-15.24295 -29.682850000000002,-17.637900000000002 -27.68985,-18.828 -26.0868,-19.738599999999998 -25.3437,-20.21855 -24.9196,-20.80615 -24.8838,-21.613100000000003 -25.290999999999997,-23.0247 -26.0919,-24.990850000000002 -27.07235,-27.089199999999998 -29.865250000000003,-33.09115" speed="36.11111111111111" width="3.232186618993405"/>
	</edge>
	<edge from="15" function="normal" id="3542" length="74.2461753523541" numLanes="3" priority="1" speed="36.11111111111111" spreadType="center" to="16">
		<lane allow="moped bicycle pedestrian custom1 trailer evehicle rail_urban ship private truck vip custom2 authority delivery rail_electric taxi tram army hov coach motorcycle passenger bus rail emergency" index="0" length="74.2461753523541" shape="-29.865250000000003,-33.09115 -34.02655,-41.629850000000005 -38.079800000000006,-50.55985 -41.85185,-59.27835 -45.476600000000005,-68.5223 -49.191599999999994,-77.58015 -52.87525,-86.60775 -56.5593,-95.6662 -58.84635,-101.4622" speed="36.11111111111111" width="2.8235974571457545"/>
		<lane allow="moped bicycle pedestrian custom1 trailer evehicle rail_urban ship private truck vip custom2 authority delivery rail_electric taxi tram army hov coach motorcycle passenger bus rail emergency" index="1" length="74.2461753523541" shape="-27.0216,-34.5838 -31.265,-43.1386 -35.34715,-51.922 -39.0878,-60.610200000000006 -42.7418,-69.7305 -46.3949,-78.78935000000001 -50.046350000000004,-87.725 -53.63765,-96.7848 -56.0289,-102.9085" speed="36.11111111111111" width="2.9693589611227558"/>
		<lane allow="moped bicycle pedestrian custom1 trailer evehicle rail_urban ship private truck vip custom2 authority delivery rail_electric taxi tram army hov coach motorcycle passenger bus rail emergency" index="2" length="74.2461753523541" shape="-24.37355,-35.973749999999995 -28.59635,-44.6537 -32.646699999999996,-53.376000000000005 -36.41825,-62.0638 -39.9131,-70.86315 -43.5686,-80.09125 -47.22045,-89.05775 -50.68725,-98.05765 -53.1984,-104.36155" speed="36.11111111111111" width="2.962201547835665"/>
	</edge>
	<edge from="17" function="normal" id="3532" length="13.634900230131372" numLanes="2" priority="1" speed="36.11111111111111" spreadType="center" to="18">
		<lane allow="moped bicycle pedestrian custom1 trailer evehicle rail_urban ship private truck vip custom2 authority delivery rail_electric taxi tram army hov coach motorcycle passenger bus rail emergency" index="0" length="13.634900230131372" shape="32.9808,-33.916349999999994 26.04815,-30.527500000000003 20.70375,-27.91495" speed="36.11111111111111" width="3.6072313177837665"/>
		<lane allow="moped bicycle pedestrian custom1 trailer evehicle rail_urban ship private truck vip custom2 authority delivery rail_electric taxi tram army hov coach motorcycle passenger bus rail emergency" index="1" length="13.634900230131372" shape="31.376150000000003,-37.1823 24.51765,-33.8291 19.126800000000003,-31.193649999999998" speed="36.11111111111111" width="3.623546501702443"/>
	</edge>
	<edge from="18" function="normal" id="3534" length="6.575577396130321" numLanes="3" priority="1" speed="36.11111111111111" spreadType="center" to="19">
		<lane allow="moped bicycle pedestrian custom1 trailer evehicle rail_urban ship private truck vip custom2 authority delivery rail_electric taxi tram army hov coach motorcycle passenger bus rail emergency" index="0" length="6.575577396130321" shape="20.70375,-27.91495 16.2809,-21.8931" speed="36.11111111111111" width="3.245737241367516"/>
		<lane allow="moped bicycle pedestrian custom1 trailer evehicle rail_urban ship private truck vip custom2 authority delivery rail_electric taxi tram army hov coach motorcycle passenger bus rail emergency" index="1" length="6.575577396130321" shape="20.70375,-27.91495 14.79175,-24.97495" speed="36.11111111111111" width="3.6024336135451542"/>
		<lane allow="moped bicycle pedestrian custom1 trailer evehicle rail_urban ship private truck vip custom2 authority delivery rail_electric taxi tram army hov coach motorcycle passenger bus rail emergency" index="2" length="6.575577396130321" shape="19.126800000000003,-31.193649999999998 13.23875,-28.266350000000003" speed="36.11111111111111" width="3.6713079753679034"/>
	</edge>
	<edge from="19" function="normal" id="3536" length="6.608363657139339" numLanes="3" priority="1" speed="36.11111111111111" spreadType="center" to="20">
		<lane allow="moped bicycle pedestrian custom1 trailer evehicle rail_urban ship private truck vip custom2 authority delivery rail_electric taxi tram army hov coach motorcycle passenger bus rail emergency" index="0" length="6.608363657139339" shape="16.2809,-21.8931 10.30135,-19.00365" speed="36.11111111111111" width="3.190167196245363"/>
		<lane allow="moped bicycle pedestrian custom1 trailer evehicle rail_urban ship private truck vip custom2 authority delivery rail_electric taxi tram army hov coach motorcycle passenger bus rail emergency" index="1" length="6.608363657139339" shape="14.79175,-24.97495 8.8516,-22.0302" speed="36.11111111111111" width="3.5215687697388507"/>
		<lane allow="moped bicycle pedestrian custom1 trailer evehicle rail_urban ship private truck vip custom2 authority delivery rail_electric taxi tram army hov coach motorcycle passenger bus rail emergency" index="2" length="6.608363657139339" shape="13.23875,-28.266350000000003 7.3286999999999995,-25.3097" speed="36.11111111111111" width="3.677371487897299"/>
	</edge>
	<edge from="20" function="normal" id="3620" length="6.669397413559939" numLanes="2" priority="1" speed="36.11111111111111" spreadType="center" to="21">
		<lane allow="moped bicycle pedestrian custom1 trailer evehicle rail_urban ship private truck vip custom2 authority delivery rail_electric taxi tram army hov coach motorcycle passenger bus rail emergency" index="0" length="6.669397413559939" shape="8.8516,-22.0302 2.8741000000000003,-19.0721" speed="36.11111111111111" width="3.455821945644771"/>
		<lane allow="moped bicycle pedestrian custom1 trailer evehicle rail_urban ship private truck vip custom2 authority delivery rail_electric taxi tram army hov coach motorcycle passenger bus rail emergency" index="1" length="6.669397413559939" shape="7.3286999999999995,-25.3097 1.32125,-22.2966" speed="36.11111111111111" width="3.702039012490279"/>
	</edge>
	<edge from="21" function="normal" id="3662" length="24.644895567956997" numLanes="2" priority="1" speed="36.11111111111111" spreadType="center" to="22">
		<lane allow="moped bicycle pedestrian custom1 trailer evehicle rail_urban ship private truck vip custom2 authority delivery rail_electric taxi tram army hov coach motorcycle passenger bus rail emergency" index="0" length="24.644895567956997" shape="2.8741000000000003,-19.0721 0.05754999999999999,-17.67825 -2.71925,-16.3041 -5.36865,-14.992899999999999 -8.09075,-13.64575 -10.96245,-12.22455 -13.751249999999999,-10.8444 -16.4533,-9.507200000000001 -19.213900000000002,-8.1409" speed="36.11111111111111" width="3.213340816035547"/>
		<lane allow="moped bicycle pedestrian custom1 trailer evehicle rail_urban ship private truck vip custom2 authority delivery rail_electric taxi tram army hov coach motorcycle passenger bus rail emergency" index="1" length="24.644895567956997" shape="1.32125,-22.2966 -1.48325,-20.8899 -4.2438,-19.506050000000002 -6.89185,-18.1774 -9.608550000000001,-16.81595 -12.51035,-15.35835 -15.2791,-13.968250000000001 -17.96895,-12.61905 -20.7655,-11.216000000000001" speed="36.11111111111111" width="3.6754043750314054"/>
	</edge>
	<edge from="22" function="normal" id="3640" length="10.509859510002977" numLanes="2" priority="1" speed="36.11111111111111" spreadType="center" to="23">
		<lane allow="moped bicycle pedestrian custom1 trailer evehicle rail_urban ship private truck vip custom2 authority delivery rail_electric taxi tram army hov coach motorcycle passenger bus rail emergency" index="0" length="10.509859510002977" shape="-19.213900000000002,-8.1409 -29.0474,-3.3194999999999997" speed="36.11111111111111" width="3.167378581729692"/>
		<lane allow="moped bicycle pedestrian custom1 trailer evehicle rail_urban ship private truck vip custom2 authority delivery rail_electric taxi tram army hov coach motorcycle passenger bus rail emergency" index="1" length="10.509859510002977" shape="-20.7655,-11.216000000000001 -30.1831,-6.550599999999999" speed="36.11111111111111" width="3.6754043750314054"/>
	</edge>
	<edge from="23" function="normal" id="3517" length="14.496753904957334" numLanes="3" priority="1" speed="36.11111111111111" spreadType="center" to="24">
		<lane allow="moped bicycle pedestrian custom1 trailer evehicle rail_urban ship private truck vip custom2 authority delivery rail_electric taxi tram army hov coach motorcycle passenger bus rail emergency" index="0" length="14.496753904957334" shape="-27.3301,1.13445 -36.5436,5.57385 -40.292100000000005,7.6177" speed="36.11111111111111" width="5.130906839926059"/>
		<lane allow="moped bicycle pedestrian custom1 trailer evehicle rail_urban ship private truck vip custom2 authority delivery rail_electric taxi tram army hov coach motorcycle passenger bus rail emergency" index="1" length="14.496753904957334" shape="-29.0474,-3.3194999999999997 -38.43785,1.7225499999999998 -42.12335,3.9262499999999996" speed="36.11111111111111" width="3.1105201397836986"/>
		<lane allow="moped bicycle pedestrian custom1 trailer evehicle rail_urban ship private truck vip custom2 authority delivery rail_electric taxi tram army hov coach motorcycle passenger bus rail emergency" index="2" length="14.496753904957334" shape="-30.1831,-6.550599999999999 -39.9648,-1.30295 -43.6302,0.8886999999999999" speed="36.11111111111111" width="3.6645851129425253"/>
	</edge>
	<edge from="20" function="normal" id="3668" length="38.24329000786905" numLanes="1" priority="1" speed="36.11111111111111" spreadType="center" to="15">
		<lane allow="moped bicycle pedestrian custom1 trailer evehicle rail_urban ship private vip custom2 authority delivery rail_electric taxi tram army hov coach motorcycle passenger rail emergency" index="0" length="38.24329000786905" shape="7.3286999999999995,-25.3097 3.99165,-24.201 1.0575,-23.39415 -1.43815,-22.64655 -3.8535,-22.343 -6.05535,-22.258049999999997 -7.59155,-22.386400000000002 -9.5618,-22.5932 -11.1659,-22.87055 -13.113700000000001,-23.1839 -14.9224,-23.9409 -16.4583,-25.191000000000003 -17.89795,-27.1006 -20.59825,-30.77835 -24.37355,-35.973749999999995" speed="36.11111111111111" width="3.0119886487169896"/>
	</edge>
	<edge from="20" function="normal" id="3602" length="16.40731935125664" numLanes="1" priority="1" speed="36.11111111111111" spreadType="center" to="6">
		<lane allow="moped bicycle pedestrian custom1 trailer evehicle rail_urban ship private vip custom2 authority delivery rail_electric taxi tram army hov coach motorcycle passenger rail emergency" index="0" length="16.40731935125664" shape="10.30135,-19.00365 8.44875,-17.7195 7.2987,-16.5028 6.371,-14.8738 5.79355,-13.065100000000001 5.73565,-11.69465 6.0981,-9.5684 6.949199999999999,-7.193149999999999 7.998200000000001,-4.7553" speed="36.11111111111111" width="2.9347200002725984"/>
	</edge>
	<edge from="9" function="normal" id="3718" length="22.83123774153202" numLanes="1" priority="1" speed="36.11111111111111" spreadType="center" to="25">
		<lane allow="moped bicycle pedestrian custom1 trailer evehicle rail_urban ship private vip custom2 authority delivery rail_electric taxi tram army hov coach motorcycle passenger rail emergency" index="0" length="22.83123774153202" shape="32.6653,44.9991 35.287,48.3708 37.351749999999996,50.286 39.94555,51.4597 44.57385,51.8636 52.8238,52.00085" speed="36.11111111111111" width="3.157633506282828"/>
	</edge>
	<edge from="25" function="normal" id="3500" length="9.586145870473706" numLanes="1" priority="1" speed="36.11111111111111" spreadType="center" to="26">
		<lane allow="moped bicycle pedestrian custom1 trailer evehicle rail_urban ship private truck vip custom2 authority delivery rail_electric taxi tram army hov coach motorcycle passenger bus rail emergency" index="0" length="9.586145870473706" shape="52.8238,52.00085 62.4046,51.68075" speed="36.11111111111111" width="5.3580703924080675"/>
	</edge>
	<edge from="27" function="normal" id="3555" length="8.74730251348951" numLanes="4" priority="1" speed="36.11111111111111" spreadType="center" to="28">
		<lane allow="moped bicycle pedestrian custom1 trailer evehicle rail_urban ship private truck vip custom2 authority delivery rail_electric taxi tram army hov coach motorcycle passenger bus rail emergency" index="0" length="8.74730251348951" shape="-40.5269,-110.8665 -36.5507,-103.07515000000001" speed="36.11111111111111" width="3.5111446353005684"/>
		<lane allow="moped bicycle pedestrian custom1 trailer evehicle rail_urban ship private truck vip custom2 authority delivery rail_electric taxi tram army hov coach motorcycle passenger bus rail emergency" index="1" length="8.74730251348951" shape="-43.4707,-109.3553 -39.4403,-101.47335000000001" speed="36.11111111111111" width="2.994263381868733"/>
		<lane allow="moped bicycle pedestrian custom1 trailer evehicle rail_urban ship private truck vip custom2 authority delivery rail_electric taxi tram army hov coach motorcycle passenger bus rail emergency" index="2" length="8.74730251348951" shape="-46.170199999999994,-107.96955 -42.082,-99.9362" speed="36.11111111111111" width="3.0122116393108884"/>
		<lane allow="moped bicycle pedestrian custom1 trailer evehicle rail_urban ship private truck vip custom2 authority delivery rail_electric taxi tram army hov coach motorcycle passenger bus rail emergency" index="3" length="8.74730251348951" shape="-48.94815,-106.54345 -44.7672,-98.4978" speed="36.11111111111111" width="3.0805742451692346"/>
	</edge>
	<edge from="28" function="normal" id="3559" length="17.69293538209547" numLanes="5" priority="1" speed="36.11111111111111" spreadType="center" to="29">
		<lane allow="moped bicycle pedestrian custom1 trailer evehicle rail_urban ship private truck vip custom2 authority delivery rail_electric taxi tram army hov coach motorcycle passenger bus rail emergency" index="0" length="17.69293538209547" shape="-36.5507,-103.07515000000001 -33.205,-96.1075 -28.69595,-87.0287" speed="36.11111111111111" width="3.5111446353005684"/>
		<lane allow="moped bicycle pedestrian custom1 trailer evehicle rail_urban ship private truck vip custom2 authority delivery rail_electric taxi tram army hov coach motorcycle passenger bus rail emergency" index="1" length="17.69293538209547" shape="-39.4403,-101.47335000000001 -36.045500000000004,-94.54820000000001 -31.4852,-85.43764999999999" speed="36.11111111111111" width="2.8911201583469297"/>
		<lane allow="moped bicycle pedestrian custom1 trailer evehicle rail_urban ship private truck vip custom2 authority delivery rail_electric taxi tram army hov coach motorcycle passenger bus rail emergency" index="2" length="17.69293538209547" shape="-42.082,-99.9362 -38.7355,-93.14885000000001 -34.175200000000004,-84.03835000000001" speed="36.11111111111111" width="3.0122116393108884"/>
		<lane allow="moped bicycle pedestrian custom1 trailer evehicle rail_urban ship private truck vip custom2 authority delivery rail_electric taxi tram army hov coach motorcycle passenger bus rail emergency" index="3" length="17.69293538209547" shape="-44.7672,-98.4978 -41.40635,-91.78765 -36.846000000000004,-82.6771" speed="36.11111111111111" width="2.8198292501497306"/>
		<lane allow="moped bicycle pedestrian custom1 trailer evehicle rail_urban ship private truck vip custom2 authority delivery rail_electric taxi tram army hov coach motorcycle passenger rail emergency" index="4" length="17.69293538209547" shape="-44.7672,-98.4978 -42.9346,-90.76265000000001 -39.45375,-81.22435" speed="36.11111111111111" width="2.9068515975192115"/>
	</edge>
	<edge from="29" function="normal" id="3568" length="47.08668512312134" numLanes="5" priority="1" speed="36.11111111111111" spreadType="center" to="30">
		<lane allow="moped bicycle pedestrian custom1 trailer evehicle rail_urban ship private truck vip custom2 authority delivery rail_electric taxi tram army hov coach motorcycle passenger bus rail emergency" index="0" length="47.08668512312134" shape="-28.69595,-87.0287 -24.49695,-78.5737 -20.2393,-69.99915 -15.80085,-61.06315 -11.50225,-52.602199999999996 -7.31675,-44.9531" speed="36.11111111111111" width="3.3461488699697717"/>