<!-- generated on 2020-12-18 16:01:33.674269 by ipykernel_launcher.py v1_2_0+5214-53edc58fcd
-->
<nodes>
	<node id="1" type="from" x="62.61525" y="56.7408"/>
	<node id="2" type="to" x="53.0345" y="57.0609"/>
	<node id="3" type="to" x="45.57705" y="71.12325"/>
	<node id="4" type="from" x="-46.80105" y="-5.5033"/>
	<node id="5" type="to" x="-32.781699999999994" y="-12.469466666666667"/>
	<node id="6" type="to" x="2.4715499999999997" y="-1.9956"/>
	<node id="7" type="to" x="16.172200000000004" y="18.793816666666665"/>
	<node id="8" type="to" x="19.984883333333332" y="26.383133333333333"/>
	<node id="9" type="to" x="29.87815" y="46.33636666666666"/>
	<node id="10" type="to" x="42.719449999999995" y="72.52701666666667"/>
	<node id="11" type="to" x="-24.437849999999997" y="-18.49645"/>
	<node id="12" type="to" x="-2.330975" y="-29.880575"/>
	<node id="13" type="to" x="12.156325" y="-37.0873"/>
	<node id="14" type="to" x="26.873949999999997" y="-46.34565"/>
	<node id="15" type="to" x="-29.865250000000003" y="-33.09115"/>
	<node id="16" type="to" x="-56.02455" y="-102.91075000000001"/>
	<node id="17" type="from" x="32.178475000000006" y="-35.549324999999996"/>
	<node id="18" type="to" x="19.915275" y="-29.554299999999998"/>
	<node id="19" type="to" x="14.770466666666666" y="-25.0448"/>
	<node id="20" type="to" x="8.827216666666665" y="-22.114516666666663"/>
	<node id="21" type="to" x="2.097675" y="-20.684350000000002"/>
	<node id="22" type="to" x="-19.9897" y="-9.678450000000002"/>
	<node id="23" type="to" x="-29.61525" y="-4.9350499999999995"/>
	<node id="24" type="to" x="-42.01521666666667" y="4.144216666666666"/>
	<node id="25" type="to" x="52.8238" y="52.00085"/>
	<node id="26" type="to" x="62.4046" y="51.68075"/>
	<node id="27" type="from" x="-44.7789875" y="-108.6837"/>
	<node id="28" type="to" x="-40.71005" y="-100.745625"/>
	<node id="29" type="to" x="-34.131220000000006" y="-84.08122999999999"/>
	<node id="30" type="to" x="-13.076400000000001" y="-41.916459999999994"/>
	<node id="31" type="to" x="-7.926916666666666" y="-30.842533333333336"/>
	<node id="32" type="to" x="-0.5669" y="-15.467033333333333"/>
	<node id="33" type="from" x="31.844060000000002" y="77.86928"/>
	<node id="34" type="to" x="18.88542" y="51.49435999999999"/>
	<node id="35" type="to" x="9.123850000000001" y="31.81736"/>
	<node id="36" type="to" x="3.949691666666667" y="24.90178333333333"/>
	<node id="37" type="to" x="-7.046525" y="2.8058083333333332"/>
	<node id="38" type="to" x="-14.3786" y="-8.716133333333334"/>
	<node id="39" type="to" x="-21.7049" y="-23.610316666666666"/>
</nodes>
