<?xml version="1.0" encoding="UTF-8"?>

<!-- generated on Fri Dec 18 16:01:33 2020 by Eclipse SUMO netconvert Version 1.8.0
<configuration xmlns:xsi="http://www.w3.org/2001/XMLSchema-instance" xsi:noNamespaceSchemaLocation="http://sumo.dlr.de/xsd/netconvertConfiguration.xsd">

    <input>
        <node-files value="./converted_scenarios/NGSIM/Lankershim/USA_Lanker-2_4_I-1-1/nodes.net.xml"/>
        <edge-files value="./converted_scenarios/NGSIM/Lankershim/USA_Lanker-2_4_I-1-1/edges.net.xml"/>
        <connection-files value="./converted_scenarios/NGSIM/Lankershim/USA_Lanker-2_4_I-1-1/_connections.net.xml"/>
        <tllogic-files value="./converted_scenarios/NGSIM/Lankershim/USA_Lanker-2_4_I-1-1/_tll.net.xml"/>
    </input>

    <output>
        <output-file value="./converted_scenarios/NGSIM/Lankershim/USA_Lanker-2_4_I-1-1/USA_Lanker-2_4_I-1-1.net.xml"/>
    </output>

    <processing>
        <plain.extend-edge-shape value="true"/>
        <geometry.remove.keep-edges.explicit value="true"/>
        <geometry.avoid-overlap value="true"/>
        <offset.disable-normalization value="true"/>
    </processing>

    <junctions>
        <no-turnarounds value="true"/>
        <junctions.internal-link-detail value="20"/>
    </junctions>

    <report>
        <aggregate-warnings value="5"/>
    </report>

    <random_number>
        <seed value="1234"/>
    </random_number>

</configuration>
-->

<net version="1.6" junctionCornerDetail="5" junctionLinkDetail="20" limitTurnSpeed="5.50" xmlns:xsi="http://www.w3.org/2001/XMLSchema-instance" xsi:noNamespaceSchemaLocation="http://sumo.dlr.de/xsd/net_file.xsd">

    <location netOffset="0.00,0.00" convBoundary="-56.02,-108.68,62.62,77.87" origBoundary="-58.85,-110.87,62.62,80.49" projParameter="!"/>

    <edge id=":11_0" function="internal">
        <lane id=":11_0_0" index="0" disallow="rail_fast" speed="36.11" length="0.26" width="3.31" shape="-23.62,-20.73 -23.84,-20.61"/>
        <lane id=":11_0_1" index="1" disallow="rail_fast" speed="36.11" length="0.26" width="3.11" shape="-22.15,-17.86 -22.38,-17.75"/>
    </edge>
    <edge id=":12_0" function="internal">
        <lane id=":12_0_0" index="0" disallow="rail_fast" speed="36.11" length="3.06" width="3.50" shape="-4.47,-30.69 -1.73,-32.08"/>
        <lane id=":12_0_1" index="1" disallow="rail_fast" speed="36.11" length="3.06" width="3.31" shape="-2.96,-27.65 -0.23,-29.02"/>
    </edge>
    <edge id=":13_0" function="internal">
        <lane id=":13_0_0" index="0" disallow="bus truck rail_fast" speed="11.02" length="10.30" width="3.87" shape="0.93,-41.05 1.59,-40.89 2.20,-40.74 2.75,-40.62 3.26,-40.52 3.73,-40.44 4.17,-40.39 4.58,-40.36 4.98,-40.35 5.36,-40.37 5.74,-40.41 6.12,-40.48 6.50,-40.57 6.90,-40.70 7.32,-40.85 7.76,-41.03 8.24,-41.24 8.75,-41.47 9.31,-41.74 9.92,-42.04"/>
        <lane id=":13_0_1" index="1" disallow="bus truck rail_fast" speed="12.20" length="10.30" width="3.51" shape="0.81,-37.49 1.61,-37.31 2.33,-37.15 3.00,-37.01 3.61,-36.90 4.17,-36.81 4.69,-36.75 5.19,-36.71 5.66,-36.70 6.12,-36.73 6.57,-36.78 7.02,-36.86 7.47,-36.97 7.95,-37.12 8.45,-37.30 8.97,-37.51 9.54,-37.76 10.16,-38.04 10.83,-38.36 11.56,-38.72"/>
    </edge>
    <edge id=":13_2" function="internal">
        <lane id=":13_2_0" index="0" disallow="bus truck rail_fast" speed="36.11" length="11.23" width="3.51" shape="1.60,-33.47 11.56,-38.72"/>
        <lane id=":13_2_1" index="1" disallow="bus truck rail_fast" speed="36.11" length="11.23" width="3.38" shape="3.34,-30.16 4.02,-30.64 4.64,-31.07 5.20,-31.46 5.72,-31.80 6.19,-32.11 6.63,-32.38 7.05,-32.63 7.45,-32.86 7.84,-33.08 8.24,-33.28 8.64,-33.49 9.05,-33.69 9.49,-33.90 9.96,-34.12 10.48,-34.37 11.04,-34.63 11.65,-34.92 12.33,-35.25 13.09,-35.62"/>
    </edge>
    <edge id=":13_4" function="internal">
        <lane id=":13_4_0" index="0" disallow="rail_fast" speed="36.11" length="13.86" width="3.51" shape="-0.85,-32.52 11.56,-38.72"/>
        <lane id=":13_4_1" index="1" disallow="rail_fast" speed="36.11" length="13.86" width="3.38" shape="0.67,-29.47 13.09,-35.62"/>
    </edge>
    <edge id=":15_0" function="internal">
        <lane id=":15_0_0" index="0" disallow="rail_fast" speed="36.11" length="19.07" width="2.82" shape="-23.30,-19.86 -31.75,-36.96"/>
        <lane id=":15_0_1" index="1" disallow="rail_fast" speed="36.11" length="19.07" width="2.97" shape="-20.53,-21.29 -28.92,-38.41"/>
        <lane id=":15_0_2" index="2" disallow="rail_fast" speed="36.11" length="19.07" width="2.96" shape="-17.83,-22.67 -26.23,-39.79"/>
    </edge>
    <edge id=":15_3" function="internal">
        <lane id=":15_3_0" index="0" disallow="bus truck rail_fast" speed="13.68" length="23.17" width="2.96" shape="-11.41,-22.91 -12.17,-23.07 -12.93,-23.31 -13.69,-23.64 -14.45,-24.04 -15.22,-24.53 -15.99,-25.09 -16.76,-25.74 -17.53,-26.46 -18.31,-27.27 -19.09,-28.16 -19.87,-29.13 -20.66,-30.18 -21.45,-31.31 -22.24,-32.52 -23.03,-33.81 -23.83,-35.19 -24.62,-36.64 -25.43,-38.17 -26.23,-39.79"/>
    </edge>
    <edge id=":15_4" function="internal">
        <lane id=":15_4_0" index="0" disallow="bus truck rail_fast" speed="36.11" length="4.30" width="2.82" shape="-29.87,-33.09 -31.75,-36.96"/>
    </edge>
    <edge id=":18_0" function="internal">
        <lane id=":18_0_0" index="0" disallow="rail_fast" speed="14.45" length="8.28" width="3.25" shape="24.35,-29.70 23.81,-29.43 23.32,-29.19 22.88,-28.96 22.48,-28.75 22.12,-28.55 21.79,-28.36 21.49,-28.16 21.21,-27.97 20.95,-27.77 20.70,-27.55 20.46,-27.33 20.22,-27.08 19.98,-26.82 19.73,-26.53 19.47,-26.20 19.19,-25.84 18.89,-25.45 18.57,-25.01 18.21,-24.52"/>
        <lane id=":18_0_1" index="1" disallow="rail_fast" speed="36.11" length="8.28" width="3.60" shape="24.35,-29.70 17.12,-26.13"/>
        <lane id=":18_0_2" index="2" disallow="rail_fast" speed="36.11" length="8.28" width="3.67" shape="22.76,-32.97 15.06,-29.17"/>
    </edge>
    <edge id=":19_0" function="internal">
        <lane id=":19_0_0" index="0" disallow="rail_fast" speed="9.74" length="3.41" width="3.19" shape="16.87,-22.70 16.71,-22.48 16.56,-22.29 16.41,-22.13 16.28,-21.98 16.14,-21.85 16.02,-21.74 15.89,-21.65 15.76,-21.56 15.63,-21.49 15.50,-21.42 15.36,-21.36 15.22,-21.30 15.06,-21.23 14.89,-21.17 14.72,-21.10 14.52,-21.02 14.31,-20.93 14.09,-20.83 13.84,-20.71"/>
        <lane id=":19_0_1" index="1" disallow="rail_fast" speed="36.11" length="3.41" width="3.52" shape="15.40,-25.28 12.36,-23.77"/>
        <lane id=":19_0_2" index="2" disallow="rail_fast" speed="36.11" length="3.41" width="3.68" shape="13.59,-28.44 10.79,-27.04"/>
    </edge>
    <edge id=":2_0" function="internal">
        <lane id=":2_0_0" index="0" disallow="bus truck rail_fast" speed="8.75" length="5.40" width="3.35" shape="53.43,57.05 53.04,57.06 52.68,57.08 52.35,57.09 52.06,57.12 51.78,57.14 51.53,57.18 51.29,57.22 51.07,57.27 50.86,57.34 50.66,57.41 50.46,57.51 50.26,57.61 50.05,57.74 49.84,57.88 49.62,58.04 49.39,58.23 49.14,58.43 48.86,58.67 48.57,58.92"/>
    </edge>
    <edge id=":20_0" function="internal">
        <lane id=":20_0_0" index="0" disallow="bus truck rail_fast" speed="14.27" length="3.68" width="2.93" shape="11.22,-19.45 10.97,-19.33 10.75,-19.22 10.54,-19.13 10.36,-19.04 10.19,-18.96 10.03,-18.89 9.88,-18.82 9.75,-18.75 9.62,-18.68 9.49,-18.60 9.37,-18.52 9.24,-18.43 9.12,-18.34 8.99,-18.23 8.85,-18.10 8.70,-17.97 8.54,-17.81 8.37,-17.63 8.18,-17.44"/>
    </edge>
    <edge id=":20_1" function="internal">
        <lane id=":20_1_0" index="0" disallow="rail_fast" speed="36.11" length="4.87" width="3.46" shape="9.76,-22.48 5.41,-20.33"/>
        <lane id=":20_1_1" index="1" disallow="rail_fast" speed="36.11" length="4.87" width="3.70" shape="8.20,-25.75 3.84,-23.56"/>
    </edge>
    <edge id=":20_3" function="internal">
        <lane id=":20_3_0" index="0" disallow="bus truck rail_fast" speed="36.11" length="4.93" width="3.01" shape="8.20,-25.75 7.87,-25.58 7.57,-25.44 7.30,-25.31 7.06,-25.19 6.83,-25.09 6.62,-25.00 6.42,-24.92 6.23,-24.85 6.05,-24.78 5.86,-24.72 5.67,-24.66 5.48,-24.60 5.27,-24.54 5.05,-24.48 4.81,-24.42 4.55,-24.35 4.26,-24.27 3.93,-24.18 3.58,-24.09"/>
    </edge>
    <edge id=":21_0" function="internal">
        <lane id=":21_0_0" index="0" disallow="rail_fast" speed="36.11" length="3.05" width="3.21" shape="4.24,-19.75 1.51,-18.39"/>
        <lane id=":21_0_1" index="1" disallow="rail_fast" speed="36.11" length="3.05" width="3.68" shape="2.66,-22.97 -0.06,-21.60"/>
    </edge>
    <edge id=":22_0" function="internal">
        <lane id=":22_0_0" index="0" disallow="rail_fast" speed="36.11" length="10.83" width="3.17" shape="-10.01,-12.69 -19.72,-7.89"/>
        <lane id=":22_0_1" index="1" disallow="rail_fast" speed="36.11" length="10.83" width="3.68" shape="-11.58,-15.82 -21.26,-10.97"/>
    </edge>
    <edge id=":22_2" function="internal">
        <lane id=":22_2_0" index="0" disallow="bus truck rail_fast" speed="9.83" length="11.33" width="3.68" shape="-14.63,-19.60 -14.75,-18.99 -14.90,-18.40 -15.07,-17.83 -15.27,-17.27 -15.49,-16.73 -15.74,-16.21 -16.02,-15.70 -16.31,-15.21 -16.64,-14.74 -16.99,-14.29 -17.36,-13.85 -17.76,-13.43 -18.19,-13.03 -18.64,-12.64 -19.11,-12.27 -19.61,-11.92 -20.14,-11.59 -20.69,-11.27 -21.26,-10.97"/>
    </edge>
    <edge id=":23_0" function="internal">
        <lane id=":23_0_0" index="0" disallow="bus truck rail_fast" speed="36.11" length="4.83" width="5.13" shape="-33.88,3.26 -29.21,2.04"/>
    </edge>
    <edge id=":23_1" function="internal">
        <lane id=":23_1_0" index="0" disallow="rail_fast" speed="36.11" length="4.52" width="3.11" shape="-26.97,-4.34 -31.00,-2.27"/>
        <lane id=":23_1_1" index="1" disallow="rail_fast" speed="36.11" length="4.52" width="3.66" shape="-28.29,-7.49 -32.30,-5.41"/>
    </edge>
    <edge id=":25_0" function="internal">
        <lane id=":25_0_0" index="0" disallow="bus truck rail_fast" speed="36.11" length="2.87" width="5.36" shape="51.39,51.98 54.26,51.95"/>
    </edge>
    <edge id=":28_0" function="internal">
        <lane id=":28_0_0" index="0" disallow="rail_fast" speed="36.11" length="7.96" width="3.51" shape="-38.09,-106.10 -34.48,-98.76"/>
        <lane id=":28_0_1" index="1" disallow="rail_fast" speed="36.11" length="7.96" width="2.89" shape="-40.99,-104.51 -37.40,-97.32"/>
        <lane id=":28_0_2" index="2" disallow="rail_fast" speed="36.11" length="7.96" width="3.01" shape="-43.67,-103.05 -40.13,-95.97"/>
        <lane id=":28_0_3" index="3" disallow="rail_fast" speed="36.11" length="7.96" width="2.82" shape="-46.37,-101.58 -42.83,-94.64"/>
        <lane id=":28_0_4" index="4" disallow="bus rail_fast" speed="36.11" length="7.96" width="2.91" shape="-46.37,-101.58 -46.10,-101.06 -45.86,-100.58 -45.64,-100.15 -45.45,-99.76 -45.28,-99.40 -45.13,-99.07 -45.00,-98.75 -44.88,-98.45 -44.77,-98.16 -44.67,-97.86 -44.57,-97.56 -44.48,-97.24 -44.40,-96.91 -44.31,-96.56 -44.21,-96.17 -44.11,-95.74 -44.00,-95.28 -43.88,-94.76 -43.75,-94.19"/>
    </edge>
    <edge id=":29_0" function="internal">
        <lane id=":29_0_0" index="0" disallow="rail_fast" speed="36.11" length="3.88" width="3.35" shape="-29.70,-89.06 -28.00,-85.64"/>
        <lane id=":29_0_1" index="1" disallow="rail_fast" speed="36.11" length="3.88" width="2.89" shape="-32.56,-87.58 -30.83,-84.14"/>
        <lane id=":29_0_2" index="2" disallow="rail_fast" speed="36.11" length="3.88" width="3.08" shape="-35.25,-86.18 -33.51,-82.72"/>
        <lane id=":29_0_3" index="3" disallow="rail_fast" speed="36.11" length="3.88" width="2.82" shape="-37.91,-84.80 -36.16,-81.31"/>
        <lane id=":29_0_4" index="4" disallow="bus rail_fast" speed="36.11" length="3.88" width="3.05" shape="-40.30,-83.56 -40.20,-83.28 -40.11,-83.03 -40.03,-82.80 -39.96,-82.60 -39.89,-82.41 -39.83,-82.24 -39.77,-82.08 -39.71,-81.92 -39.66,-81.78 -39.60,-81.63 -39.54,-81.48 -39.48,-81.33 -39.41,-81.18 -39.33,-81.01 -39.25,-80.83 -39.16,-80.63 -39.05,-80.41 -38.94,-80.18 -38.81,-79.91"/>
    </edge>
    <edge id=":30_0" function="internal">
        <lane id=":30_0_0" index="0" disallow="bus truck rail_fast" speed="10.23" length="10.24" width="3.11" shape="-8.28,-46.71 -8.04,-46.31 -7.78,-45.92 -7.50,-45.54 -7.20,-45.17 -6.88,-44.82 -6.53,-44.49 -6.16,-44.16 -5.76,-43.85 -5.35,-43.55 -4.91,-43.26 -4.45,-42.99 -3.97,-42.73 -3.46,-42.48 -2.93,-42.25 -2.38,-42.03 -1.81,-41.82 -1.21,-41.62 -0.59,-41.44 0.05,-41.27"/>
    </edge>
    <edge id=":30_1" function="internal">
        <lane id=":30_1_0" index="0" disallow="bus truck rail_fast" speed="11.58" length="11.05" width="3.13" shape="-11.33,-45.10 -10.97,-44.39 -10.63,-43.75 -10.30,-43.18 -9.98,-42.68 -9.66,-42.22 -9.35,-41.82 -9.02,-41.47 -8.69,-41.15 -8.35,-40.86 -7.98,-40.60 -7.59,-40.36 -7.18,-40.13 -6.73,-39.91 -6.24,-39.70 -5.71,-39.47 -5.13,-39.24 -4.51,-39.00 -3.82,-38.73 -3.08,-38.43"/>
    </edge>
    <edge id=":30_2" function="internal">
        <lane id=":30_2_0" index="0" disallow="rail_fast" speed="36.11" length="10.45" width="3.12" shape="-11.33,-45.10 -6.77,-35.55"/>
        <lane id=":30_2_1" index="1" disallow="rail_fast" speed="36.11" length="10.45" width="3.06" shape="-14.06,-43.67 -9.56,-34.23"/>
        <lane id=":30_2_2" index="2" disallow="rail_fast" speed="36.11" length="10.45" width="2.98" shape="-16.76,-42.25 -12.30,-32.94"/>
    </edge>
    <edge id=":30_5" function="internal">
        <lane id=":30_5_0" index="0" disallow="bus truck rail_fast" speed="36.11" length="10.20" width="2.87" shape="-19.45,-40.84 -19.11,-40.15 -18.80,-39.53 -18.52,-38.97 -18.27,-38.46 -18.04,-38.00 -17.83,-37.57 -17.63,-37.16 -17.45,-36.78 -17.27,-36.41 -17.10,-36.03 -16.94,-35.66 -16.78,-35.27 -16.61,-34.86 -16.44,-34.42 -16.26,-33.94 -16.07,-33.41 -15.86,-32.84 -15.63,-32.20 -15.39,-31.49"/>
    </edge>
    <edge id=":31_0" function="internal">
        <lane id=":31_0_0" index="0" disallow="rail_fast" speed="36.11" length="3.22" width="3.12" shape="-5.89,-33.69 -4.50,-30.79"/>
        <lane id=":31_0_1" index="1" disallow="rail_fast" speed="36.11" length="3.22" width="3.06" shape="-8.64,-32.29 -7.25,-29.38"/>
        <lane id=":31_0_2" index="2" disallow="rail_fast" speed="36.11" length="3.22" width="2.95" shape="-11.33,-30.92 -9.95,-28.01"/>
    </edge>
    <edge id=":32_0" function="internal">
        <lane id=":32_0_0" index="0" disallow="rail_fast" speed="36.11" length="2.64" width="3.14" shape="1.55,-18.20 2.70,-15.81"/>
        <lane id=":32_0_1" index="1" disallow="rail_fast" speed="36.11" length="2.64" width="3.10" shape="-1.26,-16.84 -0.12,-14.45"/>
        <lane id=":32_0_2" index="2" disallow="rail_fast" speed="36.11" length="2.64" width="2.93" shape="-3.98,-15.51 -2.85,-13.14"/>
    </edge>
    <edge id=":34_0" function="internal">
        <lane id=":34_0_0" index="0" disallow="rail_fast" speed="36.11" length="3.05" width="2.78" shape="14.23,55.49 12.87,52.76"/>
        <lane id=":34_0_1" index="1" disallow="rail_fast" speed="36.11" length="3.05" width="3.00" shape="16.83,54.23 15.48,51.50"/>
        <lane id=":34_0_2" index="2" disallow="bus rail_fast" speed="36.11" length="3.05" width="3.02" shape="19.55,52.91 18.21,50.17"/>
        <lane id=":34_0_3" index="3" disallow="bus rail_fast" speed="36.11" length="3.05" width="2.96" shape="22.28,51.59 20.93,48.85"/>
        <lane id=":34_0_4" index="4" disallow="rail_fast" speed="36.11" length="3.05" width="3.03" shape="24.99,50.27 23.64,47.54"/>
    </edge>
    <edge id=":35_0" function="internal">
        <lane id=":35_0_0" index="0" disallow="rail_fast" speed="21.96" length="7.43" width="2.94" shape="4.87,36.89 4.62,36.39 4.38,35.95 4.16,35.55 3.95,35.19 3.75,34.87 3.56,34.59 3.36,34.32 3.17,34.08 2.97,33.85 2.77,33.63 2.56,33.41 2.33,33.20 2.08,32.97 1.82,32.73 1.54,32.48 1.22,32.20 0.88,31.89 0.51,31.55 0.10,31.17"/>
        <lane id=":35_0_1" index="1" disallow="rail_fast" speed="36.11" length="7.43" width="2.94" shape="4.87,36.89 1.57,30.33"/>
        <lane id=":35_0_2" index="2" disallow="rail_fast" speed="36.11" length="7.43" width="3.05" shape="7.54,35.54 4.21,28.84"/>
        <lane id=":35_0_3" index="3" disallow="rail_fast" speed="36.11" length="7.43" width="3.03" shape="10.27,34.17 6.87,27.33"/>
        <lane id=":35_0_4" index="4" disallow="rail_fast" speed="36.11" length="7.43" width="3.05" shape="13.00,32.79 9.53,25.82"/>
        <lane id=":35_0_5" index="5" disallow="rail_fast" speed="36.11" length="7.43" width="3.12" shape="15.75,31.40 12.76,25.34"/>
    </edge>
    <edge id=":36_0" function="internal">
        <lane id=":36_0_0" index="0" disallow="rail_fast" speed="15.71" length="3.50" width="3.22" shape="-0.29,30.81 -0.49,30.62 -0.68,30.46 -0.86,30.32 -1.03,30.20 -1.19,30.09 -1.34,29.99 -1.49,29.90 -1.62,29.82 -1.76,29.74 -1.88,29.65 -2.00,29.56 -2.12,29.47 -2.24,29.36 -2.36,29.24 -2.48,29.10 -2.60,28.94 -2.72,28.75 -2.84,28.54 -2.97,28.30"/>
        <lane id=":36_0_1" index="1" disallow="rail_fast" speed="36.11" length="3.50" width="2.87" shape="1.37,29.95 -0.15,26.93"/>
        <lane id=":36_0_2" index="2" disallow="rail_fast" speed="36.11" length="3.50" width="3.00" shape="4.07,28.56 2.60,25.60"/>
        <lane id=":36_0_3" index="3" disallow="rail_fast" speed="36.11" length="3.50" width="3.02" shape="6.79,27.17 5.33,24.26"/>
        <lane id=":36_0_4" index="4" disallow="rail_fast" speed="36.11" length="3.50" width="3.02" shape="9.48,25.73 8.05,22.88"/>
        <lane id=":36_0_5" index="5" disallow="rail_fast" speed="36.11" length="3.50" width="3.03" shape="12.67,25.16 10.84,21.47"/>
    </edge>
    <edge id=":37_0" function="internal">
        <lane id=":37_0_0" index="0" disallow="bus truck rail_fast" speed="36.11" length="4.73" width="3.84" shape="-12.52,9.33 -12.68,9.02 -12.82,8.73 -12.95,8.47 -13.06,8.24 -13.17,8.02 -13.26,7.82 -13.35,7.64 -13.44,7.46 -13.53,7.29 -13.62,7.13 -13.71,6.96 -13.81,6.80 -13.92,6.62 -14.05,6.44 -14.19,6.25 -14.34,6.04 -14.52,5.81 -14.71,5.56 -14.94,5.29"/>
    </edge>
    <edge id=":37_1" function="internal">
        <lane id=":37_1_0" index="0" disallow="rail_fast" speed="36.11" length="5.10" width="2.87" shape="-9.55,7.82 -11.86,3.23"/>
        <lane id=":37_1_1" index="1" disallow="rail_fast" speed="36.11" length="5.10" width="3.02" shape="-6.90,6.47 -9.20,1.92"/>
        <lane id=":37_1_2" index="2" disallow="rail_fast" speed="36.11" length="5.10" width="3.12" shape="-4.17,5.08 -6.42,0.54"/>
    </edge>
    <edge id=":37_4" function="internal">
        <lane id=":37_4_0" index="0" disallow="bus truck rail_fast" speed="36.11" length="5.03" width="2.93" shape="-1.43,3.68 -3.67,-0.82"/>
    </edge>
    <edge id=":37_5" function="internal">
        <lane id=":37_5_0" index="0" disallow="bus truck rail_fast" speed="36.11" length="4.99" width="3.03" shape="1.29,2.29 -0.94,-2.18"/>
    </edge>
    <edge id=":38_0" function="internal">
        <lane id=":38_0_0" index="0" disallow="rail_fast" speed="36.11" length="3.02" width="3.06" shape="-16.44,-6.01 -17.78,-8.72"/>
        <lane id=":38_0_1" index="1" disallow="rail_fast" speed="36.11" length="3.02" width="2.99" shape="-13.72,-7.34 -15.05,-10.06"/>
        <lane id=":38_0_2" index="2" disallow="rail_fast" speed="36.11" length="3.02" width="3.06" shape="-10.96,-8.70 -12.30,-11.41"/>
    </edge>
    <edge id=":39_0" function="internal">
        <lane id=":39_0_0" index="0" disallow="rail_fast" speed="36.11" length="1.22" width="3.29" shape="-23.76,-20.77 -23.22,-19.68"/>
        <lane id=":39_0_1" index="1" disallow="rail_fast" speed="36.11" length="1.22" width="2.97" shape="-20.97,-22.20 -20.44,-21.11"/>
        <lane id=":39_0_2" index="2" disallow="rail_fast" speed="36.11" length="1.22" width="3.01" shape="-18.28,-23.59 -17.75,-22.49"/>
    </edge>
    <edge id=":5_0" function="internal">
        <lane id=":5_0_0" index="0" disallow="bus truck rail_fast" speed="8.72" length="16.70" width="3.23" shape="-36.09,-14.29 -34.85,-14.93 -33.69,-15.56 -32.62,-16.19 -31.62,-16.83 -30.71,-17.46 -29.88,-18.08 -29.14,-18.71 -28.48,-19.34 -27.89,-19.96 -27.40,-20.58 -26.98,-21.20 -26.65,-21.82 -26.39,-22.44 -26.22,-23.05 -26.14,-23.67 -26.13,-24.28 -26.21,-24.89 -26.37,-25.50 -26.61,-26.10"/>
    </edge>
    <edge id=":5_1" function="internal">
        <lane id=":5_1_0" index="0" disallow="rail_fast" speed="36.11" length="13.86" width="3.23" shape="-36.09,-14.29 -23.79,-20.64"/>
        <lane id=":5_1_1" index="1" disallow="rail_fast" speed="36.11" length="13.86" width="3.03" shape="-34.70,-11.49 -22.33,-17.77"/>
    </edge>
    <edge id=":5_3" function="internal">
        <lane id=":5_3_0" index="0" disallow="bus truck rail_fast" speed="36.11" length="1.56" width="2.92" shape="-33.35,-8.75 -34.75,-8.07"/>
    </edge>
    <edge id=":6_0" function="internal">
        <lane id=":6_0_0" index="0" disallow="bus truck rail_fast" speed="9.12" length="13.80" width="3.05" shape="7.62,-16.85 7.26,-16.42 6.93,-15.96 6.66,-15.48 6.43,-14.97 6.24,-14.43 6.10,-13.86 6.01,-13.26 5.96,-12.64 5.96,-11.98 6.00,-11.30 6.09,-10.59 6.22,-9.86 6.40,-9.09 6.62,-8.29 6.89,-7.47 7.21,-6.62 7.57,-5.74 7.98,-4.83 8.43,-3.90"/>
    </edge>
    <edge id=":6_1" function="internal">
        <lane id=":6_1_0" index="0" disallow="rail_fast" speed="36.11" length="13.06" width="3.05" shape="2.79,-15.63 8.43,-3.90"/>
        <lane id=":6_1_1" index="1" disallow="rail_fast" speed="36.11" length="13.06" width="2.91" shape="-0.03,-14.27 5.61,-2.49"/>
        <lane id=":6_1_2" index="2" disallow="rail_fast" speed="36.11" length="13.06" width="2.89" shape="-2.76,-12.96 2.91,-1.13"/>
    </edge>
    <edge id=":6_4" function="internal">
        <lane id=":6_4_0" index="0" disallow="bus truck rail_fast" speed="36.11" length="13.55" width="2.89" shape="-3.61,-13.01 2.91,-1.13"/>
    </edge>
    <edge id=":7_0" function="internal">
        <lane id=":7_0_0" index="0" disallow="rail_fast" speed="36.11" length="0.24" width="3.05" shape="18.76,17.36 18.86,17.57"/>
        <lane id=":7_0_1" index="1" disallow="rail_fast" speed="36.11" length="0.24" width="2.91" shape="16.09,18.69 16.20,18.91"/>
        <lane id=":7_0_2" index="2" disallow="rail_fast" speed="36.11" length="0.24" width="2.89" shape="13.50,19.99 13.61,20.22"/>
    </edge>
    <edge id=":8_0" function="internal">
        <lane id=":8_0_0" index="0" disallow="rail_fast" speed="36.11" length="3.05" width="3.03" shape="21.98,23.64 23.35,26.37"/>
        <lane id=":8_0_1" index="1" disallow="rail_fast" speed="36.11" length="3.05" width="3.00" shape="19.26,25.00 20.62,27.73"/>
        <lane id=":8_0_2" index="2" disallow="rail_fast" speed="36.11" length="3.05" width="2.94" shape="16.62,26.32 17.96,29.05"/>
    </edge>
    <edge id=":9_0" function="internal">
        <lane id=":9_0_0" index="0" disallow="bus truck rail_fast" speed="10.11" length="13.46" width="3.16" shape="31.61,42.90 32.05,43.74 32.49,44.54 32.94,45.30 33.40,46.01 33.87,46.68 34.34,47.31 34.82,47.89 35.31,48.43 35.81,48.93 36.31,49.39 36.82,49.80 37.34,50.17 37.86,50.50 38.39,50.78 38.93,51.02 39.47,51.22 40.03,51.38 40.59,51.49 41.15,51.57"/>
    </edge>
    <edge id=":9_1" function="internal">
        <lane id=":9_1_0" index="0" disallow="rail_fast" speed="36.11" length="13.11" width="3.16" shape="31.61,42.90 37.41,54.67"/>
        <lane id=":9_1_1" index="1" disallow="bus rail_fast" speed="36.11" length="13.11" width="2.93" shape="28.83,44.25 34.65,56.00"/>
        <lane id=":9_1_2" index="2" disallow="rail_fast" speed="36.11" length="13.11" width="3.07" shape="26.08,45.59 31.91,57.33"/>
    </edge>

    <edge id="3426" from="34" to="35" priority="1" spreadType="center" length="21.90">
        <lane id="3426_0" index="0" disallow="rail_fast" speed="36.11" length="21.90" width="2.78" customShape="1" shape="12.87,52.76 8.40,43.87 4.87,36.89"/>
        <lane id="3426_1" index="1" disallow="rail_fast" speed="36.11" length="21.90" width="3.00" customShape="1" shape="15.48,51.50 11.05,42.61 7.54,35.54"/>
        <lane id="3426_2" index="2" disallow="rail_fast" speed="36.11" length="21.90" width="3.02" customShape="1" shape="18.21,50.17 13.74,41.18 10.27,34.17"/>
        <lane id="3426_3" index="3" disallow="rail_fast" speed="36.11" length="21.90" width="2.96" customShape="1" shape="20.93,48.85 16.42,39.72 13.00,32.79"/>
        <lane id="3426_4" index="4" disallow="rail_fast" speed="36.11" length="21.90" width="3.03" customShape="1" shape="23.64,47.54 19.15,38.34 15.75,31.40"/>
    </edge>
    <edge id="3438" from="35" to="36" priority="1" spreadType="center" length="8.44">
        <lane id="3438_0" index="0" disallow="rail_fast" speed="36.11" length="8.44" width="2.94" customShape="1" shape="0.10,31.17 -0.29,30.81"/>
        <lane id="3438_1" index="1" disallow="rail_fast" speed="36.11" length="8.44" width="2.94" customShape="1" shape="1.57,30.33 1.37,29.95"/>
        <lane id="3438_2" index="2" disallow="rail_fast" speed="36.11" length="8.44" width="3.05" customShape="1" shape="4.21,28.84 4.07,28.56"/>
        <lane id="3438_3" index="3" disallow="rail_fast" speed="36.11" length="8.44" width="3.03" customShape="1" shape="6.87,27.33 6.79,27.17"/>
        <lane id="3438_4" index="4" disallow="rail_fast" speed="36.11" length="8.44" width="3.05" customShape="1" shape="9.53,25.82 9.48,25.73"/>
        <lane id="3438_5" index="5" disallow="rail_fast" speed="36.11" length="8.44" width="3.12" customShape="1" shape="12.76,25.34 12.67,25.16"/>
    </edge>
    <edge id="3450" from="36" to="37" priority="1" spreadType="center" length="24.49">
        <lane id="3450_0" index="0" disallow="rail_fast" speed="36.11" length="24.49" width="3.22" customShape="1" shape="-2.97,28.30 -6.15,22.03 -9.94,14.35 -12.52,9.33"/>
        <lane id="3450_1" index="1" disallow="rail_fast" speed="36.11" length="24.49" width="2.87" customShape="1" shape="-0.15,26.93 -3.15,20.88 -6.98,12.93 -9.55,7.82"/>
        <lane id="3450_2" index="2" disallow="rail_fast" speed="36.11" length="24.49" width="3.00" customShape="1" shape="2.60,25.60 -0.42,19.55 -4.27,11.60 -6.90,6.47"/>
        <lane id="3450_3" index="3" disallow="rail_fast" speed="36.11" length="24.49" width="3.02" customShape="1" shape="5.33,24.26 2.25,18.10 -1.64,10.15 -4.17,5.08"/>
        <lane id="3450_4" index="4" disallow="rail_fast" speed="36.11" length="24.49" width="3.02" customShape="1" shape="8.05,22.88 4.93,16.64 1.05,8.70 -1.43,3.68"/>
        <lane id="3450_5" index="5" disallow="rail_fast" speed="36.11" length="24.49" width="3.03" customShape="1" shape="10.84,21.47 7.63,15.14 3.74,7.19 1.29,2.29"/>
    </edge>
    <edge id="3456" from="6" to="7" priority="1" spreadType="center" length="24.71">
        <lane id="3456_0" index="0" disallow="rail_fast" speed="36.11" length="24.71" width="3.05" customShape="1" shape="8.43,-3.90 11.59,2.44 15.45,10.36 18.76,17.36"/>
        <lane id="3456_1" index="1" disallow="rail_fast" speed="36.11" length="24.71" width="2.91" customShape="1" shape="5.61,-2.49 9.03,4.21 12.71,11.77 16.09,18.69"/>
        <lane id="3456_2" index="2" disallow="rail_fast" speed="36.11" length="24.71" width="2.89" customShape="1" shape="2.91,-1.13 6.40,5.77 10.19,13.47 13.50,19.99"/>
    </edge>
    <edge id="3462" from="7" to="8" priority="1" spreadType="center" length="8.47">
        <lane id="3462_0" index="0" disallow="rail_fast" speed="36.11" length="8.47" width="3.05" customShape="1" shape="18.86,17.57 21.98,23.64"/>
        <lane id="3462_1" index="1" disallow="rail_fast" speed="36.11" length="8.47" width="2.91" customShape="1" shape="16.20,18.91 19.26,25.00"/>
        <lane id="3462_2" index="2" disallow="rail_fast" speed="36.11" length="8.47" width="2.89" customShape="1" shape="13.61,20.22 16.62,26.32"/>
    </edge>
    <edge id="3468" from="8" to="9" priority="1" spreadType="center" length="22.24">
        <lane id="3468_0" index="0" disallow="rail_fast" speed="36.11" length="22.24" width="3.03" customShape="1" shape="23.35,26.37 27.29,34.32 31.61,42.90"/>
        <lane id="3468_1" index="1" disallow="rail_fast" speed="36.11" length="22.24" width="3.00" customShape="1" shape="20.62,27.73 24.61,35.73 28.83,44.25"/>
        <lane id="3468_2" index="2" disallow="rail_fast" speed="36.11" length="22.24" width="2.94" customShape="1" shape="17.96,29.05 21.92,37.11 26.08,45.59"/>
    </edge>
    <edge id="3498" from="1" to="2" priority="1" spreadType="center" length="9.59">
        <lane id="3498_0" index="0" disallow="rail_fast" speed="36.11" length="9.59" width="4.77" customShape="1" shape="62.62,56.74 53.43,57.05"/>
    </edge>
    <edge id="3500" from="25" to="26" priority="1" spreadType="center" length="9.59">
        <lane id="3500_0" index="0" disallow="rail_fast" speed="36.11" length="9.59" width="5.36" customShape="1" shape="54.26,51.95 62.40,51.68"/>
    </edge>
    <edge id="3509" from="4" to="5" priority="1" spreadType="center" length="15.63">
        <lane id="3509_0" index="0" disallow="rail_fast" speed="36.11" length="15.63" width="3.23" customShape="1" shape="-48.18,-8.28 -43.78,-10.46 -36.09,-14.29"/>
        <lane id="3509_1" index="1" disallow="rail_fast" speed="36.11" length="15.63" width="3.02" customShape="1" shape="-46.79,-5.48 -42.35,-7.68 -34.70,-11.49"/>
        <lane id="3509_2" index="2" disallow="rail_fast" speed="36.11" length="15.63" width="3.06" customShape="1" shape="-45.44,-2.75 -40.94,-4.98 -33.35,-8.75"/>
    </edge>
    <edge id="3517" from="23" to="24" priority="1" spreadType="center" length="14.50">
        <lane id="3517_0" index="0" disallow="rail_fast" speed="36.11" length="14.50" width="5.13" acceleration="1" customShape="1" shape="-29.21,2.04 -36.54,5.57 -40.16,7.55"/>
        <lane id="3517_1" index="1" disallow="rail_fast" speed="36.11" length="14.50" width="3.11" customShape="1" shape="-31.00,-2.27 -38.44,1.72 -42.13,3.93"/>
        <lane id="3517_2" index="2" disallow="rail_fast" speed="36.11" length="14.50" width="3.66" customShape="1" shape="-32.30,-5.41 -39.96,-1.30 -43.75,0.96"/>
    </edge>
    <edge id="3525" from="13" to="14" priority="1" spreadType="center" length="17.28">