<?xml version="1.0" encoding="UTF-8"?>

<!-- generated on Fri Dec 18 15:44:28 2020 by Eclipse SUMO netconvert Version 1.8.0
<configuration xmlns:xsi="http://www.w3.org/2001/XMLSchema-instance" xsi:noNamespaceSchemaLocation="http://sumo.dlr.de/xsd/netconvertConfiguration.xsd">

    <input>
        <node-files value="./converted_scenarios/hand-crafted/DEU_A9-2_1_I-1-1/nodes.net.xml"/>
        <edge-files value="./converted_scenarios/hand-crafted/DEU_A9-2_1_I-1-1/edges.net.xml"/>
        <connection-files value="./converted_scenarios/hand-crafted/DEU_A9-2_1_I-1-1/_connections.net.xml"/>
        <tllogic-files value="./converted_scenarios/hand-crafted/DEU_A9-2_1_I-1-1/_tll.net.xml"/>
    </input>

    <output>
        <output-file value="./converted_scenarios/hand-crafted/DEU_A9-2_1_I-1-1/DEU_A9-2_1_I-1-1.net.xml"/>
    </output>

    <processing>
        <plain.extend-edge-shape value="true"/>
        <geometry.remove.keep-edges.explicit value="true"/>
        <geometry.avoid-overlap value="true"/>
        <offset.disable-normalization value="true"/>
    </processing>

    <junctions>
        <no-turnarounds value="true"/>
        <junctions.internal-link-detail value="20"/>
    </junctions>

    <report>
        <aggregate-warnings value="5"/>
    </report>

    <random_number>
        <seed value="1234"/>
    </random_number>

</configuration>
-->

<net version="1.6" junctionCornerDetail="5" junctionLinkDetail="20" limitTurnSpeed="5.50" xmlns:xsi="http://www.w3.org/2001/XMLSchema-instance" xsi:noNamespaceSchemaLocation="http://sumo.dlr.de/xsd/net_file.xsd">

    <location netOffset="0.00,0.00" convBoundary="-39.29,-0.44,387.27,3.96" origBoundary="-39.38,-4.02,387.35,7.51" projParameter="!"/>

    <edge id="30622" from="1" to="2" priority="1" spreadType="center" length="426.58">
        <lane id="30622_0" index="0" disallow="rail_fast" speed="36.11" length="426.58" width="3.73" customShape="1" shape="-39.26,-4.02 -20.80,-3.83 -20.69,-3.83 -0.02,-3.61 0.10,-3.61 21.40,-3.39 21.52,-3.39 26.75,-3.34 32.04,-3.28 32.20,-3.28 37.36,-3.23 37.57,-3.23 42.94,-3.17 43.05,-3.17 71.92,-2.87 72.03,-2.87 95.13,-2.63 95.25,-2.63 120.11,-2.37 120.22,-2.37 154.70,-2.02 154.81,-2.02 182.10,-1.73 182.22,-1.73 207.39,-1.47 207.50,-1.47 228.19,-1.26 228.30,-1.26 256.82,-0.96 256.93,-0.96 286.21,-0.66 286.33,-0.66 310.59,-0.41 310.71,-0.41 334.17,-0.16 334.28,-0.16 363.93,0.14 364.04,0.14 387.35,0.39"/>
        <lane id="30622_1" index="1" disallow="rail_fast" speed="36.11" length="426.58" width="3.50" customShape="1" shape="-39.29,-0.41 -20.84,-0.21 -0.05,-0.00 21.37,0.22 26.73,0.28 26.85,0.28 32.01,0.33 32.24,0.33 37.32,0.38 42.90,0.44 71.88,0.74 95.10,0.98 120.07,1.24 154.66,1.60 182.06,1.88 207.35,2.14 228.15,2.35 256.78,2.65 286.18,2.95 310.56,3.20 334.13,3.45 363.89,3.76 387.28,4.00"/>
        <lane id="30622_2" index="2" disallow="rail_fast" speed="36.11" length="426.58" width="3.53" customShape="1" shape="-39.38,3.11 -21.00,3.30 -20.82,3.30 -0.22,3.51 -0.04,3.51 21.20,3.73 21.38,3.74 26.50,3.79 26.82,3.79 31.85,3.84 32.21,3.85 37.02,3.90 37.34,3.90 42.73,3.96 42.92,3.96 71.71,4.25 71.90,4.26 94.93,4.49 95.11,4.50 119.91,4.75 120.09,4.75 154.49,5.11 154.67,5.11 181.90,5.39 182.08,5.39 207.18,5.65 207.36,5.65 227.98,5.87 228.17,5.87 256.61,6.16 256.80,6.16 286.01,6.47 286.19,6.47 310.39,6.72 310.57,6.72 333.96,6.96 334.15,6.96 363.72,7.27 363.91,7.27 387.23,7.51"/>
    </edge>

    <junction id="1" type="dead_end" x="-39.29" y="-0.44" incLanes="" intLanes="" shape="-39.35,4.88 -39.24,-5.88"/>
    <junction id="2" type="dead_end" x="387.27" y="3.96" incLanes="30622_0 30622_1 30622_2" intLanes="" shape="387.33,-1.48 387.21,9.28"/>

</net>
