<!-- generated on 2020-12-18 15:44:27.859279 by ipykernel_launcher.py v1_2_0+5214-53edc58fcd
-->
<edges>
	<edge from="1" function="normal" id="30622" length="426.58431313370767" numLanes="3" priority="1" speed="36.11111111111111" spreadType="center" to="2">
		<lane allow="pedestrian rail private passenger ship delivery vip emergency bicycle rail_electric army rail_urban trailer coach bus custom2 tram taxi evehicle custom1 motorcycle authority truck hov moped" index="0" length="426.58431313370767" shape="-39.213449999999995,-4.0168 -20.7979,-3.82695 -20.6851,-3.8258 -0.01508185,-3.6127000000000002 0.0977555,-3.6115500000000003 21.4025,-3.3919 21.515349999999998,-3.3907 26.74725,-3.3368 26.763849999999998,-3.3366 32.04455,-3.2821 32.2023,-3.2805 37.3595,-3.2273 37.56755,-3.2252 42.9371,-3.1698 43.04995,-3.1686 71.91725,-2.8709 72.03005,-2.86975 95.13365,-2.63142 95.24645,-2.630235 120.11105,-2.37373 120.22385,-2.372545 154.69605,-2.0168500000000003 154.80885,-2.015715 182.10225,-1.73403 182.21505,-1.732845 207.38575,-1.4730400000000001 207.49855,-1.47186 228.18755,-1.25827 228.30035,-1.2571400000000001 256.81915,-0.96266 256.93195,-0.9614800000000001 286.21485,-0.6591 286.32765,-0.65795 310.59255,-0.4072999999999999 310.70535,-0.4061500000000001 334.16735,-0.16379999999999995 334.28020000000004,-0.16259999999999997 363.92955,0.14370000000000005 364.04235,0.14489999999999992 387.3483,0.38570000000000004" speed="36.11111111111111" width="3.728798762336203"/>
		<lane allow="pedestrian rail private passenger ship delivery vip emergency bicycle rail_electric army rail_urban trailer coach bus custom2 tram taxi evehicle custom1 motorcycle authority truck hov moped" index="1" length="426.58431313370767" shape="-39.28095,-0.40495000000000003 -20.83515,-0.21475 -20.78285,-0.21424999999999994 -0.052321,-0.0005499999999999394 0.0,0.0 21.36525,0.22024999999999995 21.4176,0.22085 26.726599999999998,0.27554999999999996 26.8538,0.27684999999999993 32.0073,0.33004999999999995 32.2447,0.33245 37.32225,0.38485 37.37245,0.3853500000000001 42.89985,0.44235000000000013 42.9522,0.44284999999999997 71.88,0.7412000000000001 71.9323,0.74175 95.09635,0.98068 95.1487,0.9812500000000001 120.0738,1.23837 120.1261,1.23889 154.65875,1.5952000000000002 154.71105,1.5957700000000001 182.06495,1.87802 182.11725,1.87859 207.34845,2.13901 207.40075000000002,2.13953 228.15025,2.35373 228.20255,2.3543000000000003 256.78184999999996,2.64934 256.83415,2.6499099999999998 286.17755,2.9528999999999996 286.22985,2.95345 310.55525,3.20465 310.60755,3.20525 334.13005,3.44815 334.18235000000004,3.44875 363.89225,3.75565 363.94455,3.7562499999999996 387.2807,3.9973" speed="36.11111111111111" width="3.4954864182256515"/>
		<lane allow="pedestrian rail private passenger ship delivery vip emergency bicycle rail_electric army rail_urban trailer coach bus custom2 tram taxi evehicle custom1 motorcycle authority truck hov moped" index="2" length="426.58431313370767" shape="-39.382949999999994,3.1088 -21.0029,3.29825 -20.8191,3.30015 -0.2201,3.5124999999999997 -0.036233,3.5143999999999997 21.197499999999998,3.7333 21.381349999999998,3.7352 26.504,3.78805 26.8176,3.79125 31.84675,3.8430999999999997 32.20845,3.84685 37.02265,3.8964499999999997 37.3362,3.8997 42.7321,3.95535 42.915949999999995,3.95725 71.7122,4.2542 71.89605,4.2561 94.92859999999999,4.4937000000000005 95.11245,4.4956 119.906,4.7513000000000005 120.08985,4.7532 154.49095,5.1082 154.6748,5.1101 181.89715,5.391 182.08100000000002,5.3929 207.18065,5.6518999999999995 207.36445,5.6538 227.98245,5.86665 228.1663,5.868550000000001 256.61405,6.16225 256.7979,6.164149999999999 286.00975,6.46575 286.19354999999996,6.46765 310.38734999999997,6.717549999999999 310.57124999999996,6.71945 333.96225000000004,6.96105 334.14605,6.962949999999999 363.72434999999996,7.2684999999999995 363.90824999999995,7.2703999999999995 387.17864999999995,7.5108" speed="36.11111111111111" width="3.533188538699852"/>
	</edge>
</edges>
