<!-- generated on 2020-12-18 15:44:27.942034 by ipykernel_launcher.py v1_2_0+5214-53edc58fcd
-->
<nodes>
	<node id="1" type="from" x="-39.292449999999995" y="-0.4376500000000001"/>
	<node id="2" type="to" x="387.26921666666664" y="3.9645999999999995"/>
</nodes>
