<routes>
	<vehicle depart="0.1" departLane="0" departPos="11.390182835215253" departSpeed="0.59609914" id="35" type="passenger">
		<route edges=":17_7 13357"/>
	</vehicle>
	<vehicle depart="0.1" departLane="0" departPos="72.4996844875643" departSpeed="1.741363" id="39" type="passenger">
		<route edges="13269 13272"/>
	</vehicle>
	<vehicle depart="0.1" departLane="0" departPos="51.738062855534" departSpeed="1.2458972" id="316" type="passenger">
		<route edges="13269 13357"/>
	</vehicle>
	<vehicle depart="0.1" departLane="0" departPos="58.445667307060205" departSpeed="0.6018314" id="320" type="passenger">
		<route edges="13269 13357"/>
	</vehicle>
	<vehicle depart="0.1" departLane="0" departPos="36.5105845975054" departSpeed="9.0556141" id="343" type="passenger">
		<route edges=":17_3 13357"/>
	</vehicle>
	<vehicle depart="0.1" departLane="0" departPos="60.434953617638314" departSpeed="12.53207" id="346" type="passenger">
		<route edges="13271 13268"/>
	</vehicle>
	<vehicle depart="0.1" departLane="0" departPos="20.602916294891052" departSpeed="9.0289461" id="347" type="passenger">
		<route edges="13271 13357"/>
	</vehicle>
	<vehicle depart="0.1" departLane="0" departPos="41.568655098371785" departSpeed="15.59623" id="341" type="motorcycle">
		<route edges=":17_2 13268"/>
	</vehicle>
	<vehicle depart="0.1" departLane="0" departPos="48.14921956938011" departSpeed="0.78739038" id="30" type="truck">
		<route edges="13358 13272"/>
	</vehicle>
</routes>
