<routes>
	<vehicle depart="0.1" departLane="0" departPos="0" departSpeed="25.8604" id="32" type="passenger">
		<route edges="68 61"/>
	</vehicle>
	<vehicle depart="0.1" departLane="0" departPos="0" departSpeed="22.9772" id="36" type="passenger">
		<route edges="61"/>
	</vehicle>
	<vehicle depart="0.1" departLane="0" departPos="0" departSpeed="24.762" id="37" type="passenger">
		<route edges="67 61"/>
	</vehicle>
	<vehicle depart="0.1" departLane="1" departPos="0" departSpeed="25.5824" id="39" type="passenger">
		<route edges="66 68 61"/>
	</vehicle>
	<vehicle depart="0.1" departLane="0" departPos="12.016644457508184" departSpeed="27.5876" id="310" type="passenger">
		<route edges="62 56 67 61"/>
	</vehicle>
	<vehicle depart="0.1" departLane="0" departPos="241.26562337636122" departSpeed="23.5777" id="311" type="passenger">
		<route edges="58 66 68 61"/>
	</vehicle>
	<vehicle depart="0.1" departLane="1" departPos="211.9393084105947" departSpeed="25.6308" id="312" type="passenger">
		<route edges="58 66 68 61"/>
	</vehicle>
	<vehicle depart="0.1" departLane="0" departPos="108.68037930888036" departSpeed="27.7722" id="313" type="passenger">
		<route edges="59 62 56 67 61"/>
	</vehicle>
	<vehicle depart="0.1" departLane="0" departPos="191.63076352351584" departSpeed="25.1631" id="314" type="passenger">
		<route edges="58 66 68 61"/>
	</vehicle>
	<vehicle depart="0.1" departLane="1" departPos="167.09245474408743" departSpeed="23.8113" id="315" type="passenger">
		<route edges="58 66 68 61"/>
	</vehicle>
	<vehicle depart="0.1" departLane="0" departPos="0" departSpeed="24.6927" id="316" type="passenger">
		<route edges="59 62 56 67 61"/>
	</vehicle>
	<vehicle depart="0.1" departLane="1" departPos="124.58035270146385" departSpeed="21.8849" id="318" type="passenger">
		<route edges="58 66 55 68 61"/>
	</vehicle>
	<vehicle depart="0.1" departLane="0" departPos="0" departSpeed="20.5624" id="319" type="passenger">
		<route edges="59 62 56 67 61"/>
	</vehicle>
	<vehicle depart="0.1" departLane="0" departPos="109.24541943784686" departSpeed="20.5485" id="320" type="passenger">
		<route edges="58 66 68 61"/>
	</vehicle>
	<vehicle depart="0.1" departLane="1" departPos="91.71849698805217" departSpeed="19.3652" id="321" type="passenger">
		<route edges="58 66 68 61"/>
	</vehicle>
	<vehicle depart="0.1" departLane="0" departPos="13.97574580145401" departSpeed="17.792" id="322" type="passenger">
		<route edges="65 59 62 56 67 61"/>
	</vehicle>
	<vehicle depart="0.1" departLane="0" departPos="80.62485746807089" departSpeed="17.8383" id="323" type="passenger">
		<route edges="58 66 68 61"/>
	</vehicle>
	<vehicle depart="0.1" departLane="1" departPos="61.88315917517863" departSpeed="15.617" id="324" type="passenger">
		<route edges="58 66 55 68 61"/>
	</vehicle>
	<vehicle depart="0.1" departLane="0" departPos="0" departSpeed="12.5458" id="325" type="passenger">
		<route edges="53 65 59 62 56 67 61"/>
	</vehicle>
	<vehicle depart="0.1" departLane="0" departPos="53.31148808299853" departSpeed="14.1138" id="326" type="passenger">
		<route edges="58 66 55 68 61"/>
	</vehicle>
	<vehicle depart="0.1" departLane="1" departPos="40.18560903151171" departSpeed="12.5241" id="327" type="passenger">
		<route edges="58 66 55 68 61"/>
	</vehicle>
	<vehicle depart="0.1" departLane="0" departPos="31.625302068718632" departSpeed="10.6615" id="328" type="passenger">
		<route edges="58 66 55 68 61"/>
	</vehicle>
	<vehicle depart="0.1" departLane="0" departPos="0" departSpeed="9.2621" id="329" type="passenger">
		<route edges="53 65 59 62 56 67 61"/>
	</vehicle>
	<vehicle depart="0.1" departLane="1" departPos="0" departSpeed="9.102" id="330" type="passenger">
		<route edges="58 66 55 68 61"/>
	</vehicle>
	<vehicle depart="0.1" departLane="0" departPos="0" departSpeed="7.8598" id="331" type="passenger">
		<route edges="58 66 55 68 61"/>
	</vehicle>
	<vehicle depart="0.1" departLane="1" departPos="0" departSpeed="5.7037" id="333" type="passenger">
		<route edges="58 66 55 68 61"/>
	</vehicle>
</routes>
