<!-- generated on Tue Feb  9 22:14:56 2021 by Eclipse SUMO netconvert Version 1.8.0
<configuration xmlns:xsi="http://www.w3.org/2001/XMLSchema-instance" xsi:noNamespaceSchemaLocation="http://sumo.dlr.de/xsd/netconvertConfiguration.xsd">

    <input>
        <node-files value="./converted_scenarios/scenario-factory/ESP_Ceuta-10_1_I-1-1/ESP_Ceuta-10_1_I-1-1.nod.xml"/>
        <edge-files value="./converted_scenarios/scenario-factory/ESP_Ceuta-10_1_I-1-1/ESP_Ceuta-10_1_I-1-1.edg.xml"/>
        <connection-files value="./converted_scenarios/scenario-factory/ESP_Ceuta-10_1_I-1-1/ESP_Ceuta-10_1_I-1-1.con.xml"/>
        <tllogic-files value="./converted_scenarios/scenario-factory/ESP_Ceuta-10_1_I-1-1/ESP_Ceuta-10_1_I-1-1.tll.xml"/>
        <type-files value="/home/zen/commonroad-interactive-benchmarks/install/commonroad-map-tool/crmapconverter/sumo_map/templates/DEU.typ.xml"/>
    </input>

    <output>
        <output-file value="./converted_scenarios/scenario-factory/ESP_Ceuta-10_1_I-1-1/ESP_Ceuta-10_1_I-1-1.net.xml"/>
    </output>

    <processing>
        <geometry.remove.keep-edges.explicit value="true"/>
        <geometry.avoid-overlap value="true"/>
        <offset.disable-normalization value="true"/>
    </processing>

    <junctions>
        <no-turnarounds value="true"/>
        <junctions.internal-link-detail value="20"/>
    </junctions>

    <report>
        <aggregate-warnings value="5"/>
    </report>

    <random_number>
        <seed value="1234"/>
    </random_number>

</configuration>
--><net xmlns:xsi="http://www.w3.org/2001/XMLSchema-instance" version="1.6" junctionCornerDetail="5" junctionLinkDetail="20" limitTurnSpeed="5.50" xsi:noNamespaceSchemaLocation="http://sumo.dlr.de/xsd/net_file.xsd">

    <location netOffset="0.00,0.00" convBoundary="-297.30,649.59,-58.22,870.78" origBoundary="-297.30,649.59,-58.22,906.84" projParameter="!"/>

    <type id="highway.bridleway" priority="1" speed="2.78" allow="pedestrian" oneway="1" width="2.00"/>
    <type id="highway.bus_guideway" priority="1" speed="27.78" allow="bus" oneway="1"/>
    <type id="highway.cycleway" priority="1" speed="8.33" allow="bicycle" oneway="0" width="1.00"/>
    <type id="highway.footway" priority="1" speed="2.78" allow="pedestrian" oneway="1" width="2.00"/>
    <type id="highway.ford" priority="1" speed="2.78" allow="army" oneway="0"/>
    <type id="highway.living_street" priority="2" speed="2.78" disallow="tram rail_urban rail rail_electric rail_fast ship" oneway="0"/>
    <type id="highway.motorway" priority="14" speed="39.44" allow="private emergency authority army vip passenger hov taxi bus coach delivery truck trailer motorcycle evehicle custom1 custom2" oneway="1"/>
    <type id="highway.motorway_link" priority="9" speed="22.22" allow="private emergency authority army vip passenger hov taxi bus coach delivery truck trailer motorcycle evehicle custom1 custom2" oneway="1"/>
    <type id="highway.path" priority="1" speed="2.78" allow="pedestrian bicycle" oneway="0" width="2.00"/>
    <type id="highway.pedestrian" priority="1" speed="2.78" allow="pedestrian" oneway="1" width="2.00"/>
    <type id="highway.primary" priority="12" speed="27.78" disallow="pedestrian tram rail_urban rail rail_electric rail_fast ship" oneway="0"/>
    <type id="highway.primary_link" priority="7" speed="22.22" disallow="pedestrian tram rail_urban rail rail_electric rail_fast ship" oneway="0"/>
    <type id="highway.raceway" priority="15" speed="83.33" allow="vip" oneway="0"/>
    <type id="highway.residential" priority="3" speed="13.89" disallow="pedestrian tram rail_urban rail rail_electric rail_fast ship" oneway="0"/>
    <type id="highway.secondary" priority="11" speed="27.78" disallow="pedestrian tram rail_urban rail rail_electric rail_fast ship" oneway="0"/>
    <type id="highway.secondary_link" priority="6" speed="22.22" disallow="pedestrian tram rail_urban rail rail_electric rail_fast ship" oneway="0"/>
    <type id="highway.service" priority="1" speed="5.56" allow="pedestrian delivery bicycle" oneway="0"/>
    <type id="highway.stairs" priority="1" speed="1.39" allow="pedestrian" oneway="1" width="2.00"/>
    <type id="highway.step" priority="1" speed="1.39" allow="pedestrian" oneway="1" width="2.00"/>
    <type id="highway.steps" priority="1" speed="1.39" allow="pedestrian" oneway="1" width="2.00"/>
    <type id="highway.tertiary" priority="10" speed="22.22" disallow="pedestrian tram rail_urban rail rail_electric rail_fast ship" oneway="0"/>
    <type id="highway.tertiary_link" priority="5" speed="22.22" disallow="pedestrian tram rail_urban rail rail_electric rail_fast ship" oneway="0"/>
    <type id="highway.track" priority="1" speed="5.56" allow="pedestrian motorcycle moped bicycle" oneway="0"/>
    <type id="highway.trunk" priority="13" speed="27.78" disallow="pedestrian bicycle tram rail_urban rail rail_electric rail_fast ship" oneway="0"/>
    <type id="highway.trunk_link" priority="8" speed="22.22" disallow="pedestrian bicycle tram rail_urban rail rail_electric rail_fast ship" oneway="0"/>
    <type id="highway.unclassified" priority="4" speed="13.89" disallow="pedestrian tram rail_urban rail rail_electric rail_fast ship" oneway="0"/>
    <type id="highway.unsurfaced" priority="1" speed="8.33" disallow="tram rail_urban rail rail_electric rail_fast ship" oneway="0"/>
    <type id="railway.highspeed" priority="21" speed="69.44" allow="rail_fast" oneway="1"/>
    <type id="railway.light_rail" priority="19" speed="27.78" allow="rail_urban" oneway="1"/>
    <type id="railway.preserved" priority="16" speed="27.78" allow="rail" oneway="1"/>
    <type id="railway.rail" priority="20" speed="44.44" allow="rail" oneway="1"/>
    <type id="railway.subway" priority="18" speed="27.78" allow="rail_urban" oneway="1"/>
    <type id="railway.tram" priority="17" speed="13.89" allow="tram" oneway="1"/>

    <edge id=":10_0" function="internal">
        <lane id=":10_0_0" index="0" disallow="pedestrian tram rail_urban rail rail_electric rail_fast ship" speed="36.11" length="0.10" width="3.50" shape="-174.98,811.81 -174.98,811.81"/>
    </edge>
    <edge id=":61_0" function="internal">
        <lane id=":61_0_0" index="0" disallow="pedestrian tram rail_urban rail rail_electric rail_fast ship" speed="36.11" length="7.84" width="3.50" shape="-179.04,815.36 -178.93,814.79 -178.83,814.27 -178.74,813.80 -178.66,813.37 -178.58,812.98 -178.52,812.62 -178.46,812.29 -178.40,811.97 -178.36,811.65 -178.32,811.35 -178.29,811.03 -178.27,810.71 -178.25,810.37 -178.24,810.01 -178.24,809.61 -178.24,809.18 -178.25,808.70 -178.27,808.18 -178.29,807.59"/>
    </edge>
    <edge id=":63_0" function="internal">
        <lane id=":63_0_0" index="0" disallow="pedestrian tram rail_urban rail rail_electric rail_fast ship" speed="36.11" length="27.60" width="3.48" shape="-194.90,828.44 -199.21,827.33 -209.37,824.26 -216.44,822.27 -221.51,821.16"/>
    </edge>
    <edge id=":63_1" function="internal">
        <lane id=":63_1_0" index="0" disallow="pedestrian tram rail_urban rail rail_electric rail_fast ship" speed="10.70" length="26.80" width="3.50" shape="-194.90,828.44 -196.26,828.11 -199.82,827.05 -203.32,825.68 -205.62,824.51 -207.78,823.08 -208.83,822.20 -209.80,821.22 -210.67,820.12 -211.40,818.90 -211.97,817.57 -212.33,816.16 -212.48,814.71 -212.42,813.28 -212.20,811.91"/>
    </edge>
    <edge id=":63_2" function="internal">
        <lane id=":63_2_0" index="0" disallow="pedestrian tram rail_urban rail rail_electric rail_fast ship" speed="9.55" length="21.18" width="3.50" shape="-208.79,812.67 -208.95,813.70 -208.97,814.76 -208.81,815.81 -208.49,816.82 -208.01,817.77 -207.39,818.63 -206.67,819.41 -205.88,820.12 -205.03,820.75 -203.21,821.85 -201.29,822.76 -198.31,823.87 -195.25,824.76 -194.25,825.01"/>
    </edge>
    <edge id=":63_3" function="internal">
        <lane id=":63_3_0" index="0" disallow="pedestrian tram rail_urban rail rail_electric rail_fast ship" speed="8.96" length="17.28" width="3.48" shape="-208.78,812.67 -209.14,813.97 -209.60,815.26 -210.21,816.54 -211.00,817.76 -211.98,818.89 -213.15,819.85 -214.49,820.60 -215.91,821.09 -217.35,821.36 -218.77,821.43 -220.16,821.35 -221.51,821.16"/>
    </edge>
    <edge id=":63_4" function="internal">
        <lane id=":63_4_0" index="0" disallow="pedestrian tram rail_urban rail rail_electric rail_fast ship" speed="7.64" length="11.86" width="3.50" shape="-220.89,817.72 -219.89,817.86 -218.91,817.91 -217.92,817.87 -216.94,817.69 -216.01,817.36 -215.15,816.87 -214.38,816.24 -213.74,815.49 -213.21,814.66 -212.78,813.76 -212.45,812.83 -212.20,811.91"/>
    </edge>
    <edge id=":63_5" function="internal">
        <lane id=":63_5_0" index="0" disallow="pedestrian tram rail_urban rail rail_electric rail_fast ship" speed="36.11" length="27.63" width="3.50" shape="-220.89,817.71 -215.68,818.85 -208.52,820.87 -198.34,823.94 -194.25,825.01"/>
    </edge>
    <edge id=":64_0" function="internal">
        <lane id=":64_0_0" index="0" disallow="pedestrian tram rail_urban rail rail_electric rail_fast ship" speed="14.70" length="21.47" width="3.50" shape="-220.85,821.28 -222.78,821.03 -223.80,821.12 -224.81,821.32 -226.75,821.98 -228.62,822.84 -231.29,824.36 -234.70,826.66 -238.77,829.78 -239.59,830.44"/>
    </edge>
    <edge id=":64_1" function="internal">
        <lane id=":64_1_0" index="0" disallow="pedestrian tram rail_urban rail rail_electric rail_fast ship" speed="10.54" length="23.08" width="3.50" shape="-220.85,821.28 -223.00,820.73 -224.12,820.06 -225.06,819.17 -225.81,818.11 -226.41,816.95 -226.87,815.73 -227.49,813.20 -227.84,810.62 -228.01,806.71 -227.84,801.48"/>
    </edge>
    <edge id=":64_2" function="internal">
        <lane id=":64_2_0" index="0" disallow="pedestrian tram rail_urban rail rail_electric rail_fast ship" speed="9.20" length="17.90" width="3.49" shape="-224.35,801.70 -224.52,806.27 -224.43,809.62 -224.21,811.78 -223.79,813.89 -223.51,814.83 -223.14,815.72 -222.71,816.48 -222.22,817.06 -221.74,817.45 -220.32,817.79"/>
    </edge>
    <edge id=":64_3" function="internal">
        <lane id=":64_3_0" index="0" disallow="pedestrian tram rail_urban rail rail_electric rail_fast ship" speed="17.45" length="33.52" width="3.50" shape="-224.35,801.70 -224.70,805.07 -225.32,808.35 -226.22,811.58 -227.40,814.71 -228.85,817.72 -230.57,820.59 -232.53,823.30 -234.70,825.85 -237.05,828.22 -239.59,830.44"/>
    </edge>
    <edge id=":64_4" function="internal">
        <lane id=":64_4_0" index="0" disallow="pedestrian tram rail_urban rail rail_electric rail_fast ship" speed="16.80" length="30.48" width="3.50" shape="-241.69,827.63 -239.47,825.69 -237.30,823.51 -235.31,821.17 -233.52,818.70 -231.95,816.08 -230.63,813.34 -229.55,810.49 -228.73,807.56 -228.16,804.55 -227.84,801.48"/>
    </edge>
    <edge id=":64_5" function="internal">
        <lane id=":64_5_0" index="0" disallow="pedestrian tram rail_urban rail rail_electric rail_fast ship" speed="16.37" length="24.23" width="3.49" shape="-241.69,827.64 -240.90,827.00 -236.44,823.62 -232.65,821.12 -229.61,819.47 -227.43,818.54 -225.12,817.84 -223.84,817.62 -222.52,817.55 -220.32,817.79"/>
    </edge>
    <edge id=":65_0" function="internal">
        <lane id=":65_0_0" index="0" disallow="pedestrian tram rail_urban rail rail_electric rail_fast ship" speed="11.92" length="31.90" width="3.50" shape="-189.24,791.76 -191.39,791.46 -193.53,791.49 -194.53,791.64 -195.53,791.87 -196.51,792.20 -197.45,792.61 -198.35,793.11 -199.22,793.70 -200.02,794.34 -201.56,795.88 -202.90,797.61 -204.08,799.49 -205.11,801.48 -206.44,804.65 -207.54,807.92 -208.73,812.44"/>
    </edge>
    <edge id=":65_1" function="internal">
        <lane id=":65_1_0" index="0" disallow="pedestrian tram rail_urban rail rail_electric rail_fast ship" speed="13.01" length="43.36" width="3.50" shape="-189.24,791.76 -191.53,791.32 -197.21,790.43 -201.75,789.96 -206.29,789.79 -209.64,789.91 -212.95,790.32 -215.05,790.79 -217.07,791.47 -218.98,792.38 -219.81,792.91 -220.61,793.52 -221.34,794.19 -222.00,794.92 -222.57,795.72 -223.07,796.57 -223.48,797.47 -223.81,798.43 -224.05,799.38 -224.44,803.53"/>
    </edge>
    <edge id=":65_2" function="internal">
        <lane id=":65_2_0" index="0" disallow="pedestrian tram rail_urban rail rail_electric rail_fast ship" speed="11.43" length="32.57" width="3.50" shape="-189.24,791.76 -191.91,791.10 -194.45,790.16 -195.67,789.56 -196.83,788.86 -197.93,788.07 -198.94,787.17 -199.85,786.16 -200.65,785.06 -201.31,783.89 -201.85,782.64 -202.26,781.35 -202.55,780.02 -202.80,777.33 -202.71,774.62 -202.35,771.93 -201.42,767.97 -201.04,766.67"/>
    </edge>
    <edge id=":65_3" function="internal">
        <lane id=":65_3_0" index="0" disallow="pedestrian tram rail_urban rail rail_electric rail_fast ship" speed="10.36" length="26.55" width="3.50" shape="-197.70,767.73 -198.03,768.82 -198.84,772.28 -199.16,774.55 -199.26,776.81 -199.07,779.05 -198.86,780.07 -198.56,781.09 -198.16,782.06 -197.66,782.97 -197.08,783.82 -196.40,784.60 -195.63,785.30 -194.78,785.93 -193.87,786.49 -192.92,786.97 -190.80,787.77 -188.57,788.32"/>
    </edge>
    <edge id=":65_4" function="internal">
        <lane id=":65_4_0" index="0" disallow="pedestrian tram rail_urban rail rail_electric rail_fast ship" speed="36.11" length="46.06" width="3.50" shape="-197.70,767.73 -198.82,771.60 -202.38,785.47 -208.73,812.44"/>
    </edge>
    <edge id=":65_5" function="internal">
        <lane id=":65_5_0" index="0" disallow="pedestrian tram rail_urban rail rail_electric rail_fast ship" speed="36.11" length="46.07" width="3.50" shape="-197.70,767.73 -198.51,769.88 -199.57,771.95 -201.45,774.76 -203.64,777.31 -206.81,780.34 -215.00,787.09 -218.08,789.84 -220.14,792.02 -221.92,794.40 -222.86,796.05 -223.59,797.80 -224.09,799.62 -224.44,803.53"/>
    </edge>
    <edge id=":65_6" function="internal">
        <lane id=":65_6_0" index="0" disallow="pedestrian tram rail_urban rail rail_electric rail_fast ship" speed="36.11" length="46.89" width="3.50" shape="-227.96,803.33 -227.55,799.14 -226.99,797.08 -226.17,795.11 -225.12,793.25 -223.22,790.68 -221.03,788.34 -217.87,785.47 -209.67,778.64 -206.60,775.67 -204.53,773.24 -202.75,770.57 -201.79,768.67 -201.04,766.67"/>
    </edge>
    <edge id=":65_7" function="internal">
        <lane id=":65_7_0" index="0" disallow="pedestrian tram rail_urban rail rail_electric rail_fast ship" speed="13.92" length="49.42" width="3.50" shape="-227.96,803.33 -227.51,798.78 -227.23,797.57 -226.85,796.39 -226.37,795.24 -225.79,794.13 -225.11,793.09 -224.33,792.12 -223.46,791.23 -222.51,790.43 -221.49,789.71 -219.30,788.53 -216.97,787.66 -214.56,787.04 -210.86,786.49 -207.13,786.29 -202.15,786.43 -197.20,786.90 -191.04,787.85 -188.57,788.32"/>
    </edge>
    <edge id=":65_8" function="internal">
        <lane id=":65_8_0" index="0" disallow="pedestrian tram rail_urban rail rail_electric rail_fast ship" speed="36.11" length="46.34" width="3.50" shape="-212.14,811.66 -205.76,784.58 -202.19,770.63 -201.04,766.67"/>
    </edge>
    <edge id=":65_9" function="internal">
        <lane id=":65_9_0" index="0" disallow="pedestrian tram rail_urban rail rail_electric rail_fast ship" speed="12.88" length="37.34" width="3.50" shape="-212.14,811.66 -210.82,806.66 -209.57,803.01 -208.04,799.47 -206.82,797.20 -205.42,795.05 -203.79,793.06 -201.93,791.29 -200.90,790.52 -199.81,789.83 -198.67,789.24 -197.48,788.76 -196.25,788.39 -194.99,788.13 -193.71,787.97 -191.14,787.97 -188.57,788.32"/>
    </edge>
    <edge id=":66_0" function="internal">
        <lane id=":66_0_0" index="0" disallow="pedestrian tram rail_urban rail rail_electric rail_fast ship" speed="12.67" length="33.74" width="3.50" shape="-186.28,729.72 -187.12,728.83 -189.45,726.08 -191.54,723.08 -192.75,720.91 -193.76,718.62 -194.50,716.20 -194.94,713.69 -195.02,711.12 -194.73,708.57 -194.09,706.10 -193.14,703.75 -191.94,701.54 -190.56,699.51"/>
    </edge>
    <edge id=":66_1" function="internal">
        <lane id=":66_1_0" index="0" disallow="pedestrian tram rail_urban rail rail_electric rail_fast ship" speed="11.68" length="28.61" width="3.50" shape="-187.85,701.74 -188.94,703.35 -189.96,705.23 -190.75,707.21 -191.26,709.28 -191.48,711.40 -191.38,713.53 -190.99,715.63 -190.33,717.66 -189.46,719.61 -188.41,721.46 -186.57,724.08 -184.49,726.52 -183.76,727.29"/>
    </edge>
    <edge id=":66_2" function="internal">
        <lane id=":66_2_0" index="0" disallow="pedestrian tram rail_urban rail rail_electric rail_fast ship" speed="17.98" length="38.46" width="3.50" shape="-187.85,701.74 -189.53,704.16 -191.13,706.85 -192.52,709.66 -193.68,712.57 -194.59,715.56 -195.24,718.63 -195.65,721.73 -195.81,724.86 -195.74,727.99 -195.44,731.11 -194.74,735.22 -194.00,738.29"/>
    </edge>
    <edge id=":66_3" function="internal">
        <lane id=":66_3_0" index="0" disallow="pedestrian tram rail_urban rail rail_electric rail_fast ship" speed="18.73" length="41.74" width="3.50" shape="-197.40,739.15 -198.18,735.90 -198.92,731.49 -199.24,728.12 -199.32,724.74 -199.14,721.34 -198.69,717.97 -197.97,714.64 -196.98,711.39 -195.72,708.23 -194.21,705.18 -192.48,702.27 -190.56,699.51"/>
    </edge>
    <edge id=":67_0" function="internal">
        <lane id=":67_0_0" index="0" disallow="pedestrian tram rail_urban rail rail_electric rail_fast ship" speed="10.57" length="39.68" width="3.50" shape="-126.32,738.14 -124.66,733.27 -123.31,728.53 -122.63,725.37 -122.21,722.18 -122.14,720.65 -122.21,719.14 -122.43,717.72 -122.85,716.46 -123.49,715.45 -124.34,714.71 -125.42,714.24 -126.71,714.02 -128.13,714.03 -129.61,714.21 -131.12,714.54 -132.62,714.96 -135.67,716.07 -138.67,717.39"/>
    </edge>
    <edge id=":67_1" function="internal">
        <lane id=":67_1_0" index="0" disallow="pedestrian tram rail_urban rail rail_electric rail_fast ship" speed="22.01" length="70.56" width="3.50" shape="-126.32,738.14 -125.07,734.26 -123.68,730.55 -122.14,727.01 -120.45,723.62 -118.61,720.40 -116.63,717.35 -114.50,714.45 -112.23,711.72 -109.81,709.16 -107.24,706.76 -104.52,704.52 -101.66,702.44 -98.65,700.53 -95.50,698.78 -92.19,697.20 -88.74,695.77 -85.15,694.52 -81.40,693.42 -77.51,692.49"/>
    </edge>
    <edge id=":67_2" function="internal">
        <lane id=":67_2_0" index="0" disallow="pedestrian tram rail_urban rail rail_electric rail_fast ship" speed="21.95" length="80.10" width="3.50" shape="-63.08,694.07 -68.34,694.48 -73.56,695.23 -78.71,696.33 -82.77,697.50 -86.73,698.93 -90.59,700.62 -94.32,702.59 -97.89,704.83 -101.29,707.33 -104.49,710.08 -107.49,713.05 -110.27,716.22 -112.83,719.56 -115.18,723.06 -117.83,727.62 -120.18,732.34 -122.23,737.20 -122.97,739.14"/>
    </edge>
    <edge id=":67_3" function="internal">
        <lane id=":67_3_0" index="0" disallow="pedestrian tram rail_urban rail rail_electric rail_fast ship" speed="36.11" length="79.57" width="3.50" shape="-63.08,694.07 -64.07,694.12 -70.13,694.68 -76.15,695.57 -83.12,696.97 -91.02,698.97 -98.83,701.30 -107.53,704.27 -117.08,707.92 -127.46,712.28 -138.67,717.39"/>
    </edge>
    <edge id=":67_4" function="internal">
        <lane id=":67_4_0" index="0" disallow="pedestrian tram rail_urban rail rail_electric rail_fast ship" speed="36.11" length="3.96" width="3.50" shape="-140.14,714.22 -136.54,712.58"/>
    </edge>
    <edge id=":67_5" function="internal">
        <lane id=":67_5_0" index="0" disallow="pedestrian tram rail_urban rail rail_electric rail_fast ship" speed="11.69" length="48.96" width="3.50" shape="-140.17,714.23 -136.70,712.69 -133.16,711.39 -131.35,710.86 -129.51,710.44 -127.65,710.17 -125.77,710.10 -123.90,710.33 -122.13,710.96 -120.62,712.07 -119.51,713.59 -118.82,715.33 -118.46,717.18 -118.34,719.06 -118.39,720.95 -118.84,724.69 -119.61,728.38 -121.15,733.82 -122.97,739.14"/>
    </edge>
    <edge id=":69_0" function="internal">
        <lane id=":69_0_0" index="0" disallow="pedestrian tram rail_urban rail rail_electric rail_fast ship" speed="36.11" length="29.94" width="3.50" shape="-167.09,753.05 -170.64,747.96 -175.08,742.24 -180.46,735.96 -186.06,729.94"/>
    </edge>
    <edge id=":69_1" function="internal">
        <lane id=":69_1_0" index="0" disallow="pedestrian tram rail_urban rail rail_electric rail_fast ship" speed="11.83" length="35.42" width="3.50" shape="-167.09,753.05 -169.18,749.54 -170.37,747.08 -171.33,744.53 -171.99,741.89 -172.18,740.54 -172.26,739.18 -172.22,737.82 -172.05,736.47 -171.75,735.14 -171.30,733.85 -170.73,732.62 -170.03,731.45 -169.23,730.35 -168.34,729.32 -166.33,727.48 -164.11,725.90 -161.75,724.54 -160.53,723.93"/>
    </edge>
    <edge id=":69_2" function="internal">
        <lane id=":69_2_0" index="0" disallow="pedestrian tram rail_urban rail rail_electric rail_fast ship" speed="10.80" length="29.31" width="3.50" shape="-159.03,727.09 -160.06,727.60 -162.09,728.77 -163.95,730.10 -165.62,731.65 -166.31,732.46 -166.95,733.34 -167.49,734.26 -167.93,735.23 -168.26,736.24 -168.49,737.27 -168.62,738.33 -168.64,739.42 -168.56,740.51 -168.40,741.58 -167.84,743.81 -167.01,745.96 -166.00,748.06 -164.16,751.14"/>
    </edge>
    <edge id=":69_3" function="internal">
        <lane id=":69_3_0" index="0" disallow="pedestrian tram rail_urban rail rail_electric rail_fast ship" speed="12.94" length="28.73" width="3.50" shape="-159.03,727.09 -164.20,729.38 -168.47,730.96 -171.80,731.92 -175.24,732.59 -177.65,732.78 -180.08,732.68 -181.37,732.45 -182.63,732.09 -183.86,731.55 -185.03,730.83 -186.06,729.94"/>
    </edge>
    <edge id=":69_4" function="internal">
        <lane id=":69_4_0" index="0" disallow="pedestrian tram rail_urban rail rail_electric rail_fast ship" speed="11.90" length="24.47" width="3.50" shape="-183.58,727.48 -182.81,728.13 -181.92,728.64 -180.97,729.00 -179.97,729.22 -178.96,729.34 -176.92,729.32 -174.90,729.06 -171.92,728.38 -169.00,727.47 -165.19,726.01 -160.53,723.93"/>
    </edge>
    <edge id=":69_5" function="internal">
        <lane id=":69_5_0" index="0" disallow="pedestrian tram rail_urban rail rail_electric rail_fast ship" speed="36.11" length="30.65" width="3.50" shape="-183.58,727.48 -177.84,733.64 -172.34,740.06 -167.80,745.91 -164.16,751.14"/>
    </edge>
    <edge id=":70_0" function="internal">
        <lane id=":70_0_0" index="0" disallow="pedestrian tram rail_urban rail rail_electric rail_fast ship" speed="11.86" length="47.76" width="3.50" shape="-92.19,825.06 -92.74,828.76 -93.87,833.75 -96.18,841.61 -98.55,849.46 -99.75,854.43 -100.40,858.48 -100.64,861.54 -100.61,864.61 -100.28,867.67 -99.64,870.67 -99.36,871.64"/>
    </edge>
    <edge id=":70_1" function="internal">
        <lane id=":70_1_0" index="0" disallow="pedestrian tram rail_urban rail rail_electric rail_fast ship" speed="14.90" length="104.24" width="3.50" shape="-91.97,825.06 -92.12,834.31 -92.61,848.00 -93.19,857.12 -93.58,861.67 -94.10,866.20 -94.78,870.72 -95.78,875.17 -97.69,879.26 -101.42,878.95 -103.85,875.11 -105.67,870.93 -107.24,866.64 -108.66,862.30 -111.22,853.54 -114.65,840.27 -115.72,835.83"/>
    </edge>
    <edge id=":70_2" function="internal">
        <lane id=":70_2_0" index="0" disallow="pedestrian tram rail_urban rail rail_electric rail_fast ship" speed="36.11" length="37.19" width="3.50" shape="-112.32,835.02 -112.08,835.96 -111.74,837.21 -111.31,838.74 -110.80,840.51 -110.22,842.48 -109.59,844.62 -108.91,846.88 -108.20,849.24 -107.46,851.65 -106.71,854.08 -105.96,856.48 -105.22,858.83 -104.51,861.08 -103.83,863.21 -103.19,865.16 -102.61,866.91 -102.09,868.41 -101.66,869.63 -101.31,870.53"/>
    </edge>
    <edge id=":70_3" function="internal">
        <lane id=":70_3_0" index="0" disallow="pedestrian tram rail_urban rail rail_electric rail_fast ship" speed="10.16" length="38.87" width="3.50" shape="-112.32,835.02 -112.08,835.98 -110.72,840.85 -108.78,846.60 -101.70,864.77 -99.36,871.64"/>
    </edge>
    <edge id=":70_4" function="internal">
        <lane id=":70_4_0" index="0" disallow="pedestrian tram rail_urban rail rail_electric rail_fast ship" speed="11.97" length="39.10" width="3.50" shape="-102.70,872.67 -105.02,865.86 -112.11,847.64 -114.09,841.79 -115.48,836.84 -115.72,835.83"/>
    </edge>
    <edge id=":70_5" function="internal">
        <lane id=":70_5_0" index="0" disallow="pedestrian tram rail_urban rail rail_electric rail_fast ship" speed="6.12" length="9.50" width="3.46" shape="-101.88,903.34 -101.06,903.33 -100.30,903.31 -99.58,903.25 -98.92,903.18 -98.31,903.08 -97.75,902.95 -97.24,902.81 -96.78,902.63 -96.37,902.44 -96.01,902.22 -95.71,901.97 -95.46,901.70 -95.25,901.41 -95.10,901.10 -95.00,900.76 -94.95,900.39 -94.95,900.00 -95.00,899.59 -95.11,899.15"/>
    </edge>
    <edge id=":72_0" function="internal">
        <lane id=":72_0_0" index="0" disallow="pedestrian tram rail_urban rail rail_electric rail_fast ship" speed="36.11" length="96.28" width="3.50" shape="-115.78,835.60 -119.65,818.51 -122.70,803.36 -124.98,790.16 -126.57,778.94 -127.55,769.73 -128.09,761.50 -128.23,754.29 -128.01,748.12 -127.48,743.00 -127.02,740.51"/>
    </edge>
    <edge id=":72_1" function="internal">
        <lane id=":72_1_0" index="0" disallow="pedestrian tram rail_urban rail rail_electric rail_fast ship" speed="36.11" length="94.46" width="3.50" shape="-123.68,741.50 -124.02,743.48 -124.53,748.47 -124.74,754.49 -124.60,761.56 -124.05,769.65 -123.07,778.74 -121.50,789.82 -119.23,802.87 -116.21,817.86 -112.37,834.79"/>
    </edge>
    <edge id=":72_2" function="internal">
        <lane id=":72_2_0" index="0" disallow="pedestrian tram rail_urban rail rail_electric rail_fast ship" speed="36.11" length="94.73" width="3.50" shape="-123.68,741.50 -124.36,746.45 -124.69,751.43 -124.79,758.45 -124.54,766.51 -123.85,776.59 -122.63,788.68 -120.69,803.76 -118.09,820.80 -115.55,835.54"/>
    </edge>
    <edge id=":72_3" function="internal">
        <lane id=":72_3_0" index="0" disallow="pedestrian tram rail_urban rail rail_electric rail_fast ship" speed="36.11" length="96.56" width="3.50" shape="-118.96,836.36 -121.57,821.21 -124.18,804.04 -126.13,788.84 -127.35,776.64 -128.04,766.45 -128.29,758.28 -128.18,751.13 -127.84,746.03 -127.02,740.51"/>
    </edge>

    <edge id="67473" from="55" to="70" priority="3" type="highway.residential" spreadType="center" length="9.70">
        <lane id="67473_0" index="0" disallow="pedestrian tram rail_urban rail rail_electric rail_fast ship" speed="36.11" length="9.70" width="3.50" customShape="1" shape="-91.85,815.36 -91.89,820.36 -91.90,820.49 -91.93,825.06"/>
    </edge>
    <edge id="67970" from="65" to="66" priority="3" type="highway.residential" spreadType="center" length="28.31" shape="-207.90,792.28 -191.65,722.16">
        <lane id="67970_0" index="0" disallow="pedestrian tram rail_urban rail rail_electric rail_fast ship" speed="36.11" length="28.31" width="3.50" customShape="1" shape="-201.04,766.67 -199.40,761.48 -197.75,755.76 -196.82,751.40 -196.33,747.47 -196.24,745.00 -196.45,743.03 -197.41,739.10"/>
    </edge>
    <edge id="67971" from="66" to="65" priority="3" type="highway.residential" spreadType="center" length="30.20" shape="-188.25,722.95 -204.49,793.07">
        <lane id="67971_0" index="0" disallow="pedestrian tram rail_urban rail rail_electric rail_fast ship" speed="36.11" length="30.20" width="3.50" customShape="1" shape="-194.00,738.29 -193.01,742.40 -192.75,744.66 -192.82,747.44 -193.32,751.66 -194.29,756.32 -195.99,762.32 -197.70,767.73"/>
    </edge>
    <edge id="67973" from="63" to="65" priority="3" type="highway.residential" spreadType="center" length="0.29" shape="-210.52,819.31 -207.93,792.39">
        <lane id="67973_0" index="0" disallow="pedestrian tram rail_urban rail rail_electric rail_fast ship" speed="36.11" length="0.29" width="3.50" customShape="1" shape="-212.20,811.91 -212.16,811.75 -212.14,811.63"/>
    </edge>
    <edge id="67974" from="65" to="63" priority="3" type="highway.residential" spreadType="center" length="0.25" shape="-204.45,792.73 -207.04,819.65">
        <lane id="67974_0" index="0" disallow="pedestrian tram rail_urban rail rail_electric rail_fast ship" speed="36.11" length="0.25" width="3.50" customShape="1" shape="-208.73,812.44 -208.75,812.53 -208.79,812.68"/>
    </edge>
    <edge id="68027" from="67" to="69" priority="3" type="highway.residential" spreadType="center" length="22.55" shape="-117.75,722.24 -169.65,737.14">
        <lane id="68027_0" index="0" disallow="pedestrian tram rail_urban rail rail_electric rail_fast ship" speed="36.11" length="22.55" width="3.50" customShape="1" shape="-138.67,717.39 -148.83,722.23 -159.03,727.09"/>
    </edge>
    <edge id="68028" from="69" to="67" priority="3" type="highway.residential" spreadType="center" length="22.58" shape="-170.61,733.77 -118.71,718.88">
        <lane id="68028_0" index="0" disallow="pedestrian tram rail_urban rail rail_electric rail_fast ship" speed="36.11" length="22.58" width="3.50" customShape="1" shape="-160.53,723.93 -150.34,719.07 -140.14,714.22"/>
    </edge>
    <edge id="68030" from="56" to="67" priority="3" type="highway.residential" spreadType="center" length="5.09" shape="-58.22,692.57 -117.81,721.47">
        <lane id="68030_0" index="0" disallow="pedestrian tram rail_urban rail rail_electric rail_fast ship" speed="36.11" length="5.09" width="2.00" customShape="1" shape="-58.22,692.57 -62.93,694.05 -63.08,694.07"/>
    </edge>
    <edge id="68184" from="64" to="65" priority="3" type="highway.residential" spreadType="center" length="0.20" shape="-230.66,815.48 -207.39,791.39">
        <lane id="68184_0" index="0" disallow="pedestrian tram rail_urban rail rail_electric rail_fast ship" speed="36.11" length="0.20" width="3.50" customShape="1" shape="-227.97,803.53 -227.96,803.33"/>
    </edge>
    <edge id="68185" from="65" to="64" priority="3" type="highway.residential" spreadType="center" length="0.20" shape="-204.88,793.82 -228.14,817.91">