<routes>
	<vehicle depart="0.1" departLane="0" departPos="61.083138876215294" departSpeed="0.88223879" id="39" type="bicycle">
		<route edges="68340 68343"/>
	</vehicle>
	<vehicle depart="0.1" departLane="0" departPos="67.3373649469803" departSpeed="0.086958207" id="33" type="passenger">
		<route edges="68340 68343"/>
	</vehicle>
	<vehicle depart="0.1" departLane="0" departPos="2.5" departSpeed="2.1950878" id="34" type="passenger">
		<route edges=":66_2 67971 68185"/>
	</vehicle>
	<vehicle depart="0.1" departLane="0" departPos="21.893641903856473" departSpeed="0.50826726" id="313" type="passenger">
		<route edges=":69_0 68343"/>
	</vehicle>
	<vehicle depart="0.1" departLane="0" departPos="58.79911439164564" departSpeed="0.17600611" id="314" type="passenger">
		<route edges="68340 68343"/>
	</vehicle>
	<vehicle depart="0.1" departLane="0" departPos="7.0838144580251825" departSpeed="0.31248036" id="324" type="passenger">
		<route edges=":69_1 68028"/>
	</vehicle>
	<vehicle depart="0.1" departLane="0" departPos="2.5" departSpeed="0.48383965" id="325" type="passenger">
		<route edges=":69_5 68339"/>
	</vehicle>
	<vehicle depart="0.1" departLane="0" departPos="46.84779107554931" departSpeed="0.33206222" id="331" type="passenger">
		<route edges="68340 68343"/>
	</vehicle>
	<vehicle depart="0.1" departLane="0" departPos="52.65495733111528" departSpeed="1.4899395" id="35" type="motorcycle">
		<route edges="68345 68342"/>
	</vehicle>
	<vehicle depart="0.1" departLane="0" departPos="6.2894916196928445" departSpeed="0.4709262" id="30" type="truck">
		<route edges=":66_0 68346"/>
	</vehicle>
</routes>
