<!-- generated on Tue Feb  9 22:16:15 2021 by Eclipse SUMO netconvert Version 1.8.0
<configuration xmlns:xsi="http://www.w3.org/2001/XMLSchema-instance" xsi:noNamespaceSchemaLocation="http://sumo.dlr.de/xsd/netconvertConfiguration.xsd">

    <input>
        <node-files value="./converted_scenarios/scenario-factory/DEU_Hennigsdorf-18_1_I-1-1/DEU_Hennigsdorf-18_1_I-1-1.nod.xml"/>
        <edge-files value="./converted_scenarios/scenario-factory/DEU_Hennigsdorf-18_1_I-1-1/DEU_Hennigsdorf-18_1_I-1-1.edg.xml"/>
        <connection-files value="./converted_scenarios/scenario-factory/DEU_Hennigsdorf-18_1_I-1-1/DEU_Hennigsdorf-18_1_I-1-1.con.xml"/>
        <tllogic-files value="./converted_scenarios/scenario-factory/DEU_Hennigsdorf-18_1_I-1-1/DEU_Hennigsdorf-18_1_I-1-1.tll.xml"/>
        <type-files value="/home/zen/commonroad-interactive-benchmarks/install/commonroad-map-tool/crmapconverter/sumo_map/templates/DEU.typ.xml"/>
    </input>

    <output>
        <output-file value="./converted_scenarios/scenario-factory/DEU_Hennigsdorf-18_1_I-1-1/DEU_Hennigsdorf-18_1_I-1-1.net.xml"/>
    </output>

    <processing>
        <geometry.remove.keep-edges.explicit value="true"/>
        <geometry.avoid-overlap value="true"/>
        <offset.disable-normalization value="true"/>
    </processing>

    <junctions>
        <no-turnarounds value="true"/>
        <junctions.internal-link-detail value="20"/>
    </junctions>

    <report>
        <aggregate-warnings value="5"/>
    </report>

    <random_number>
        <seed value="1234"/>
    </random_number>

</configuration>
--><net xmlns:xsi="http://www.w3.org/2001/XMLSchema-instance" version="1.6" junctionCornerDetail="5" junctionLinkDetail="20" limitTurnSpeed="5.50" xsi:noNamespaceSchemaLocation="http://sumo.dlr.de/xsd/net_file.xsd">

    <location netOffset="0.00,0.00" convBoundary="436.61,-227.50,466.02,-76.22" origBoundary="436.61,-227.50,466.02,-76.22" projParameter="!"/>

    <type id="highway.bridleway" priority="1" speed="2.78" allow="pedestrian" oneway="1" width="2.00"/>
    <type id="highway.bus_guideway" priority="1" speed="27.78" allow="bus" oneway="1"/>
    <type id="highway.cycleway" priority="1" speed="8.33" allow="bicycle" oneway="0" width="1.00"/>
    <type id="highway.footway" priority="1" speed="2.78" allow="pedestrian" oneway="1" width="2.00"/>
    <type id="highway.ford" priority="1" speed="2.78" allow="army" oneway="0"/>
    <type id="highway.living_street" priority="2" speed="2.78" disallow="tram rail_urban rail rail_electric rail_fast ship" oneway="0"/>
    <type id="highway.motorway" priority="14" speed="39.44" allow="private emergency authority army vip passenger hov taxi bus coach delivery truck trailer motorcycle evehicle custom1 custom2" oneway="1"/>
    <type id="highway.motorway_link" priority="9" speed="22.22" allow="private emergency authority army vip passenger hov taxi bus coach delivery truck trailer motorcycle evehicle custom1 custom2" oneway="1"/>
    <type id="highway.path" priority="1" speed="2.78" allow="pedestrian bicycle" oneway="0" width="2.00"/>
    <type id="highway.pedestrian" priority="1" speed="2.78" allow="pedestrian" oneway="1" width="2.00"/>
    <type id="highway.primary" priority="12" speed="27.78" disallow="pedestrian tram rail_urban rail rail_electric rail_fast ship" oneway="0"/>
    <type id="highway.primary_link" priority="7" speed="22.22" disallow="pedestrian tram rail_urban rail rail_electric rail_fast ship" oneway="0"/>
    <type id="highway.raceway" priority="15" speed="83.33" allow="vip" oneway="0"/>
    <type id="highway.residential" priority="3" speed="13.89" disallow="pedestrian tram rail_urban rail rail_electric rail_fast ship" oneway="0"/>
    <type id="highway.secondary" priority="11" speed="27.78" disallow="pedestrian tram rail_urban rail rail_electric rail_fast ship" oneway="0"/>
    <type id="highway.secondary_link" priority="6" speed="22.22" disallow="pedestrian tram rail_urban rail rail_electric rail_fast ship" oneway="0"/>
    <type id="highway.service" priority="1" speed="5.56" allow="pedestrian delivery bicycle" oneway="0"/>
    <type id="highway.stairs" priority="1" speed="1.39" allow="pedestrian" oneway="1" width="2.00"/>
    <type id="highway.step" priority="1" speed="1.39" allow="pedestrian" oneway="1" width="2.00"/>
    <type id="highway.steps" priority="1" speed="1.39" allow="pedestrian" oneway="1" width="2.00"/>
    <type id="highway.tertiary" priority="10" speed="22.22" disallow="pedestrian tram rail_urban rail rail_electric rail_fast ship" oneway="0"/>
    <type id="highway.tertiary_link" priority="5" speed="22.22" disallow="pedestrian tram rail_urban rail rail_electric rail_fast ship" oneway="0"/>
    <type id="highway.track" priority="1" speed="5.56" allow="pedestrian motorcycle moped bicycle" oneway="0"/>
    <type id="highway.trunk" priority="13" speed="27.78" disallow="pedestrian bicycle tram rail_urban rail rail_electric rail_fast ship" oneway="0"/>
    <type id="highway.trunk_link" priority="8" speed="22.22" disallow="pedestrian bicycle tram rail_urban rail rail_electric rail_fast ship" oneway="0"/>
    <type id="highway.unclassified" priority="4" speed="13.89" disallow="pedestrian tram rail_urban rail rail_electric rail_fast ship" oneway="0"/>
    <type id="highway.unsurfaced" priority="1" speed="8.33" disallow="tram rail_urban rail rail_electric rail_fast ship" oneway="0"/>
    <type id="railway.highspeed" priority="21" speed="69.44" allow="rail_fast" oneway="1"/>
    <type id="railway.light_rail" priority="19" speed="27.78" allow="rail_urban" oneway="1"/>
    <type id="railway.preserved" priority="16" speed="27.78" allow="rail" oneway="1"/>
    <type id="railway.rail" priority="20" speed="44.44" allow="rail" oneway="1"/>
    <type id="railway.subway" priority="18" speed="27.78" allow="rail_urban" oneway="1"/>
    <type id="railway.tram" priority="17" speed="13.89" allow="tram" oneway="1"/>

    <edge id=":12_0" function="internal">
        <lane id=":12_0_0" index="0" disallow="pedestrian tram rail_urban rail rail_electric rail_fast ship" speed="36.11" length="8.00" width="3.50" shape="451.80,-139.57 451.16,-147.54"/>
        <lane id=":12_0_1" index="1" disallow="pedestrian tram rail_urban rail rail_electric rail_fast ship" speed="36.11" length="8.02" width="3.50" shape="454.16,-139.95 452.69,-145.88 452.25,-147.74"/>
    </edge>
    <edge id=":13_0" function="internal">
        <lane id=":13_0_0" index="0" disallow="pedestrian tram rail_urban rail rail_electric rail_fast ship" speed="36.11" length="3.12" width="3.50" shape="457.09,-103.08 456.58,-106.16"/>
    </edge>
    <edge id=":13_1" function="internal">
        <lane id=":13_1_0" index="0" disallow="pedestrian tram rail_urban rail rail_electric rail_fast ship" speed="36.11" length="3.24" width="3.50" shape="460.49,-103.51 460.03,-106.72"/>
    </edge>
    <edge id=":4_0" function="internal">
        <lane id=":4_0_0" index="0" disallow="pedestrian tram rail_urban rail rail_electric rail_fast ship" speed="36.11" length="2.99" width="3.50" shape="453.13,-160.27 453.67,-157.33"/>
    </edge>
    <edge id=":5_0" function="internal">
        <lane id=":5_0_0" index="0" disallow="pedestrian tram rail_urban rail rail_electric rail_fast ship" speed="36.11" length="2.94" width="3.50" shape="459.59,-131.50 460.10,-128.60"/>
    </edge>
    <edge id=":6_0" function="internal">
        <lane id=":6_0_0" index="0" disallow="pedestrian tram rail_urban rail rail_electric rail_fast ship" speed="36.11" length="0.25" width="3.50" shape="463.71,-105.89 463.74,-105.64"/>
    </edge>

    <edge id="4443" from="5" to="6" priority="3" type="highway.residential" spreadType="center" length="23.00">
        <lane id="4443_0" index="0" disallow="pedestrian tram rail_urban rail rail_electric rail_fast ship" speed="36.11" length="23.00" width="3.50" customShape="1" shape="460.10,-128.60 461.80,-117.89 463.71,-105.89"/>
    </edge>
    <edge id="4445" from="13" to="12" priority="3" type="highway.residential" spreadType="center" length="33.74">
        <lane id="4445_0" index="0" disallow="pedestrian tram rail_urban rail rail_electric rail_fast ship" speed="36.11" length="33.75" width="3.50" acceleration="1" customShape="1" shape="456.58,-106.16 454.89,-116.79 451.28,-139.49"/>
        <lane id="4445_1" index="1" disallow="pedestrian tram rail_urban rail rail_electric rail_fast ship" speed="36.11" length="33.74" width="3.50" customShape="1" shape="460.03,-106.72 458.34,-117.34 454.73,-140.04"/>
    </edge>
    <edge id="4463" from="7" to="4" priority="3" type="highway.residential" spreadType="center" length="68.50">
        <lane id="4463_0" index="0" disallow="pedestrian tram rail_urban rail rail_electric rail_fast ship" speed="36.11" length="68.50" width="3.50" customShape="1" shape="440.06,-227.50 440.40,-225.09 442.19,-215.24 447.07,-192.73 449.87,-178.49 453.13,-160.27"/>
    </edge>
    <edge id="4464" from="12" to="3" priority="3" type="highway.residential" spreadType="center" length="80.70">
        <lane id="4464_0" index="0" disallow="pedestrian tram rail_urban rail rail_electric rail_fast ship" speed="36.11" length="80.70" width="3.50" customShape="1" shape="451.83,-147.66 446.42,-177.93 443.61,-192.17 438.72,-214.75 436.92,-224.69 436.61,-226.90"/>
    </edge>
    <edge id="4712" from="6" to="9" priority="3" type="highway.residential" spreadType="center" length="29.07">
        <lane id="4712_0" index="0" disallow="pedestrian tram rail_urban rail rail_electric rail_fast ship" speed="36.11" length="29.07" width="3.50" customShape="1" shape="463.74,-105.64 464.38,-100.59 464.87,-93.31 465.40,-82.89 466.02,-76.67"/>
    </edge>
    <edge id="4737" from="14" to="13" priority="3" type="highway.residential" spreadType="center" length="27.38">
        <lane id="4737_0" index="0" disallow="pedestrian tram rail_urban rail rail_electric rail_fast ship" speed="36.11" length="27.38" width="3.50" customShape="1" shape="462.55,-76.22 461.92,-82.52 461.40,-92.95 460.91,-100.15 460.49,-103.51"/>
    </edge>
    <edge id="4738" from="14" to="13" priority="3" type="highway.residential" spreadType="center" length="27.42">
        <lane id="4738_0" index="0" disallow="pedestrian tram rail_urban rail rail_electric rail_fast ship" speed="36.11" length="27.42" width="3.50" customShape="1" shape="462.55,-76.22 461.56,-82.23 459.72,-90.70 457.52,-100.65 457.09,-103.08"/>
    </edge>
    <edge id="4752" from="4" to="5" priority="3" type="highway.residential" spreadType="center" length="26.51">
        <lane id="4752_0" index="0" disallow="pedestrian tram rail_urban rail rail_electric rail_fast ship" speed="36.11" length="26.51" width="3.50" customShape="1" shape="453.67,-157.33 454.17,-154.72 456.12,-146.58 458.66,-136.32 459.59,-131.50"/>
    </edge>

    <junction id="12" type="priority" x="451.45" y="-143.56" incLanes="4445_0 4445_1" intLanes=":12_0_0 :12_0_1" shape="449.55,-139.21 456.46,-140.31 455.58,-143.20 455.04,-144.15 454.48,-145.09 453.97,-146.28 453.55,-147.97 450.10,-147.35 450.14,-144.35 449.86,-143.29 449.57,-142.22 449.42,-140.94">
        <request index="0" response="10" foes="10" cont="0"/>
        <request index="1" response="00" foes="01" cont="0"/>
    </junction>
    <junction id="13" type="priority" x="458.54" y="-104.95" incLanes="4738_0 4737_0" intLanes=":13_0_0 :13_1_0" shape="455.36,-102.86 462.22,-103.73 461.76,-107.00 454.85,-105.89">
        <request index="0" response="00" foes="00" cont="0"/>
        <request index="1" response="00" foes="00" cont="0"/>
    </junction>
    <junction id="14" type="dead_end" x="462.55" y="-76.22" incLanes="" intLanes="" shape="464.28,-76.51 460.83,-75.94 464.29,-76.40 460.81,-76.05"/>
    <junction id="3" type="dead_end" x="436.61" y="-226.90" incLanes="4464_0" intLanes="" shape="434.88,-226.66 438.35,-227.14" rightOfWay="edgePriority"/>
    <junction id="4" type="priority" x="453.39" y="-158.80" incLanes="4463_0" intLanes=":4_0_0" shape="451.95,-157.00 455.39,-157.65 454.85,-160.58 451.41,-159.96" rightOfWay="edgePriority">
        <request index="0" response="0" foes="0" cont="0"/>
    </junction>
    <junction id="5" type="priority" x="459.87" y="-130.05" incLanes="4752_0" intLanes=":5_0_0" shape="458.37,-128.32 461.83,-128.87 461.30,-131.83 457.87,-131.17" rightOfWay="edgePriority">
        <request index="0" response="0" foes="0" cont="0"/>
    </junction>
    <junction id="6" type="priority" x="463.73" y="-105.76" incLanes="4443_0" intLanes=":6_0_0" shape="462.01,-105.42 465.48,-105.86 465.43,-106.16 461.98,-105.61" rightOfWay="edgePriority">
        <request index="0" response="0" foes="0" cont="0"/>
    </junction>
    <junction id="7" type="dead_end" x="440.06" y="-227.50" incLanes="" intLanes="" shape="438.33,-227.26 441.80,-227.74" rightOfWay="edgePriority"/>
    <junction id="9" type="dead_end" x="466.02" y="-76.67" incLanes="4712_0" intLanes="" shape="467.76,-76.85 464.28,-76.50" rightOfWay="edgePriority"/>

    <connection from="4443" to="4712" fromLane="0" toLane="0" contPos="-4.00" via=":6_0_0" dir="s" state="M"/>
    <connection from="4445" to="4464" fromLane="0" toLane="0" contPos="-4.00" shape="452.96,-128.92 452.13,-135.47 450.82,-151.66 450.03,-157.69 449.94,-158.19" via=":12_0_0" dir="s" state="m"/>
    <connection from="4445" to="4464" fromLane="1" toLane="0" contPos="-4.00" shape="456.41,-129.47 455.22,-135.67 452.69,-145.88 450.73,-154.06 449.94,-158.19" via=":12_0_1" dir="s" state="M"/>
    <connection from="4463" to="4752" fromLane="0" toLane="0" contPos="-4.00" via=":4_0_0" dir="s" state="M"/>
    <connection from="4737" to="4445" fromLane="0" toLane="1" contPos="-4.00" via=":13_1_0" dir="s" state="M"/>
    <connection from="4738" to="4445" fromLane="0" toLane="0" contPos="-4.00" via=":13_0_0" dir="s" state="M"/>
    <connection from="4752" to="4443" fromLane="0" toLane="0" contPos="-4.00" via=":5_0_0" dir="s" state="M"/>

    <connection from=":12_0" to="4464" fromLane="0" toLane="0" dir="s" state="M"/>
    <connection from=":12_0" to="4464" fromLane="1" toLane="0" dir="s" state="M"/>
    <connection from=":13_0" to="4445" fromLane="0" toLane="0" dir="s" state="M"/>
    <connection from=":13_1" to="4445" fromLane="0" toLane="1" dir="s" state="M"/>
    <connection from=":4_0" to="4752" fromLane="0" toLane="0" dir="s" state="M"/>
    <connection from=":5_0" to="4443" fromLane="0" toLane="0" dir="s" state="M"/>
    <connection from=":6_0" to="4712" fromLane="0" toLane="0" dir="s" state="M"/>

</net>