<routes>
	<vehicle depart="0.1" departLane="0" departPos="15.61180206449912" departSpeed="6.9264688" id="313" type="bicycle">
		<route edges="4752 4443 4712"/>
	</vehicle>
	<vehicle depart="0.1" departLane="1" departPos="25.469094001181443" departSpeed="7.4208301" id="315" type="bicycle">
		<route edges=":12_0 4464"/>
	</vehicle>
	<vehicle depart="0.1" departLane="1" departPos="14.49550981051294" departSpeed="7.031153" id="319" type="passenger">
		<route edges=":12_0 4464"/>
	</vehicle>
	<vehicle depart="0.1" departLane="0" departPos="2.5" departSpeed="17.351074" id="320" type="passenger">
		<route edges="4752 4443 4712"/>
	</vehicle>
	<vehicle depart="0.1" departLane="0" departPos="52.68773187642564" departSpeed="15.264154" id="321" type="passenger">
		<route edges="4463 4752 4443 4712"/>
	</vehicle>
	<vehicle depart="0.1" departLane="0" departPos="30.764243013410915" departSpeed="10.63284" id="322" type="passenger">
		<route edges="4463 4752 4443"/>
	</vehicle>
	<vehicle depart="0.1" departLane="0" departPos="26.26255996497243" departSpeed="7.6208071" id="323" type="passenger">
		<route edges="4737 4445 4464"/>
	</vehicle>
</routes>
