<routes>
	<vehicle depart="0.1" departLane="0" departPos="22.074935224686488" departSpeed="3.8930113" id="321" type="passenger">
		<route edges=":21_1 3833 3830"/>
	</vehicle>
	<vehicle depart="0.1" departLane="0" departPos="16.010824385601047" departSpeed="4.1840128" id="326" type="passenger">
		<route edges="7367 3556 3833 3434"/>
	</vehicle>
</routes>
