<!-- generated on Tue Feb  9 22:11:50 2021 by Eclipse SUMO netconvert Version 1.8.0
<configuration xmlns:xsi="http://www.w3.org/2001/XMLSchema-instance" xsi:noNamespaceSchemaLocation="http://sumo.dlr.de/xsd/netconvertConfiguration.xsd">

    <input>
        <node-files value="./converted_scenarios/scenario-factory/ITA_Empoli-3_1_I-1-1/ITA_Empoli-3_1_I-1-1.nod.xml"/>
        <edge-files value="./converted_scenarios/scenario-factory/ITA_Empoli-3_1_I-1-1/ITA_Empoli-3_1_I-1-1.edg.xml"/>
        <connection-files value="./converted_scenarios/scenario-factory/ITA_Empoli-3_1_I-1-1/ITA_Empoli-3_1_I-1-1.con.xml"/>
        <tllogic-files value="./converted_scenarios/scenario-factory/ITA_Empoli-3_1_I-1-1/ITA_Empoli-3_1_I-1-1.tll.xml"/>
        <type-files value="/home/zen/commonroad-interactive-benchmarks/install/commonroad-map-tool/crmapconverter/sumo_map/templates/DEU.typ.xml"/>
    </input>

    <output>
        <output-file value="./converted_scenarios/scenario-factory/ITA_Empoli-3_1_I-1-1/ITA_Empoli-3_1_I-1-1.net.xml"/>
    </output>

    <processing>
        <geometry.remove.keep-edges.explicit value="true"/>
        <geometry.avoid-overlap value="true"/>
        <offset.disable-normalization value="true"/>
    </processing>

    <junctions>
        <no-turnarounds value="true"/>
        <junctions.internal-link-detail value="20"/>
    </junctions>

    <report>
        <aggregate-warnings value="5"/>
    </report>

    <random_number>
        <seed value="1234"/>
    </random_number>

</configuration>
--><net xmlns:xsi="http://www.w3.org/2001/XMLSchema-instance" version="1.6" junctionCornerDetail="5" junctionLinkDetail="20" limitTurnSpeed="5.50" xsi:noNamespaceSchemaLocation="http://sumo.dlr.de/xsd/net_file.xsd">

    <location netOffset="0.00,0.00" convBoundary="-500.92,-1018.42,-358.10,-906.36" origBoundary="-500.92,-1018.42,-358.10,-906.36" projParameter="!"/>

    <type id="highway.bridleway" priority="1" speed="2.78" allow="pedestrian" oneway="1" width="2.00"/>
    <type id="highway.bus_guideway" priority="1" speed="27.78" allow="bus" oneway="1"/>
    <type id="highway.cycleway" priority="1" speed="8.33" allow="bicycle" oneway="0" width="1.00"/>
    <type id="highway.footway" priority="1" speed="2.78" allow="pedestrian" oneway="1" width="2.00"/>
    <type id="highway.ford" priority="1" speed="2.78" allow="army" oneway="0"/>
    <type id="highway.living_street" priority="2" speed="2.78" disallow="tram rail_urban rail rail_electric rail_fast ship" oneway="0"/>
    <type id="highway.motorway" priority="14" speed="39.44" allow="private emergency authority army vip passenger hov taxi bus coach delivery truck trailer motorcycle evehicle custom1 custom2" oneway="1"/>
    <type id="highway.motorway_link" priority="9" speed="22.22" allow="private emergency authority army vip passenger hov taxi bus coach delivery truck trailer motorcycle evehicle custom1 custom2" oneway="1"/>
    <type id="highway.path" priority="1" speed="2.78" allow="pedestrian bicycle" oneway="0" width="2.00"/>
    <type id="highway.pedestrian" priority="1" speed="2.78" allow="pedestrian" oneway="1" width="2.00"/>
    <type id="highway.primary" priority="12" speed="27.78" disallow="pedestrian tram rail_urban rail rail_electric rail_fast ship" oneway="0"/>
    <type id="highway.primary_link" priority="7" speed="22.22" disallow="pedestrian tram rail_urban rail rail_electric rail_fast ship" oneway="0"/>
    <type id="highway.raceway" priority="15" speed="83.33" allow="vip" oneway="0"/>
    <type id="highway.residential" priority="3" speed="13.89" disallow="pedestrian tram rail_urban rail rail_electric rail_fast ship" oneway="0"/>
    <type id="highway.secondary" priority="11" speed="27.78" disallow="pedestrian tram rail_urban rail rail_electric rail_fast ship" oneway="0"/>
    <type id="highway.secondary_link" priority="6" speed="22.22" disallow="pedestrian tram rail_urban rail rail_electric rail_fast ship" oneway="0"/>
    <type id="highway.service" priority="1" speed="5.56" allow="pedestrian delivery bicycle" oneway="0"/>
    <type id="highway.stairs" priority="1" speed="1.39" allow="pedestrian" oneway="1" width="2.00"/>
    <type id="highway.step" priority="1" speed="1.39" allow="pedestrian" oneway="1" width="2.00"/>
    <type id="highway.steps" priority="1" speed="1.39" allow="pedestrian" oneway="1" width="2.00"/>
    <type id="highway.tertiary" priority="10" speed="22.22" disallow="pedestrian tram rail_urban rail rail_electric rail_fast ship" oneway="0"/>
    <type id="highway.tertiary_link" priority="5" speed="22.22" disallow="pedestrian tram rail_urban rail rail_electric rail_fast ship" oneway="0"/>
    <type id="highway.track" priority="1" speed="5.56" allow="pedestrian motorcycle moped bicycle" oneway="0"/>
    <type id="highway.trunk" priority="13" speed="27.78" disallow="pedestrian bicycle tram rail_urban rail rail_electric rail_fast ship" oneway="0"/>
    <type id="highway.trunk_link" priority="8" speed="22.22" disallow="pedestrian bicycle tram rail_urban rail rail_electric rail_fast ship" oneway="0"/>
    <type id="highway.unclassified" priority="4" speed="13.89" disallow="pedestrian tram rail_urban rail rail_electric rail_fast ship" oneway="0"/>
    <type id="highway.unsurfaced" priority="1" speed="8.33" disallow="tram rail_urban rail rail_electric rail_fast ship" oneway="0"/>
    <type id="railway.highspeed" priority="21" speed="69.44" allow="rail_fast" oneway="1"/>
    <type id="railway.light_rail" priority="19" speed="27.78" allow="rail_urban" oneway="1"/>
    <type id="railway.preserved" priority="16" speed="27.78" allow="rail" oneway="1"/>
    <type id="railway.rail" priority="20" speed="44.44" allow="rail" oneway="1"/>
    <type id="railway.subway" priority="18" speed="27.78" allow="rail_urban" oneway="1"/>
    <type id="railway.tram" priority="17" speed="13.89" allow="tram" oneway="1"/>

    <edge id=":21_0" function="internal">
        <lane id=":21_0_0" index="0" disallow="pedestrian tram rail_urban rail rail_electric rail_fast ship" speed="18.68" length="22.11" width="3.49" shape="-392.27,-932.14 -392.40,-933.06 -393.36,-937.08 -394.70,-940.99 -396.38,-944.77 -398.36,-948.39 -400.91,-952.28"/>
    </edge>
    <edge id=":21_1" function="internal">
        <lane id=":21_1_0" index="0" disallow="pedestrian tram rail_urban rail rail_electric rail_fast ship" speed="19.49" length="23.17" width="3.49" shape="-389.52,-932.19 -390.08,-933.82 -392.00,-938.00 -394.73,-942.91 -398.29,-948.51 -400.91,-952.28"/>
    </edge>
    <edge id=":21_2" function="internal">
        <lane id=":21_2_0" index="0" disallow="pedestrian tram rail_urban rail rail_electric rail_fast ship" speed="22.09" length="22.67" width="3.50" shape="-398.07,-954.32 -394.07,-949.00 -390.42,-944.73 -387.18,-941.46 -384.43,-939.17 -382.58,-937.95"/>
        <lane id=":21_2_1" index="1" disallow="pedestrian tram rail_urban rail rail_electric rail_fast ship" speed="25.17" length="23.70" width="3.48" shape="-398.07,-954.32 -388.08,-940.58 -383.94,-935.30"/>
    </edge>
    <edge id=":22_0" function="internal">
        <lane id=":22_0_0" index="0" disallow="pedestrian tram rail_urban rail rail_electric rail_fast ship" speed="14.89" length="30.44" width="3.50" shape="-401.04,-952.47 -401.78,-953.19 -402.66,-953.69 -403.60,-954.07 -405.57,-954.57 -408.58,-955.00 -411.61,-955.20 -415.67,-955.26 -421.75,-955.08 -428.83,-954.61 -430.86,-954.44"/>
    </edge>
    <edge id=":22_1" function="internal">
        <lane id=":22_1_0" index="0" disallow="pedestrian tram rail_urban rail rail_electric rail_fast ship" speed="36.11" length="34.14" width="3.50" shape="-401.05,-952.47 -419.78,-978.47 -420.98,-980.19"/>
    </edge>
    <edge id=":22_2" function="internal">
        <lane id=":22_2_0" index="0" disallow="pedestrian tram rail_urban rail rail_electric rail_fast ship" speed="36.11" length="33.97" width="3.50" shape="-418.10,-982.17 -416.92,-980.49 -398.27,-954.59"/>
    </edge>
    <edge id=":22_3" function="internal">
        <lane id=":22_3_0" index="0" disallow="pedestrian tram rail_urban rail rail_electric rail_fast ship" speed="11.47" length="42.08" width="3.50" shape="-418.10,-982.17 -415.48,-978.08 -413.96,-975.22 -412.72,-972.23 -412.24,-970.69 -411.89,-969.11 -411.71,-967.50 -411.72,-965.88 -411.98,-964.28 -412.51,-962.76 -413.30,-961.35 -414.33,-960.10 -415.54,-959.03 -416.88,-958.12 -418.30,-957.35 -419.79,-956.71 -422.87,-955.73 -426.04,-955.05 -430.86,-954.44"/>
    </edge>
    <edge id=":22_4" function="internal">
        <lane id=":22_4_0" index="0" disallow="pedestrian tram rail_urban rail rail_electric rail_fast ship" speed="10.40" length="34.29" width="3.50" shape="-431.18,-957.92 -426.96,-958.46 -424.27,-959.04 -421.65,-959.87 -420.46,-960.38 -419.33,-960.99 -418.29,-961.70 -417.38,-962.50 -416.64,-963.40 -416.08,-964.39 -415.71,-965.48 -415.52,-966.64 -415.52,-967.86 -415.66,-969.11 -415.95,-970.38 -416.33,-971.62 -417.39,-974.16 -418.68,-976.60 -420.98,-980.19"/>
    </edge>
    <edge id=":22_5" function="internal">
        <lane id=":22_5_0" index="0" disallow="pedestrian tram rail_urban rail rail_electric rail_fast ship" speed="16.00" length="33.89" width="3.50" shape="-431.18,-957.92 -428.99,-958.11 -421.44,-958.57 -414.92,-958.70 -410.54,-958.56 -407.21,-958.24 -403.86,-957.64 -401.61,-956.93 -400.44,-956.37 -399.30,-955.62 -398.27,-954.59"/>
    </edge>
    <edge id=":23_0" function="internal">
        <lane id=":23_0_0" index="0" disallow="pedestrian tram rail_urban rail rail_electric rail_fast ship" speed="36.11" length="3.31" width="3.50" shape="-382.15,-937.55 -379.17,-936.10"/>
    </edge>
    <edge id=":23_1" function="internal">
        <lane id=":23_1_0" index="0" disallow="pedestrian tram rail_urban rail rail_electric rail_fast ship" speed="36.11" length="3.25" width="3.50" shape="-383.63,-934.46 -383.42,-934.35 -383.22,-934.24 -383.05,-934.15 -382.89,-934.07 -382.74,-934.00 -382.61,-933.93 -382.48,-933.87 -382.36,-933.81 -382.24,-933.75 -382.13,-933.70 -382.01,-933.65 -381.88,-933.59 -381.76,-933.54 -381.62,-933.48 -381.46,-933.41 -381.30,-933.35 -381.12,-933.27 -380.91,-933.19 -380.69,-933.09"/>
    </edge>
    <edge id=":25_0" function="internal">
        <lane id=":25_0_0" index="0" disallow="pedestrian tram rail_urban rail rail_electric rail_fast ship" speed="3.30" length="3.14" width="3.50" shape="-391.62,-923.99 -391.69,-927.13"/>
    </edge>
    <edge id=":25_1" function="internal">
        <lane id=":25_1_0" index="0" disallow="pedestrian tram rail_urban rail rail_electric rail_fast ship" speed="3.37" length="3.25" width="3.50" shape="-388.28,-923.92 -388.21,-927.17"/>
    </edge>

    <edge id="3434" from="22" to="3" priority="3" type="highway.residential" spreadType="center" length="69.99" shape="-416.43,-961.91 -500.59,-948.38">
        <lane id="3434_0" index="0" disallow="pedestrian tram rail_urban rail rail_electric rail_fast ship" speed="36.11" length="69.99" width="3.50" customShape="1" shape="-430.86,-954.44 -479.07,-950.25 -500.59,-948.38"/>
    </edge>
    <edge id="3435" from="14" to="22" priority="3" type="highway.residential" spreadType="center" length="70.02" shape="-500.92,-951.86 -416.98,-965.37">
        <lane id="3435_0" index="0" disallow="pedestrian tram rail_urban rail rail_electric rail_fast ship" speed="36.11" length="70.02" width="3.50" customShape="1" shape="-500.92,-951.86 -479.38,-953.73 -431.16,-957.93"/>
    </edge>
    <edge id="3556" from="25" to="21" priority="3" type="highway.residential" spreadType="center" length="7.78">
        <lane id="3556_0" index="0" disallow="pedestrian tram rail_urban rail rail_electric rail_fast ship" speed="36.11" length="7.78" width="3.50" customShape="1" shape="-391.69,-927.13 -391.68,-925.75 -391.72,-932.15"/>
        <lane id="3556_1" index="1" disallow="pedestrian tram rail_urban rail rail_electric rail_fast ship" speed="36.11" length="7.79" width="3.50" customShape="1" shape="-388.21,-927.17 -388.18,-925.80 -388.30,-932.22"/>
    </edge>
    <edge id="3830" from="22" to="6" priority="3" type="highway.residential" spreadType="center" length="43.98" shape="-418.27,-962.79 -445.89,-1016.43">
        <lane id="3830_0" index="0" disallow="pedestrian tram rail_urban rail rail_electric rail_fast ship" speed="36.11" length="43.98" width="3.50" customShape="1" shape="-420.98,-980.19 -433.43,-998.30 -445.89,-1016.43"/>
    </edge>
    <edge id="3831" from="15" to="22" priority="3" type="highway.residential" spreadType="center" length="43.98" shape="-443.01,-1018.42 -415.16,-964.39">
        <lane id="3831_0" index="0" disallow="pedestrian tram rail_urban rail rail_electric rail_fast ship" speed="36.11" length="43.98" width="3.50" customShape="1" shape="-443.01,-1018.42 -430.55,-1000.29 -418.10,-982.17"/>
    </edge>
    <edge id="3833" from="21" to="22" priority="3" type="highway.residential" spreadType="center" length="0.26" shape="-393.16,-941.06 -417.95,-962.37">
        <lane id="3833_0" index="0" disallow="pedestrian tram rail_urban rail rail_electric rail_fast ship" speed="36.11" length="0.26" width="3.49" customShape="1" shape="-400.91,-952.28 -400.99,-952.38 -401.06,-952.49"/>
    </edge>
    <edge id="3834" from="22" to="21" priority="3" type="highway.residential" spreadType="center" length="0.35" shape="-415.67,-965.02 -390.88,-943.71">
        <lane id="3834_0" index="0" disallow="pedestrian tram rail_urban rail rail_electric rail_fast ship" speed="36.11" length="0.35" width="3.50" customShape="1" shape="-398.27,-954.59 -398.14,-954.42 -398.06,-954.31"/>
    </edge>
    <edge id="3989" from="21" to="23" priority="3" type="highway.residential" spreadType="center" length="0.57">
        <lane id="3989_0" index="0" disallow="pedestrian tram rail_urban rail rail_electric rail_fast ship" speed="36.11" length="0.57" width="3.50" customShape="1" shape="-382.67,-937.79 -382.15,-937.55"/>
        <lane id="3989_1" index="1" disallow="pedestrian tram rail_urban rail rail_electric rail_fast ship" speed="36.11" length="0.65" width="3.48" customShape="1" shape="-384.21,-934.76 -383.63,-934.46"/>
    </edge>
    <edge id="6519" from="23" to="24" priority="3" type="highway.residential" spreadType="center" length="24.88">
        <lane id="6519_0" index="0" disallow="pedestrian tram rail_urban rail rail_electric rail_fast ship" speed="36.11" length="24.88" width="3.50" customShape="1" shape="-380.69,-933.09 -379.87,-932.75 -376.36,-931.76 -367.67,-929.97 -364.67,-929.07 -362.30,-927.98 -360.57,-926.82 -359.06,-925.39 -358.10,-924.15"/>
    </edge>
    <edge id="6520" from="23" to="24" priority="3" type="highway.residential" spreadType="center" length="24.29">
        <lane id="6520_0" index="0" disallow="pedestrian tram rail_urban rail rail_electric rail_fast ship" speed="36.11" length="24.29" width="3.50" customShape="1" shape="-379.17,-936.10 -368.89,-930.90 -362.63,-927.43 -359.62,-925.50 -358.44,-924.53 -358.10,-924.15"/>
    </edge>
    <edge id="7366" from="26" to="25" priority="3" type="highway.residential" spreadType="center" length="17.98">
        <lane id="7366_0" index="0" disallow="pedestrian tram rail_urban rail rail_electric rail_fast ship" speed="36.11" length="17.98" width="3.49" customShape="1" shape="-388.94,-906.36 -389.64,-907.74 -390.38,-910.21 -390.98,-913.77 -391.45,-918.91 -391.62,-923.99"/>
    </edge>
    <edge id="7367" from="26" to="25" priority="3" type="highway.residential" spreadType="center" length="18.05">
        <lane id="7367_0" index="0" disallow="pedestrian tram rail_urban rail rail_electric rail_fast ship" speed="36.11" length="18.05" width="3.49" customShape="1" shape="-388.94,-906.36 -389.69,-907.73 -390.18,-909.21 -390.41,-910.76 -390.37,-912.84 -389.88,-915.93 -388.51,-922.04 -388.28,-923.92"/>
    </edge>

    <junction id="14" type="dead_end" x="-500.92" y="-951.86" incLanes="" intLanes="" shape="-500.77,-950.12 -501.07,-953.61" rightOfWay="edgePriority"/>
    <junction id="15" type="dead_end" x="-443.01" y="-1018.42" incLanes="" intLanes="" shape="-444.45,-1017.43 -441.57,-1019.41" rightOfWay="edgePriority"/>
    <junction id="21" type="priority" x="-392.02" y="-942.38" incLanes="3556_0 3556_1 3834_0" intLanes=":21_0_0 :21_1_0 :21_2_0 :21_2_1" shape="-393.47,-932.11 -386.55,-932.25 -386.40,-933.15 -386.18,-933.39 -385.88,-933.47 -385.49,-933.42 -385.00,-933.21 -381.87,-939.35 -385.96,-941.50 -388.69,-943.55 -390.59,-945.73 -392.20,-948.27 -394.04,-951.39 -396.64,-955.34 -402.33,-951.27 -399.55,-947.60 -397.32,-944.83 -395.62,-942.43 -394.43,-939.86 -393.72,-936.60">
        <request index="0" response="0000" foes="0010" cont="0"/>
        <request index="1" response="0001" foes="0001" cont="0"/>
        <request index="2" response="0000" foes="0000" cont="0"/>
        <request index="3" response="0000" foes="0000" cont="0"/>
    </junction>
    <junction id="22" type="priority" x="-416.74" y="-963.63" incLanes="3833_0 3831_0 3435_0" intLanes=":22_0_0 :22_1_0 :22_2_0 :22_3_0 :22_4_0 :22_5_0" shape="-402.43,-951.41 -396.88,-955.66 -416.65,-983.16 -422.42,-979.19 -419.91,-974.41 -419.09,-970.00 -419.88,-966.14 -422.23,-963.01 -426.06,-960.79 -431.31,-959.67 -430.70,-952.70 -422.77,-953.28 -416.12,-953.55 -410.76,-953.49 -406.70,-953.12 -403.92,-952.43">
        <request index="0" response="000000" foes="001000" cont="0"/>
        <request index="1" response="000000" foes="111000" cont="0"/>
        <request index="2" response="000000" foes="100000" cont="0"/>
        <request index="3" response="000011" foes="100011" cont="0"/>
        <request index="4" response="000010" foes="000010" cont="0"/>
        <request index="5" response="001110" foes="001110" cont="0"/>
    </junction>
    <junction id="23" type="priority" x="-381.51" y="-935.32" incLanes="3989_0 3989_1" intLanes=":23_0_0 :23_1_0" shape="-381.48,-931.53 -378.37,-937.66 -381.40,-939.13 -384.39,-932.89">
        <request index="0" response="00" foes="00" cont="0"/>
        <request index="1" response="00" foes="00" cont="0"/>
    </junction>
    <junction id="24" type="dead_end" x="-358.10" y="-924.15" incLanes="6520_0 6519_0" intLanes="" shape="-356.78,-925.28 -359.43,-923.01 -356.72,-925.21 -359.49,-923.08"/>
    <junction id="25" type="priority" x="-391.68" y="-925.63" incLanes="7366_0 7367_0" intLanes=":25_0_0 :25_1_0" shape="-393.37,-924.03 -386.53,-923.89 -386.46,-927.20 -393.44,-927.11">
        <request index="0" response="00" foes="00" cont="0"/>
        <request index="1" response="00" foes="00" cont="0"/>
    </junction>
    <junction id="26" type="dead_end" x="-388.94" y="-906.36" incLanes="" intLanes="" shape="-387.38,-907.16 -390.49,-905.57 -387.41,-907.21 -390.46,-905.52"/>
    <junction id="3" type="dead_end" x="-500.59" y="-948.38" incLanes="3434_0" intLanes="" shape="-500.44,-946.63 -500.74,-950.12" rightOfWay="edgePriority"/>
    <junction id="6" type="dead_end" x="-445.89" y="-1016.43" incLanes="3830_0" intLanes="" shape="-447.33,-1015.44 -444.45,-1017.43" rightOfWay="edgePriority"/>

    <connection from="3435" to="3830" fromLane="0" toLane="0" contPos="-4.00" shape="-431.18,-957.92 -426.96,-958.46 -424.27,-959.04 -421.65,-959.87 -420.46,-960.38 -419.33,-960.99 -418.29,-961.70 -417.38,-962.50 -416.64,-963.40 -416.08,-964.39 -415.71,-965.48 -415.52,-966.64 -415.52,-967.86 -415.66,-969.11 -415.95,-970.38 -416.33,-971.62 -417.39,-974.16 -418.68,-976.60 -420.98,-980.19" via=":22_4_0" dir="r" state="m"/>
    <connection from="3435" to="3834" fromLane="0" toLane="0" contPos="-4.00" shape="-431.18,-957.92 -428.99,-958.11 -421.44,-958.57 -414.92,-958.70 -410.54,-958.56 -407.21,-958.24 -403.86,-957.64 -401.61,-956.93 -400.44,-956.37 -399.30,-955.62 -398.27,-954.59" via=":22_5_0" dir="l" state="m"/>
    <connection from="3556" to="3833" fromLane="0" toLane="0" contPos="-4.00" shape="-391.68,-925.85 -391.89,-929.49 -392.40,-933.06 -393.36,-937.08 -394.70,-940.99 -396.38,-944.77 -398.36,-948.39 -400.91,-952.28" via=":21_0_0" dir="r" state="M"/>
    <connection from="3556" to="3833" fromLane="1" toLane="0" contPos="-4.00" shape="-388.18,-925.95 -388.36,-927.96 -388.91,-930.45 -390.08,-933.82 -392.00,-938.00 -394.73,-942.91 -398.29,-948.51 -400.91,-952.28" via=":21_1_0" dir="r" state="m"/>
    <connection from="3831" to="3834" fromLane="0" toLane="0" contPos="-4.00" shape="-418.10,-982.17 -416.92,-980.49 -398.27,-954.59" via=":22_2_0" dir="s" state="M"/>
    <connection from="3831" to="3434" fromLane="0" toLane="0" contPos="-4.00" shape="-418.10,-982.17 -415.48,-978.08 -413.96,-975.22 -412.72,-972.23 -412.24,-970.69 -411.89,-969.11 -411.71,-967.50 -411.72,-965.88 -411.98,-964.28 -412.51,-962.76 -413.30,-961.35 -414.33,-960.10 -415.54,-959.03 -416.88,-958.12 -418.30,-957.35 -419.79,-956.71 -422.87,-955.73 -426.04,-955.05 -430.86,-954.44" via=":22_3_0" dir="l" state="m"/>
    <connection from="3833" to="3434" fromLane="0" toLane="0" contPos="-4.00" shape="-401.06,-952.49 -401.78,-953.19 -402.66,-953.69 -403.60,-954.07 -405.57,-954.57 -408.58,-955.00 -411.61,-955.20 -415.67,-955.26 -421.75,-955.08 -428.83,-954.61 -430.86,-954.44" via=":22_0_0" dir="r" state="M"/>
    <connection from="3833" to="3830" fromLane="0" toLane="0" contPos="-4.00" shape="-401.06,-952.49 -419.78,-978.47 -420.98,-980.19" via=":22_1_0" dir="s" state="M"/>
    <connection from="3834" to="3989" fromLane="0" toLane="0" contPos="-4.00" shape="-398.06,-954.31 -394.07,-949.00 -390.42,-944.73 -387.18,-941.46 -384.43,-939.17 -381.87,-937.48 -380.92,-936.98" via=":21_2_0" dir="s" state="M"/>
    <connection from="3834" to="3989" fromLane="0" toLane="1" contPos="-4.00" shape="-398.06,-954.31 -388.08,-940.58 -383.96,-935.32 -382.91,-934.18 -382.55,-933.89" via=":21_2_1" dir="s" state="M"/>
    <connection from="3989" to="6520" fromLane="0" toLane="0" contPos="-4.00" via=":23_0_0" dir="s" state="M"/>
    <connection from="3989" to="6519" fromLane="1" toLane="0" contPos="-4.00" via=":23_1_0" dir="s" state="M"/>
    <connection from="7366" to="3556" fromLane="0" toLane="0" contPos="-4.00" via=":25_0_0" dir="s" state="M"/>
    <connection from="7367" to="3556" fromLane="0" toLane="1" contPos="-4.00" via=":25_1_0" dir="s" state="M"/>

    <connection from=":21_0" to="3833" fromLane="0" toLane="0" dir="r" state="M"/>
    <connection from=":21_1" to="3833" fromLane="0" toLane="0" dir="r" state="M"/>
    <connection from=":21_2" to="3989" fromLane="0" toLane="0" dir="s" state="M"/>
    <connection from=":21_2" to="3989" fromLane="1" toLane="1" dir="s" state="M"/>
    <connection from=":22_0" to="3434" fromLane="0" toLane="0" dir="r" state="M"/>
    <connection from=":22_1" to="3830" fromLane="0" toLane="0" dir="s" state="M"/>
    <connection from=":22_2" to="3834" fromLane="0" toLane="0" dir="s" state="M"/>
    <connection from=":22_3" to="3434" fromLane="0" toLane="0" dir="l" state="M"/>
    <connection from=":22_4" to="3830" fromLane="0" toLane="0" dir="r" state="M"/>
    <connection from=":22_5" to="3834" fromLane="0" toLane="0" dir="l" state="M"/>
    <connection from=":23_0" to="6520" fromLane="0" toLane="0" dir="s" state="M"/>
    <connection from=":23_1" to="6519" fromLane="0" toLane="0" dir="s" state="M"/>
    <connection from=":25_0" to="3556" fromLane="0" toLane="0" dir="s" state="M"/>
    <connection from=":25_1" to="3556" fromLane="0" toLane="1" dir="s" state="M"/>

</net>