<routes>
	<vehicle depart="0.1" departLane="0" departPos="14.938897746532412" departSpeed="2.929671" id="324" type="bicycle">
		<route edges=":58_3 31062"/>
	</vehicle>
	<vehicle depart="0.1" departLane="0" departPos="2.5" departSpeed="4.9615081" id="33" type="passenger">
		<route edges="31615 35416"/>
	</vehicle>
	<vehicle depart="0.1" departLane="0" departPos="62.71136674895452" departSpeed="0.83283123" id="36" type="passenger">
		<route edges="31063 31066"/>
	</vehicle>
	<vehicle depart="0.1" departLane="0" departPos="6.4113019502010955" departSpeed="2.3779901" id="315" type="passenger">
		<route edges=":55_0 31611"/>
	</vehicle>
	<vehicle depart="0.1" departLane="0" departPos="16.00109879752894" departSpeed="0.0" id="316" type="passenger">
		<route edges="30820 31066"/>
	</vehicle>
	<vehicle depart="0.1" departLane="0" departPos="28.32704265103622" departSpeed="3.6378576" id="320" type="passenger">
		<route edges=":55_5 31065 30821"/>
	</vehicle>
	<vehicle depart="0.1" departLane="0" departPos="15.670187880886104" departSpeed="3.4678458" id="331" type="passenger">
		<route edges="31614 31065"/>
	</vehicle>
	<vehicle depart="0.1" departLane="0" departPos="27.436386684797142" departSpeed="0.0" id="362" type="passenger">
		<route edges="31614 31065"/>
	</vehicle>
	<vehicle depart="0.1" departLane="0" departPos="71.24924433311932" departSpeed="1.8010742" id="317" type="motorcycle">
		<route edges="31612 31615"/>
	</vehicle>
</routes>
