<routes>
	<vehicle depart="0.1" departLane="0" departPos="18.21966808752065" departSpeed="0.0" id="314" type="bicycle">
		<route edges="262 103"/>
	</vehicle>
	<vehicle depart="0.1" departLane="0" departPos="18.752992023990092" departSpeed="0.05531442" id="317" type="bicycle">
		<route edges="104 261"/>
	</vehicle>
	<vehicle depart="0.1" departLane="0" departPos="56.71593760828657" departSpeed="0.0" id="32" type="passenger">
		<route edges="109 106"/>
	</vehicle>
	<vehicle depart="0.1" departLane="0" departPos="70.33062929003592" departSpeed="0.0" id="38" type="passenger">
		<route edges="109 106"/>
	</vehicle>
	<vehicle depart="0.1" departLane="0" departPos="23.77036329700921" departSpeed="0.0" id="39" type="passenger">
		<route edges="262 103"/>
	</vehicle>
	<vehicle depart="0.1" departLane="0" departPos="63.62283888289277" departSpeed="0.0" id="310" type="passenger">
		<route edges="109 106"/>
	</vehicle>
	<vehicle depart="0.1" departLane="0" departPos="49.81106533389561" departSpeed="2.5104612e-05" id="312" type="passenger">
		<route edges="109 106"/>
	</vehicle>
	<vehicle depart="0.1" departLane="0" departPos="135.029134422447" departSpeed="0.0" id="316" type="passenger">
		<route edges="107 110"/>
	</vehicle>
	<vehicle depart="0.1" departLane="0" departPos="14.132595607516434" departSpeed="0.0" id="318" type="passenger">
		<route edges="262 103"/>
	</vehicle>
	<vehicle depart="0.1" departLane="0" departPos="24.430225960040822" departSpeed="0.0" id="319" type="passenger">
		<route edges="104 261"/>
	</vehicle>
	<vehicle depart="0.1" departLane="0" departPos="2.5" departSpeed="7.5424973" id="320" type="passenger">
		<route edges=":31_2 261"/>
	</vehicle>
	<vehicle depart="0.1" departLane="0" departPos="122.07429857116513" departSpeed="7.6312404" id="322" type="passenger">
		<route edges="106 103 100"/>
	</vehicle>
	<vehicle depart="0.1" departLane="0" departPos="43.01178595853161" departSpeed="0.00019560042" id="323" type="passenger">
		<route edges="109 106"/>
	</vehicle>
	<vehicle depart="0.1" departLane="0" departPos="17.262370116790684" departSpeed="0.018788195" id="324" type="passenger">
		<route edges="104 261"/>
	</vehicle>
	<vehicle depart="0.1" departLane="0" departPos="90.24109675538077" departSpeed="8.1945945" id="327" type="passenger">
		<route edges="106 103 100"/>
	</vehicle>
	<vehicle depart="0.1" departLane="0" departPos="73.97668726485475" departSpeed="8.6064439" id="329" type="passenger">
		<route edges="106 103 100"/>
	</vehicle>
	<vehicle depart="0.1" departLane="0" departPos="7.072956450707966" departSpeed="2.0443815e-05" id="330" type="passenger">
		<route edges="262 103"/>
	</vehicle>
	<vehicle depart="0.1" departLane="0" departPos="72.49873886688245" departSpeed="2.5827477" id="332" type="passenger">
		<route edges="101 104 261"/>
	</vehicle>
	<vehicle depart="0.1" departLane="0" departPos="31.385657940865556" departSpeed="0.0052479849" id="333" type="passenger">
		<route edges="109 106"/>
	</vehicle>
	<vehicle depart="0.1" departLane="0" departPos="24.66040402125853" departSpeed="0.021819202" id="334" type="passenger">
		<route edges="109 106"/>
	</vehicle>
	<vehicle depart="0.1" departLane="0" departPos="55.94178088155037" departSpeed="9.5667372" id="336" type="passenger">
		<route edges="106 103 100"/>
	</vehicle>
	<vehicle depart="0.1" departLane="0" departPos="17.481754227725588" departSpeed="0.072738336" id="337" type="passenger">
		<route edges="109 106"/>
	</vehicle>
	<vehicle depart="0.1" departLane="0" departPos="37.236608318009466" departSpeed="10.289787" id="338" type="passenger">
		<route edges="106 103"/>
	</vehicle>
	<vehicle depart="0.1" departLane="0" departPos="18.95392341232387" departSpeed="10.604398" id="339" type="passenger">
		<route edges="106 103"/>
	</vehicle>
	<vehicle depart="0.1" departLane="0" departPos="23.446327759223625" departSpeed="10.559007" id="341" type="passenger">
		<route edges=":29_1 106 103"/>
	</vehicle>
	<vehicle depart="0.1" departLane="0" departPos="9.867826852154307" departSpeed="0.17560027" id="343" type="passenger">
		<route edges="109 106"/>
	</vehicle>
	<vehicle depart="0.1" departLane="0" departPos="59.15182357125892" departSpeed="10.107427" id="345" type="passenger">
		<route edges="85 106 103"/>
	</vehicle>
	<vehicle depart="0.1" departLane="0" departPos="42.873869165528774" departSpeed="9.6879742" id="346" type="passenger">
		<route edges="85 106 103"/>
	</vehicle>
	<vehicle depart="0.1" departLane="0" departPos="12.351598131663238" departSpeed="1.9231909" id="328" type="motorcycle">
		<route edges="104 261"/>
	</vehicle>
	<vehicle depart="0.1" departLane="0" departPos="35.903134466576695" departSpeed="0.0011037068" id="331" type="motorcycle">
		<route edges="109 106"/>
	</vehicle>
	<vehicle depart="0.1" departLane="0" departPos="33.38958189826592" departSpeed="0.0" id="30" type="truck">
		<route edges="262 103"/>
	</vehicle>
	<vehicle depart="0.1" departLane="0" departPos="10.453575100845931" departSpeed="13.682106" id="349" type="truck">
		<route edges="85 106 103"/>
	</vehicle>
</routes>
