<routes>
	<vehicle depart="0.1" departLane="0" departPos="69.03232768844468" departSpeed="0.0" id="38" type="passenger">
		<route edges="8746 8699"/>
	</vehicle>
	<vehicle depart="0.1" departLane="0" departPos="26.98573432494927" departSpeed="13.885613" id="310" type="passenger">
		<route edges=":60_4 8986 8983"/>
	</vehicle>
	<vehicle depart="0.1" departLane="0" departPos="61.531343948488804" departSpeed="0.0" id="314" type="passenger">
		<route edges="8746 8699"/>
	</vehicle>
	<vehicle depart="0.1" departLane="0" departPos="26.653817722288125" departSpeed="1.8862917" id="322" type="passenger">
		<route edges=":60_3 8699"/>
	</vehicle>
	<vehicle depart="0.1" departLane="0" departPos="39.21050493187629" departSpeed="0.90039301" id="326" type="passenger">
		<route edges=":62_3 8987"/>
	</vehicle>
	<vehicle depart="0.1" departLane="0" departPos="23.566384078672257" departSpeed="12.803659" id="329" type="passenger">
		<route edges="8701 8698"/>
	</vehicle>
	<vehicle depart="0.1" departLane="0" departPos="12.61628779286674" departSpeed="11.923143" id="336" type="motorcycle">
		<route edges=":58_5 8698 8986"/>
	</vehicle>
</routes>
