<!-- generated on Tue Feb  9 22:20:01 2021 by Eclipse SUMO netconvert Version 1.8.0
<configuration xmlns:xsi="http://www.w3.org/2001/XMLSchema-instance" xsi:noNamespaceSchemaLocation="http://sumo.dlr.de/xsd/netconvertConfiguration.xsd">

    <input>
        <node-files value="./converted_scenarios/scenario-factory/DEU_Muehlhausen-7_4_I-1-1/DEU_Muehlhausen-7_4_I-1-1.nod.xml"/>
        <edge-files value="./converted_scenarios/scenario-factory/DEU_Muehlhausen-7_4_I-1-1/DEU_Muehlhausen-7_4_I-1-1.edg.xml"/>
        <connection-files value="./converted_scenarios/scenario-factory/DEU_Muehlhausen-7_4_I-1-1/DEU_Muehlhausen-7_4_I-1-1.con.xml"/>
        <tllogic-files value="./converted_scenarios/scenario-factory/DEU_Muehlhausen-7_4_I-1-1/DEU_Muehlhausen-7_4_I-1-1.tll.xml"/>
        <type-files value="/home/zen/commonroad-interactive-benchmarks/install/commonroad-map-tool/crmapconverter/sumo_map/templates/DEU.typ.xml"/>
    </input>

    <output>
        <output-file value="./converted_scenarios/scenario-factory/DEU_Muehlhausen-7_4_I-1-1/DEU_Muehlhausen-7_4_I-1-1.net.xml"/>
    </output>

    <processing>
        <geometry.remove.keep-edges.explicit value="true"/>
        <geometry.avoid-overlap value="true"/>
        <offset.disable-normalization value="true"/>
    </processing>

    <junctions>
        <no-turnarounds value="true"/>
        <junctions.internal-link-detail value="20"/>
    </junctions>

    <report>
        <aggregate-warnings value="5"/>
    </report>

    <random_number>
        <seed value="1234"/>
    </random_number>

</configuration>
--><net xmlns:xsi="http://www.w3.org/2001/XMLSchema-instance" version="1.6" junctionCornerDetail="5" junctionLinkDetail="20" limitTurnSpeed="5.50" xsi:noNamespaceSchemaLocation="http://sumo.dlr.de/xsd/net_file.xsd">

    <location netOffset="0.00,0.00" convBoundary="-665.87,23.99,-425.27,259.04" origBoundary="-665.87,23.99,-425.27,259.04" projParameter="!"/>

    <type id="highway.bridleway" priority="1" speed="2.78" allow="pedestrian" oneway="1" width="2.00"/>
    <type id="highway.bus_guideway" priority="1" speed="27.78" allow="bus" oneway="1"/>
    <type id="highway.cycleway" priority="1" speed="8.33" allow="bicycle" oneway="0" width="1.00"/>
    <type id="highway.footway" priority="1" speed="2.78" allow="pedestrian" oneway="1" width="2.00"/>
    <type id="highway.ford" priority="1" speed="2.78" allow="army" oneway="0"/>
    <type id="highway.living_street" priority="2" speed="2.78" disallow="tram rail_urban rail rail_electric rail_fast ship" oneway="0"/>
    <type id="highway.motorway" priority="14" speed="39.44" allow="private emergency authority army vip passenger hov taxi bus coach delivery truck trailer motorcycle evehicle custom1 custom2" oneway="1"/>
    <type id="highway.motorway_link" priority="9" speed="22.22" allow="private emergency authority army vip passenger hov taxi bus coach delivery truck trailer motorcycle evehicle custom1 custom2" oneway="1"/>
    <type id="highway.path" priority="1" speed="2.78" allow="pedestrian bicycle" oneway="0" width="2.00"/>
    <type id="highway.pedestrian" priority="1" speed="2.78" allow="pedestrian" oneway="1" width="2.00"/>
    <type id="highway.primary" priority="12" speed="27.78" disallow="pedestrian tram rail_urban rail rail_electric rail_fast ship" oneway="0"/>
    <type id="highway.primary_link" priority="7" speed="22.22" disallow="pedestrian tram rail_urban rail rail_electric rail_fast ship" oneway="0"/>
    <type id="highway.raceway" priority="15" speed="83.33" allow="vip" oneway="0"/>
    <type id="highway.residential" priority="3" speed="13.89" disallow="pedestrian tram rail_urban rail rail_electric rail_fast ship" oneway="0"/>
    <type id="highway.secondary" priority="11" speed="27.78" disallow="pedestrian tram rail_urban rail rail_electric rail_fast ship" oneway="0"/>
    <type id="highway.secondary_link" priority="6" speed="22.22" disallow="pedestrian tram rail_urban rail rail_electric rail_fast ship" oneway="0"/>
    <type id="highway.service" priority="1" speed="5.56" allow="pedestrian delivery bicycle" oneway="0"/>
    <type id="highway.stairs" priority="1" speed="1.39" allow="pedestrian" oneway="1" width="2.00"/>
    <type id="highway.step" priority="1" speed="1.39" allow="pedestrian" oneway="1" width="2.00"/>
    <type id="highway.steps" priority="1" speed="1.39" allow="pedestrian" oneway="1" width="2.00"/>
    <type id="highway.tertiary" priority="10" speed="22.22" disallow="pedestrian tram rail_urban rail rail_electric rail_fast ship" oneway="0"/>
    <type id="highway.tertiary_link" priority="5" speed="22.22" disallow="pedestrian tram rail_urban rail rail_electric rail_fast ship" oneway="0"/>
    <type id="highway.track" priority="1" speed="5.56" allow="pedestrian motorcycle moped bicycle" oneway="0"/>
    <type id="highway.trunk" priority="13" speed="27.78" disallow="pedestrian bicycle tram rail_urban rail rail_electric rail_fast ship" oneway="0"/>
    <type id="highway.trunk_link" priority="8" speed="22.22" disallow="pedestrian bicycle tram rail_urban rail rail_electric rail_fast ship" oneway="0"/>
    <type id="highway.unclassified" priority="4" speed="13.89" disallow="pedestrian tram rail_urban rail rail_electric rail_fast ship" oneway="0"/>
    <type id="highway.unsurfaced" priority="1" speed="8.33" disallow="tram rail_urban rail rail_electric rail_fast ship" oneway="0"/>
    <type id="railway.highspeed" priority="21" speed="69.44" allow="rail_fast" oneway="1"/>
    <type id="railway.light_rail" priority="19" speed="27.78" allow="rail_urban" oneway="1"/>
    <type id="railway.preserved" priority="16" speed="27.78" allow="rail" oneway="1"/>
    <type id="railway.rail" priority="20" speed="44.44" allow="rail" oneway="1"/>
    <type id="railway.subway" priority="18" speed="27.78" allow="rail_urban" oneway="1"/>
    <type id="railway.tram" priority="17" speed="13.89" allow="tram" oneway="1"/>

    <edge id=":10_0" function="internal">
        <lane id=":10_0_0" index="0" disallow="pedestrian tram rail_urban rail rail_electric rail_fast ship" speed="36.11" length="3.77" width="3.50" shape="-562.26,61.69 -562.86,57.97"/>
    </edge>
    <edge id=":39_0" function="internal">
        <lane id=":39_0_0" index="0" disallow="pedestrian tram rail_urban rail rail_electric rail_fast ship" speed="36.11" length="3.87" width="3.50" shape="-580.61,44.70 -584.46,45.07"/>
    </edge>
    <edge id=":42_0" function="internal">
        <lane id=":42_0_0" index="0" disallow="pedestrian tram rail_urban rail rail_electric rail_fast ship" speed="36.11" length="3.76" width="3.50" shape="-559.40,57.44 -558.80,61.15"/>
    </edge>
    <edge id=":53_0" function="internal">
        <lane id=":53_0_0" index="0" disallow="pedestrian tram rail_urban rail rail_electric rail_fast ship" speed="36.11" length="0.10" width="3.50" shape="-582.92,41.36 -582.92,41.36"/>
    </edge>
    <edge id=":57_0" function="internal">
        <lane id=":57_0_0" index="0" disallow="pedestrian tram rail_urban rail rail_electric rail_fast ship" speed="11.51" length="29.16" width="3.50" shape="-551.02,138.55 -551.43,136.34 -552.00,134.22 -552.76,132.18 -553.73,130.28 -554.92,128.54 -556.38,127.00 -557.15,126.36 -557.96,125.77 -559.82,124.75 -561.81,124.01 -563.90,123.51 -566.06,123.23 -568.26,123.15 -571.66,123.32"/>
    </edge>
    <edge id=":57_1" function="internal">
        <lane id=":57_1_0" index="0" disallow="pedestrian tram rail_urban rail rail_electric rail_fast ship" speed="36.11" length="38.88" width="3.50" shape="-551.02,138.55 -553.86,119.32 -556.69,100.09"/>
    </edge>
    <edge id=":57_2" function="internal">
        <lane id=":57_2_0" index="0" disallow="pedestrian tram rail_urban rail rail_electric rail_fast ship" speed="36.11" length="38.84" width="3.50" shape="-553.23,99.59 -550.39,118.81 -547.56,138.01"/>
    </edge>
    <edge id=":57_3" function="internal">
        <lane id=":57_3_0" index="0" disallow="pedestrian tram rail_urban rail rail_electric rail_fast ship" speed="12.09" length="34.87" width="3.50" shape="-553.23,99.59 -552.85,103.62 -552.87,106.29 -553.16,108.96 -553.78,111.56 -554.24,112.82 -554.80,114.04 -555.46,115.20 -556.22,116.30 -557.09,117.32 -558.05,118.26 -559.08,119.11 -560.19,119.86 -562.55,121.12 -565.06,122.05 -567.65,122.72 -571.66,123.32"/>
    </edge>
    <edge id=":57_4" function="internal">
        <lane id=":57_4_0" index="0" disallow="pedestrian tram rail_urban rail rail_electric rail_fast ship" speed="11.08" length="29.11" width="3.50" shape="-572.00,119.84 -568.51,119.32 -566.31,118.75 -564.20,117.97 -562.23,116.92 -561.36,116.32 -560.53,115.64 -559.77,114.89 -559.08,114.08 -558.47,113.21 -557.95,112.28 -557.50,111.30 -557.14,110.30 -556.62,108.12 -556.37,105.88 -556.36,103.61 -556.69,100.09"/>
    </edge>
    <edge id=":57_5" function="internal">
        <lane id=":57_5_0" index="0" disallow="pedestrian tram rail_urban rail rail_electric rail_fast ship" speed="12.49" length="34.53" width="3.50" shape="-572.00,119.84 -568.14,119.64 -565.58,119.74 -563.05,120.07 -560.57,120.67 -558.18,121.57 -555.94,122.81 -554.91,123.56 -553.93,124.38 -552.19,126.25 -550.74,128.35 -549.59,130.63 -548.70,133.03 -548.03,135.49 -547.56,138.01"/>
    </edge>
    <edge id=":58_0" function="internal">
        <lane id=":58_0_0" index="0" disallow="pedestrian tram rail_urban rail rail_electric rail_fast ship" speed="36.11" length="38.14" width="3.50" shape="-524.11,179.16 -543.04,181.71 -561.91,184.24"/>
    </edge>
    <edge id=":58_1" function="internal">
        <lane id=":58_1_0" index="0" disallow="pedestrian tram rail_urban rail rail_electric rail_fast ship" speed="12.23" length="34.12" width="3.50" shape="-524.11,179.16 -526.75,179.42 -529.37,179.47 -531.99,179.26 -534.56,178.74 -535.81,178.35 -537.03,177.86 -538.20,177.28 -539.32,176.60 -540.38,175.82 -541.37,174.96 -542.28,174.02 -543.86,171.93 -545.14,169.64 -546.14,167.22 -546.90,164.71 -547.68,160.85"/>
    </edge>
    <edge id=":58_2" function="internal">
        <lane id=":58_2_0" index="0" disallow="pedestrian tram rail_urban rail rail_electric rail_fast ship" speed="11.22" length="28.59" width="3.50" shape="-544.22,160.32 -543.54,163.70 -542.89,165.85 -542.05,167.90 -540.99,169.81 -539.67,171.55 -538.96,172.29 -538.17,172.98 -537.32,173.60 -536.43,174.15 -535.48,174.63 -534.49,175.02 -533.49,175.34 -531.33,175.78 -529.12,175.96 -526.87,175.92 -524.59,175.69"/>
    </edge>
    <edge id=":58_3" function="internal">
        <lane id=":58_3_0" index="0" disallow="pedestrian tram rail_urban rail rail_electric rail_fast ship" speed="12.11" length="34.15" width="3.50" shape="-544.22,160.32 -543.92,162.85 -543.82,165.41 -543.95,168.00 -544.37,170.60 -545.14,173.12 -545.69,174.39 -546.34,175.58 -547.10,176.72 -547.95,177.78 -548.89,178.76 -549.91,179.65 -551.02,180.47 -553.30,181.78 -555.71,182.80 -558.20,183.54 -561.91,184.24"/>
    </edge>
    <edge id=":58_4" function="internal">
        <lane id=":58_4_0" index="0" disallow="pedestrian tram rail_urban rail rail_electric rail_fast ship" speed="11.10" length="28.53" width="3.50" shape="-562.41,180.78 -559.17,180.17 -557.07,179.54 -555.05,178.69 -553.15,177.59 -552.27,176.94 -551.44,176.22 -550.68,175.42 -549.99,174.57 -549.39,173.65 -548.86,172.69 -548.43,171.68 -547.79,169.58 -547.44,167.42 -547.33,165.23 -547.42,163.03 -547.68,160.85"/>
    </edge>
    <edge id=":58_5" function="internal">
        <lane id=":58_5_0" index="0" disallow="pedestrian tram rail_urban rail rail_electric rail_fast ship" speed="36.11" length="38.16" width="3.50" shape="-562.41,180.78 -543.51,178.24 -524.59,175.69"/>
    </edge>
    <edge id=":59_0" function="internal">
        <lane id=":59_0_0" index="0" disallow="pedestrian tram rail_urban rail rail_electric rail_fast ship" speed="36.11" length="39.09" width="3.50" shape="-615.07,145.71 -616.62,132.39 -619.31,106.85"/>
    </edge>
    <edge id=":59_1" function="internal">
        <lane id=":59_1_0" index="0" disallow="pedestrian tram rail_urban rail rail_electric rail_fast ship" speed="12.19" length="34.82" width="3.50" shape="-615.07,145.71 -615.35,141.67 -615.26,139.00 -614.89,136.35 -614.19,133.77 -613.70,132.52 -613.11,131.32 -612.42,130.18 -611.63,129.10 -610.74,128.09 -609.77,127.18 -608.72,126.34 -607.61,125.60 -605.23,124.37 -602.72,123.44 -600.13,122.78 -596.16,122.19"/>
    </edge>
    <edge id=":59_2" function="internal">
        <lane id=":59_2_0" index="0" disallow="pedestrian tram rail_urban rail rail_electric rail_fast ship" speed="11.19" length="29.16" width="3.50" shape="-595.81,125.67 -599.29,126.19 -601.49,126.75 -603.61,127.53 -605.60,128.56 -606.48,129.15 -607.33,129.82 -608.11,130.56 -608.81,131.36 -609.45,132.22 -610.00,133.14 -610.48,134.11 -610.87,135.10 -611.46,137.26 -611.76,139.49 -611.84,141.77 -611.60,145.29"/>
    </edge>
    <edge id=":59_3" function="internal">
        <lane id=":59_3_0" index="0" disallow="pedestrian tram rail_urban rail rail_electric rail_fast ship" speed="12.23" length="34.44" width="3.50" shape="-595.81,125.67 -598.38,125.83 -600.96,125.81 -603.56,125.56 -606.15,125.01 -608.65,124.13 -609.91,123.53 -611.08,122.84 -612.20,122.04 -613.24,121.14 -614.20,120.16 -615.07,119.11 -615.84,117.99 -616.54,116.81 -617.63,114.41 -618.43,111.91 -618.97,109.37 -619.31,106.85"/>
    </edge>
    <edge id=":59_4" function="internal">
        <lane id=":59_4_0" index="0" disallow="pedestrian tram rail_urban rail rail_electric rail_fast ship" speed="11.23" length="28.87" width="3.50" shape="-615.83,106.48 -615.54,108.69 -615.07,110.86 -614.39,112.97 -613.47,114.99 -612.91,115.95 -612.27,116.86 -611.57,117.71 -610.79,118.51 -609.94,119.23 -609.04,119.87 -608.08,120.43 -607.08,120.91 -604.98,121.65 -602.81,122.10 -600.60,122.31 -598.38,122.33 -596.16,122.19"/>
    </edge>
    <edge id=":59_5" function="internal">
        <lane id=":59_5_0" index="0" disallow="pedestrian tram rail_urban rail rail_electric rail_fast ship" speed="36.11" length="39.04" width="3.50" shape="-615.83,106.48 -613.15,132.00 -611.60,145.29"/>
    </edge>
    <edge id=":60_0" function="internal">
        <lane id=":60_0_0" index="0" disallow="pedestrian tram rail_urban rail rail_electric rail_fast ship" speed="11.83" length="28.27" width="3.50" shape="-502.27,192.49 -503.43,189.32 -504.40,187.37 -505.55,185.53 -506.89,183.87 -508.43,182.41 -510.15,181.19 -512.04,180.24 -514.05,179.54 -516.16,179.09 -518.34,178.87 -520.54,178.85 -523.92,179.13"/>
    </edge>
    <edge id=":60_1" function="internal">
        <lane id=":60_1_0" index="0" disallow="pedestrian tram rail_urban rail rail_electric rail_fast ship" speed="36.11" length="37.31" width="3.50" shape="-502.27,192.49 -502.88,190.46 -505.04,182.48 -506.87,174.40 -508.57,165.25 -509.89,156.01"/>
    </edge>
    <edge id=":60_2" function="internal">
        <lane id=":60_2_0" index="0" disallow="pedestrian tram rail_urban rail rail_electric rail_fast ship" speed="36.11" length="36.68" width="3.50" shape="-506.42,155.58 -505.12,164.67 -503.45,173.68 -501.64,181.63 -499.52,189.49 -498.93,191.44"/>
    </edge>
    <edge id=":60_3" function="internal">
        <lane id=":60_3_0" index="0" disallow="pedestrian tram rail_urban rail rail_electric rail_fast ship" speed="12.15" length="33.58" width="3.50" shape="-506.41,155.58 -506.13,159.46 -506.19,162.04 -506.49,164.60 -507.10,167.11 -508.05,169.50 -508.66,170.64 -509.37,171.72 -510.17,172.73 -511.05,173.67 -512.01,174.53 -514.12,176.01 -516.43,177.18 -518.85,178.06 -521.35,178.70 -523.92,179.13"/>
    </edge>
    <edge id=":60_4" function="internal">
        <lane id=":60_4_0" index="0" disallow="pedestrian tram rail_urban rail rail_electric rail_fast ship" speed="11.11" length="28.05" width="3.50" shape="-524.40,175.67 -522.16,175.29 -520.02,174.74 -517.98,174.00 -516.08,173.04 -514.34,171.81 -513.60,171.13 -512.90,170.38 -512.26,169.57 -511.70,168.70 -511.22,167.82 -510.43,165.83 -509.94,163.75 -509.68,161.59 -509.64,159.40 -509.89,156.01"/>
    </edge>
    <edge id=":60_5" function="internal">
        <lane id=":60_5_0" index="0" disallow="pedestrian tram rail_urban rail rail_electric rail_fast ship" speed="12.83" length="33.23" width="3.50" shape="-524.40,175.67 -520.54,175.34 -517.99,175.37 -515.45,175.63 -512.95,176.17 -510.54,177.01 -508.27,178.17 -506.19,179.65 -504.34,181.41 -502.74,183.39 -501.38,185.56 -500.25,187.85 -498.93,191.44"/>
    </edge>
    <edge id=":61_0" function="internal">
        <lane id=":61_0_0" index="0" disallow="pedestrian tram rail_urban rail rail_electric rail_fast ship" speed="36.11" length="38.75" width="3.50" shape="-588.31,187.79 -607.53,190.38 -626.71,192.96"/>
    </edge>
    <edge id=":61_1" function="internal">
        <lane id=":61_1_0" index="0" disallow="pedestrian tram rail_urban rail rail_electric rail_fast ship" speed="12.11" length="34.09" width="3.50" shape="-588.31,187.79 -590.83,188.04 -593.38,188.12 -595.96,187.97 -598.54,187.54 -601.05,186.78 -602.31,186.24 -603.50,185.60 -604.64,184.86 -605.71,184.01 -606.70,183.08 -607.60,182.07 -608.41,180.99 -609.14,179.83 -610.29,177.49 -611.15,175.03 -611.75,172.54 -612.15,170.04"/>
    </edge>
    <edge id=":61_2" function="internal">
        <lane id=":61_2_0" index="0" disallow="pedestrian tram rail_urban rail rail_electric rail_fast ship" speed="11.10" length="28.44" width="3.50" shape="-608.67,169.63 -608.33,171.77 -607.82,173.90 -607.10,175.96 -606.13,177.93 -605.54,178.85 -604.88,179.73 -604.15,180.54 -603.35,181.29 -602.49,181.96 -601.57,182.56 -600.60,183.07 -599.59,183.50 -597.49,184.13 -595.33,184.49 -593.15,184.61 -590.96,184.54 -588.78,184.32"/>
    </edge>
    <edge id=":61_3" function="internal">
        <lane id=":61_3_0" index="0" disallow="pedestrian tram rail_urban rail rail_electric rail_fast ship" speed="12.15" length="33.62" width="3.50" shape="-608.67,169.63 -608.46,172.10 -608.44,174.63 -608.65,177.18 -609.16,179.73 -610.00,182.19 -610.59,183.42 -611.26,184.57 -612.04,185.67 -612.90,186.70 -613.85,187.64 -614.87,188.50 -615.97,189.29 -618.22,190.56 -620.60,191.54 -623.05,192.27 -626.71,192.96"/>
    </edge>
    <edge id=":61_4" function="internal">
        <lane id=":61_4_0" index="0" disallow="pedestrian tram rail_urban rail rail_electric rail_fast ship" speed="11.15" length="28.13" width="3.50" shape="-627.21,189.50 -624.02,188.90 -621.94,188.28 -619.94,187.46 -618.06,186.39 -617.18,185.76 -616.35,185.06 -615.58,184.30 -614.88,183.47 -614.26,182.58 -613.71,181.65 -613.25,180.67 -612.54,178.63 -612.12,176.50 -611.94,174.34 -611.96,172.18 -612.15,170.04"/>
    </edge>
    <edge id=":61_5" function="internal">
        <lane id=":61_5_0" index="0" disallow="pedestrian tram rail_urban rail rail_electric rail_fast ship" speed="36.11" length="38.78" width="3.50" shape="-627.21,189.50 -607.99,186.91 -588.78,184.32"/>
    </edge>
    <edge id=":62_0" function="internal">
        <lane id=":62_0_0" index="0" disallow="pedestrian tram rail_urban rail rail_electric rail_fast ship" speed="11.67" length="29.05" width="3.50" shape="-493.65,111.10 -495.81,111.64 -498.98,112.72 -500.95,113.62 -502.81,114.70 -504.50,115.98 -505.99,117.45 -507.24,119.12 -508.22,120.95 -508.93,122.92 -509.37,125.00 -509.57,127.15 -509.57,129.33 -509.38,131.55"/>
    </edge>
    <edge id=":62_1" function="internal">
        <lane id=":62_1_0" index="0" disallow="pedestrian tram rail_urban rail rail_electric rail_fast ship" speed="11.94" length="34.68" width="3.50" shape="-493.65,111.10 -496.19,111.57 -498.78,111.83 -501.42,111.85 -504.05,111.54 -505.40,111.23 -506.71,110.82 -507.99,110.28 -509.22,109.63 -510.38,108.86 -511.46,107.99 -512.45,107.02 -513.34,105.97 -514.15,104.84 -515.45,102.53 -516.45,100.08 -517.20,97.56 -517.92,93.82"/>
    </edge>
    <edge id=":62_2" function="internal">
        <lane id=":62_2_0" index="0" disallow="pedestrian tram rail_urban rail rail_electric rail_fast ship" speed="10.93" length="28.83" width="3.50" shape="-514.46,93.30 -513.83,96.57 -513.20,98.69 -512.37,100.75 -511.28,102.68 -510.64,103.59 -509.92,104.43 -509.13,105.21 -508.27,105.91 -507.35,106.52 -506.37,107.05 -505.35,107.48 -504.29,107.81 -503.21,108.06 -501.01,108.32 -498.79,108.31 -496.58,108.09 -494.40,107.69"/>
    </edge>
    <edge id=":62_3" function="internal">
        <lane id=":62_3_0" index="0" disallow="pedestrian tram rail_urban rail rail_electric rail_fast ship" speed="36.11" length="38.59" width="3.50" shape="-514.46,93.30 -513.02,103.62 -509.38,131.55"/>
    </edge>
    <edge id=":62_4" function="internal">
        <lane id=":62_4_0" index="0" disallow="pedestrian tram rail_urban rail rail_electric rail_fast ship" speed="36.11" length="38.49" width="3.50" shape="-512.85,131.97 -516.49,104.09 -517.92,93.82"/>
    </edge>
    <edge id=":62_5" function="internal">
        <lane id=":62_5_0" index="0" disallow="pedestrian tram rail_urban rail rail_electric rail_fast ship" speed="12.64" length="34.27" width="3.50" shape="-512.85,131.97 -513.07,129.43 -513.08,126.89 -512.84,124.36 -512.32,121.88 -511.47,119.49 -510.28,117.24 -508.77,115.21 -506.98,113.41 -504.96,111.88 -502.77,110.59 -500.47,109.53 -496.86,108.30 -494.40,107.69"/>
    </edge>
    <edge id=":63_0" function="internal">
        <lane id=":63_0_0" index="0" disallow="pedestrian tram rail_urban rail rail_electric rail_fast ship" speed="11.05" length="28.79" width="3.50" shape="-623.12,67.96 -623.41,65.66 -623.88,63.42 -624.53,61.27 -625.41,59.24 -626.55,57.36 -627.20,56.56 -627.92,55.78 -628.71,55.09 -629.56,54.46 -630.46,53.92 -631.42,53.46 -632.39,53.08 -634.53,52.52 -636.74,52.25 -638.98,52.21 -642.46,52.51"/>
    </edge>
    <edge id=":63_1" function="internal">
        <lane id=":63_1_0" index="0" disallow="pedestrian tram rail_urban rail rail_electric rail_fast ship" speed="12.34" length="34.40" width="3.50" shape="-623.12,67.96 -623.22,66.69 -623.27,63.02 -623.06,60.50 -622.59,58.00 -621.81,55.54 -620.71,53.22 -619.99,52.08 -619.20,51.03 -618.33,50.04 -617.35,49.11 -615.29,47.56 -613.03,46.31 -610.67,45.36 -608.24,44.67 -604.62,44.03"/>
    </edge>
    <edge id=":63_2" function="internal">
        <lane id=":63_2_0" index="0" disallow="pedestrian tram rail_urban rail rail_electric rail_fast ship" speed="11.35" length="28.93" width="3.50" shape="-604.16,47.50 -607.32,48.06 -609.38,48.65 -611.37,49.45 -613.25,50.48 -614.96,51.78 -615.73,52.52 -616.44,53.33 -617.08,54.19 -617.65,55.09 -618.56,57.03 -619.20,59.08 -619.59,61.18 -619.77,63.32 -619.72,66.54 -619.63,67.60"/>
    </edge>
    <edge id=":63_3" function="internal">
        <lane id=":63_3_0" index="0" disallow="pedestrian tram rail_urban rail rail_electric rail_fast ship" speed="36.11" length="38.63" width="3.50" shape="-604.16,47.50 -635.20,51.51 -642.46,52.51"/>
    </edge>
    <edge id=":63_4" function="internal">
        <lane id=":63_4_0" index="0" disallow="pedestrian tram rail_urban rail rail_electric rail_fast ship" speed="36.11" length="38.65" width="3.50" shape="-642.94,49.05 -635.66,48.05 -604.62,44.03"/>
    </edge>
    <edge id=":63_5" function="internal">
        <lane id=":63_5_0" index="0" disallow="pedestrian tram rail_urban rail rail_electric rail_fast ship" speed="12.06" length="34.51" width="3.50" shape="-642.94,49.04 -638.95,48.70 -636.29,48.75 -633.66,49.07 -631.09,49.74 -629.86,50.21 -628.66,50.79 -627.52,51.47 -626.45,52.26 -625.46,53.14 -624.55,54.10 -623.73,55.14 -622.35,57.40 -621.29,59.84 -620.52,62.37 -619.98,64.97 -619.63,67.60"/>
    </edge>

    <edge id="10095" from="53" to="42" priority="3" type="highway.residential" spreadType="center" length="32.18">
        <lane id="10095_0" index="0" disallow="pedestrian tram rail_urban rail rail_electric rail_fast ship" speed="36.11" length="32.18" width="3.50" customShape="1" shape="-582.92,41.36 -579.00,41.08 -576.38,41.15 -573.78,41.48 -571.24,42.13 -570.01,42.58 -568.82,43.13 -567.68,43.77 -566.59,44.50 -565.57,45.33 -564.63,46.24 -563.77,47.22 -562.28,49.38 -561.10,51.71 -560.20,54.17 -559.53,56.71 -559.40,57.44"/>
    </edge>
    <edge id="8698" from="58" to="60" priority="3" type="highway.residential" spreadType="center" length="0.21" shape="-544.07,171.76 -510.80,173.32">
        <lane id="8698_0" index="0" disallow="pedestrian tram rail_urban rail rail_electric rail_fast ship" speed="36.11" length="0.21" width="3.50" customShape="1" shape="-524.59,175.69 -524.48,175.68 -524.38,175.67"/>
    </edge>
    <edge id="8699" from="60" to="58" priority="3" type="highway.residential" spreadType="center" length="0.22" shape="-510.96,176.81 -544.24,175.26">
        <lane id="8699_0" index="0" disallow="pedestrian tram rail_urban rail rail_electric rail_fast ship" speed="36.11" length="0.22" width="3.50" customShape="1" shape="-523.92,179.13 -524.14,179.16"/>
    </edge>
    <edge id="8701" from="61" to="58" priority="3" type="highway.residential" spreadType="center" length="26.65" shape="-608.93,180.65 -544.39,171.78">
        <lane id="8701_0" index="0" disallow="pedestrian tram rail_urban rail rail_electric rail_fast ship" speed="36.11" length="26.65" width="3.50" customShape="1" shape="-588.78,184.32 -575.59,182.55 -562.37,180.78"/>
    </edge>
    <edge id="8702" from="58" to="61" priority="3" type="highway.residential" spreadType="center" length="26.66" shape="-543.92,175.24 -608.45,184.11">
        <lane id="8702_0" index="0" disallow="pedestrian tram rail_urban rail rail_electric rail_fast ship" speed="36.11" length="26.66" width="3.50" customShape="1" shape="-561.91,184.24 -575.13,186.02 -588.33,187.79"/>
    </edge>
    <edge id="8704" from="51" to="61" priority="3" type="highway.residential" spreadType="center" length="39.04" shape="-665.87,194.71 -609.01,180.66">
        <lane id="8704_0" index="0" disallow="pedestrian tram rail_urban rail rail_electric rail_fast ship" speed="36.11" length="39.04" width="3.50" customShape="1" shape="-665.87,194.71 -646.54,192.10 -627.18,189.49"/>
    </edge>
    <edge id="8705" from="61" to="44" priority="3" type="highway.residential" spreadType="center" length="39.06" shape="-608.17,184.06 -665.42,198.18">
        <lane id="8705_0" index="0" disallow="pedestrian tram rail_urban rail rail_electric rail_fast ship" speed="36.11" length="39.06" width="3.50" customShape="1" shape="-626.71,192.96 -646.07,195.57 -665.42,198.18"/>
    </edge>
    <edge id="8738" from="59" to="57" priority="3" type="highway.residential" spreadType="center" length="24.28" shape="-609.21,123.63 -558.88,118.16">
        <lane id="8738_0" index="0" disallow="pedestrian tram rail_urban rail rail_electric rail_fast ship" speed="36.11" length="24.28" width="3.50" customShape="1" shape="-596.16,122.19 -584.06,121.01 -571.99,119.84"/>
    </edge>
    <edge id="8739" from="57" to="59" priority="3" type="highway.residential" spreadType="center" length="24.27" shape="-558.50,121.64 -608.84,127.10">
        <lane id="8739_0" index="0" disallow="pedestrian tram rail_urban rail rail_electric rail_fast ship" speed="36.11" length="24.27" width="3.50" customShape="1" shape="-571.66,123.32 -583.72,124.49 -595.82,125.67"/>
    </edge>
    <edge id="8746" from="46" to="60" priority="3" type="highway.residential" spreadType="center" length="70.03" shape="-480.80,259.04 -512.62,175.65">
        <lane id="8746_0" index="0" disallow="pedestrian tram rail_urban rail rail_electric rail_fast ship" speed="36.11" length="70.03" width="3.50" customShape="1" shape="-480.80,259.04 -481.89,256.69 -485.41,248.35 -487.04,243.58 -489.85,233.40 -502.28,192.46"/>
    </edge>
    <edge id="8747" from="60" to="25" priority="3" type="highway.residential" spreadType="center" length="70.00" shape="-509.35,174.40 -477.43,257.98">
        <lane id="8747_0" index="0" disallow="pedestrian tram rail_urban rail rail_electric rail_fast ship" speed="36.11" length="70.00" width="3.50" customShape="1" shape="-498.93,191.44 -486.52,232.34 -483.71,242.48 -482.13,247.13 -478.64,255.37 -477.43,257.98"/>
    </edge>
    <edge id="8828" from="48" to="62" priority="3" type="highway.residential" spreadType="center" length="70.00" shape="-425.27,96.14 -506.78,113.29">
        <lane id="8828_0" index="0" disallow="pedestrian tram rail_urban rail rail_electric rail_fast ship" speed="36.11" length="70.00" width="3.50" customShape="1" shape="-425.27,96.14 -427.38,96.60 -493.65,111.11"/>
    </edge>
    <edge id="8829" from="62" to="34" priority="3" type="highway.residential" spreadType="center" length="70.00" shape="-507.51,109.86 -426.02,92.72">
        <lane id="8829_0" index="0" disallow="pedestrian tram rail_urban rail rail_electric rail_fast ship" speed="36.11" length="70.00" width="3.50" customShape="1" shape="-494.40,107.69 -428.13,93.18 -426.02,92.72"/>
    </edge>
    <edge id="8834" from="56" to="63" priority="3" type="highway.residential" spreadType="center" length="7.52" shape="-650.36,50.08 -622.52,53.05">
        <lane id="8834_0" index="0" disallow="pedestrian tram rail_urban rail rail_electric rail_fast ship" speed="36.11" length="7.52" width="3.50" customShape="1" shape="-650.36,50.08 -646.64,49.56 -642.91,49.04"/>
    </edge>
    <edge id="8835" from="63" to="55" priority="3" type="highway.residential" spreadType="center" length="7.49" shape="-622.90,56.52 -649.88,53.54">
        <lane id="8835_0" index="0" disallow="pedestrian tram rail_urban rail rail_electric rail_fast ship" speed="36.11" length="7.49" width="3.50" customShape="1" shape="-642.46,52.51 -646.16,53.03 -649.88,53.54"/>
    </edge>
    <edge id="8922" from="59" to="61" priority="3" type="highway.residential" spreadType="center" length="24.52" shape="-607.22,125.35 -606.89,182.42">
        <lane id="8922_0" index="0" disallow="pedestrian tram rail_urban rail rail_electric rail_fast ship" speed="36.11" length="24.52" width="3.50" customShape="1" shape="-611.60,145.29 -610.14,157.43 -608.67,169.63"/>
    </edge>
    <edge id="8923" from="61" to="59" priority="3" type="highway.residential" spreadType="center" length="24.54" shape="-610.39,182.44 -610.71,125.37">