<routes>
	<vehicle depart="0.1" departLane="0" departPos="37.71541588785832" departSpeed="1.8044618" id="344" type="bus">
		<route edges="14431 14916 17138"/>
	</vehicle>
	<vehicle depart="0.1" departLane="0" departPos="17.638806696868627" departSpeed="0.23988371" id="315" type="passenger">
		<route edges=":90_1 14608"/>
	</vehicle>
	<vehicle depart="0.1" departLane="0" departPos="12.744526771124784" departSpeed="0.96788757" id="319" type="passenger">
		<route edges="14916 17138"/>
	</vehicle>
	<vehicle depart="0.1" departLane="0" departPos="7.901755043883419" departSpeed="1.8860536" id="364" type="passenger">
		<route edges=":90_0 17137 14432"/>
	</vehicle>
	<vehicle depart="0.1" departLane="0" departPos="8.229332610669209" departSpeed="1.7114622" id="367" type="passenger">
		<route edges="14918 17137"/>
	</vehicle>
	<vehicle depart="0.1" departLane="0" departPos="29.104324539993478" departSpeed="2.0521353" id="317" type="truck">
		<route edges="14916 17138"/>
	</vehicle>
</routes>
