<routes>
	<vehicle depart="0.1" departLane="0" departPos="22.097231901102965" departSpeed="5.34106" id="339" type="bicycle">
		<route edges=":7_0 10101 10850"/>
	</vehicle>
	<vehicle depart="0.1" departLane="1" departPos="26.080498010046092" departSpeed="6.6205461" id="349" type="passenger">
		<route edges=":7_0 10101 10850"/>
	</vehicle>
	<vehicle depart="0.1" departLane="2" departPos="5.683336768810113" departSpeed="16.11834" id="355" type="passenger">
		<route edges="10101 10851"/>
	</vehicle>
	<vehicle depart="0.1" departLane="2" departPos="59.47117560247607" departSpeed="16.658498" id="357" type="passenger">
		<route edges="10090 10101 10851"/>
	</vehicle>
	<vehicle depart="0.1" departLane="3" departPos="17.697723014852926" departSpeed="15.028468" id="358" type="passenger">
		<route edges=":7_0 10101 10851"/>
	</vehicle>
	<vehicle depart="0.1" departLane="0" departPos="41.775457646361055" departSpeed="5.5448945" id="346" type="motorcycle">
		<route edges="10101 10850"/>
	</vehicle>
</routes>
