<routes>
	<vehicle depart="0.1" departLane="4" departPos="91.5144415190932" departSpeed="15.1699" id="619" type="passenger">
		<route edges="16"/>
	</vehicle>
	<vehicle depart="0.1" departLane="1" departPos="85.49831621182192" departSpeed="12.1829" id="622" type="passenger">
		<route edges="16"/>
	</vehicle>
	<vehicle depart="0.1" departLane="3" departPos="83.70995826056692" departSpeed="13.7069" id="623" type="passenger">
		<route edges="16"/>
	</vehicle>
	<vehicle depart="0.1" departLane="5" departPos="72.92642874917786" departSpeed="18.16" id="624" type="passenger">
		<route edges="16"/>
	</vehicle>
	<vehicle depart="0.1" departLane="4" departPos="67.36395231406514" departSpeed="15.4534" id="629" type="passenger">
		<route edges="16"/>
	</vehicle>
	<vehicle depart="0.1" departLane="3" departPos="66.8000406276711" departSpeed="15.3528" id="630" type="passenger">
		<route edges="16"/>
	</vehicle>
	<vehicle depart="0.1" departLane="1" departPos="65.98496126365679" departSpeed="12.1158" id="631" type="passenger">
		<route edges="16"/>
	</vehicle>
	<vehicle depart="0.1" departLane="2" departPos="56.60341648605955" departSpeed="14.1976" id="632" type="passenger">
		<route edges="16"/>
	</vehicle>
	<vehicle depart="0.1" departLane="1" departPos="45.883932175704125" departSpeed="12.4694" id="633" type="passenger">
		<route edges="16"/>
	</vehicle>
	<vehicle depart="0.1" departLane="3" departPos="46.91474232464359" departSpeed="15.2126" id="635" type="passenger">
		<route edges="16"/>
	</vehicle>
	<vehicle depart="0.1" departLane="4" departPos="35.3267200463363" departSpeed="15.24" id="636" type="passenger">
		<route edges="16"/>
	</vehicle>
	<vehicle depart="0.1" departLane="2" departPos="26.76354224622018" departSpeed="16.0691" id="639" type="passenger">
		<route edges="16"/>
	</vehicle>
	<vehicle depart="0.1" departLane="1" departPos="20.732360223252527" departSpeed="12.1707" id="641" type="passenger">
		<route edges="16"/>
	</vehicle>
	<vehicle depart="0.1" departLane="4" departPos="75.19570247475335" departSpeed="15.237" id="643" type="passenger">
		<route edges="20 16"/>
	</vehicle>
	<vehicle depart="0.1" departLane="2" departPos="7.902009398556262" departSpeed="13.2131" id="645" type="passenger">
		<route edges="16"/>
	</vehicle>
	<vehicle depart="0.1" departLane="3" departPos="23.79093982080886" departSpeed="12.957" id="646" type="passenger">
		<route edges="16"/>
	</vehicle>
	<vehicle depart="0.1" departLane="3" departPos="65.07528737037835" departSpeed="11.9817" id="648" type="passenger">
		<route edges="20 16"/>
	</vehicle>
	<vehicle depart="0.1" departLane="2" departPos="68.71740700552292" departSpeed="12.4724" id="649" type="passenger">
		<route edges="20 16"/>
	</vehicle>
	<vehicle depart="0.1" departLane="1" departPos="69.00178117729256" departSpeed="12.5639" id="650" type="passenger">
		<route edges="20 16"/>
	</vehicle>
	<vehicle depart="0.1" departLane="0" departPos="60.950402203372306" departSpeed="13.463" id="652" type="passenger">
		<route edges="20 16"/>
	</vehicle>
	<vehicle depart="0.1" departLane="4" departPos="53.3103715552411" departSpeed="13.4142" id="653" type="passenger">
		<route edges="20 16"/>
	</vehicle>
	<vehicle depart="0.1" departLane="1" departPos="41.211642588490584" departSpeed="13.1643" id="658" type="passenger">
		<route edges="20 16"/>
	</vehicle>
	<vehicle depart="0.1" departLane="2" departPos="39.86544121775698" departSpeed="13.3198" id="659" type="passenger">
		<route edges="20 16"/>
	</vehicle>
	<vehicle depart="0.1" departLane="3" departPos="45.07467367209779" departSpeed="12.1829" id="660" type="passenger">
		<route edges="20 16"/>
	</vehicle>
	<vehicle depart="0.1" departLane="4" departPos="28.82464563519976" departSpeed="10.6162" id="661" type="passenger">
		<route edges="20 16"/>
	</vehicle>
	<vehicle depart="0.1" departLane="1" departPos="17.71728323764404" departSpeed="12.131" id="665" type="passenger">
		<route edges="20 16"/>
	</vehicle>
	<vehicle depart="0.1" departLane="2" departPos="13.1948686548781" departSpeed="10.5918" id="667" type="passenger">
		<route edges="20 16"/>
	</vehicle>
	<vehicle depart="0.1" departLane="3" departPos="27.387913474480385" departSpeed="12.189" id="669" type="passenger">
		<route edges="20 16"/>
	</vehicle>
	<vehicle depart="0.1" departLane="3" departPos="0" departSpeed="10.9789" id="671" type="passenger">
		<route edges="20 16"/>
	</vehicle>
	<vehicle depart="0.1" departLane="0" departPos="0" departSpeed="10.665" id="674" type="passenger">
		<route edges="20 16"/>
	</vehicle>
</routes>
