<?xml version="1.0" encoding="UTF-8"?>

<!-- generated on Fri Dec 18 15:55:14 2020 by Eclipse SUMO netconvert Version 1.8.0
<configuration xmlns:xsi="http://www.w3.org/2001/XMLSchema-instance" xsi:noNamespaceSchemaLocation="http://sumo.dlr.de/xsd/netconvertConfiguration.xsd">

    <input>
        <node-files value="./converted_scenarios/NGSIM/US101/USA_US101-21_2_I-1-1/nodes.net.xml"/>
        <edge-files value="./converted_scenarios/NGSIM/US101/USA_US101-21_2_I-1-1/edges.net.xml"/>
        <connection-files value="./converted_scenarios/NGSIM/US101/USA_US101-21_2_I-1-1/_connections.net.xml"/>
        <tllogic-files value="./converted_scenarios/NGSIM/US101/USA_US101-21_2_I-1-1/_tll.net.xml"/>
    </input>

    <output>
        <output-file value="./converted_scenarios/NGSIM/US101/USA_US101-21_2_I-1-1/USA_US101-21_2_I-1-1.net.xml"/>
    </output>

    <processing>
        <plain.extend-edge-shape value="true"/>
        <geometry.remove.keep-edges.explicit value="true"/>
        <geometry.avoid-overlap value="true"/>
        <offset.disable-normalization value="true"/>
    </processing>

    <junctions>
        <no-turnarounds value="true"/>
        <junctions.internal-link-detail value="20"/>
    </junctions>

    <report>
        <aggregate-warnings value="5"/>
    </report>

    <random_number>
        <seed value="1234"/>
    </random_number>

</configuration>
-->

<net version="1.6" junctionCornerDetail="5" junctionLinkDetail="20" limitTurnSpeed="5.50" xmlns:xsi="http://www.w3.org/2001/XMLSchema-instance" xsi:noNamespaceSchemaLocation="http://sumo.dlr.de/xsd/net_file.xsd">

    <location netOffset="0.00,0.00" convBoundary="-30.70,-88.29,108.94,29.81" origBoundary="-30.70,-94.80,114.63,34.74" projParameter="!"/>

    <edge id=":2_0" function="internal">
        <lane id=":2_0_0" index="0" disallow="bus rail_fast" speed="36.11" length="5.45" width="3.68" shape="26.62,-27.86 30.74,-31.44"/>
    </edge>
    <edge id=":2_1" function="internal">
        <lane id=":2_1_0" index="0" disallow="bus truck rail_fast" speed="36.11" length="5.44" width="3.50" shape="29.09,-25.04 33.17,-28.65"/>
        <lane id=":2_1_1" index="1" disallow="bus truck rail_fast" speed="36.11" length="5.44" width="3.22" shape="31.38,-22.41 35.42,-26.06"/>
        <lane id=":2_1_2" index="2" disallow="bus truck rail_fast" speed="36.11" length="5.44" width="3.12" shape="33.57,-19.89 37.63,-23.51"/>
        <lane id=":2_1_3" index="3" disallow="bus truck rail_fast" speed="36.11" length="5.44" width="3.27" shape="35.76,-17.37 39.88,-20.92"/>
        <lane id=":2_1_4" index="4" disallow="bus truck rail_fast" speed="36.11" length="5.44" width="3.48" shape="37.98,-14.82 42.14,-18.33"/>
    </edge>

    <edge id="16" from="2" to="3" priority="1" spreadType="center" length="100.16">
        <lane id="16_0" index="0" disallow="bus rail_fast" speed="36.11" length="100.16" width="3.68" acceleration="1" customShape="1" shape="30.74,-31.44 33.31,-33.67 34.04,-34.31 36.74,-36.69 37.46,-37.34 40.18,-39.72 40.90,-40.37 43.57,-42.68 44.29,-43.33 45.02,-43.96 47.03,-45.70 47.75,-46.35 50.43,-48.71 51.15,-49.36 53.91,-51.76 54.63,-52.40 57.20,-54.63 57.92,-55.27 60.64,-57.61 61.36,-58.25 64.21,-60.76 64.93,-61.41 67.59,-63.76 68.31,-64.41 71.13,-66.83 71.85,-67.48 74.48,-69.78 75.20,-70.43 77.91,-72.79 78.55,-73.37 78.64,-73.44 81.46,-75.83 82.18,-76.47 84.81,-78.83 85.53,-79.47 88.20,-81.79 88.92,-82.43 91.72,-84.88 92.44,-85.53 94.95,-87.69 95.67,-88.33 98.45,-90.76 99.17,-91.40 101.87,-93.67 102.59,-94.31 103.14,-94.80"/>
        <lane id="16_1" index="1" disallow="bus truck rail_fast" speed="36.11" length="100.16" width="3.50" customShape="1" shape="33.17,-28.65 33.76,-29.17 35.60,-30.70 36.26,-31.25 36.37,-31.34 36.96,-31.84 37.15,-32.01 39.24,-33.90 39.96,-34.57 40.05,-34.65 42.61,-36.90 43.30,-37.51 46.02,-39.88 46.69,-40.47 47.22,-40.94 49.49,-42.97 50.13,-43.56 56.29,-48.86 56.96,-49.45 57.06,-49.54 57.97,-50.31 59.70,-51.86 60.42,-52.52 60.93,-52.97 63.08,-54.80 63.74,-55.39 66.62,-57.92 67.31,-58.53 68.97,-59.99 70.08,-61.01 70.79,-61.66 71.95,-62.69 73.54,-64.04 74.19,-64.61 76.89,-66.95 77.55,-67.54 79.95,-69.62 80.36,-69.98 81.09,-70.63 83.03,-72.26 83.92,-73.01 84.59,-73.61 87.18,-75.94 87.93,-76.61 90.65,-78.98 90.80,-79.11 91.31,-79.56 93.86,-81.79 94.19,-82.08 94.90,-82.73 97.40,-84.91 98.09,-85.54 100.88,-88.00 101.60,-88.65 102.55,-89.46 104.28,-90.90 104.94,-91.49 105.40,-91.90 105.58,-92.06"/>
        <lane id="16_2" index="2" disallow="bus truck rail_fast" speed="36.11" length="100.16" width="3.22" customShape="1" shape="35.42,-26.06 35.86,-26.45 36.02,-26.59 39.39,-29.36 41.92,-31.60 42.03,-31.69 42.40,-32.04 45.02,-34.40 49.48,-38.25 52.35,-40.81 52.47,-40.91 53.10,-41.45 53.18,-41.52 56.08,-44.09 60.26,-47.64 63.11,-50.19 63.20,-50.27 64.21,-51.14 67.16,-53.79 71.27,-57.31 74.13,-59.86 74.24,-59.95 75.35,-60.91 78.31,-63.55 82.28,-67.02 85.25,-69.64 86.37,-70.63 89.35,-73.23 93.17,-76.56 96.16,-79.17 97.27,-80.14 100.24,-82.76 104.76,-86.77 107.78,-89.39 107.88,-89.48"/>
        <lane id="16_3" index="3" disallow="bus rail_fast" speed="36.11" length="100.16" width="3.12" customShape="1" shape="37.63,-23.51 39.14,-24.81 42.10,-27.44 44.24,-29.24 47.07,-31.76 47.19,-31.86 50.20,-34.42 53.16,-37.06 55.30,-38.91 58.16,-41.49 58.25,-41.57 61.32,-44.23 64.27,-46.87 66.31,-48.59 69.18,-51.11 69.31,-51.22 72.44,-53.86 75.40,-56.49 77.57,-58.36 80.43,-60.93 83.68,-63.79 86.60,-66.46 88.49,-68.11 91.51,-70.74 94.74,-73.53 97.74,-76.14 99.51,-77.70 102.48,-80.32 105.68,-83.14 108.66,-85.75 110.09,-87.01"/>
        <lane id="16_4" index="4" disallow="bus truck rail_fast" speed="36.11" length="100.16" width="3.27" customShape="1" shape="39.88,-20.92 41.22,-22.08 41.41,-22.25 44.08,-24.74 44.27,-24.91 52.41,-31.85 52.58,-32.00 55.36,-34.59 55.52,-34.74 63.53,-41.61 66.39,-44.28 74.64,-51.33 74.76,-51.44 77.57,-54.06 77.70,-54.17 85.85,-61.17 85.97,-61.28 88.71,-63.83 96.68,-70.75 96.96,-70.99 99.66,-73.35 99.95,-73.60 107.73,-80.47 107.86,-80.58 110.77,-83.11 110.90,-83.22 112.33,-84.50"/>
        <lane id="16_5" index="5" disallow="bus truck rail_fast" speed="36.11" length="100.16" width="3.48" customShape="1" shape="42.14,-18.33 43.48,-19.46 43.71,-19.66 43.83,-19.77 46.44,-22.20 46.80,-22.52 54.87,-29.45 55.11,-29.66 55.21,-29.76 57.82,-32.19 58.19,-32.51 65.82,-38.94 66.06,-39.14 66.18,-39.26 68.79,-41.69 69.13,-41.99 77.03,-48.93 77.28,-49.16 77.36,-49.23 79.97,-51.66 80.33,-51.98 88.09,-58.56 88.33,-58.77 88.45,-58.88 91.06,-61.31 91.40,-61.61 98.92,-68.17 99.30,-68.51 101.90,-70.77 102.29,-71.10 110.06,-77.89 110.44,-78.23 113.04,-80.49 113.38,-80.79 114.65,-81.91"/>
    </edge>
    <edge id="17" from="4" to="2" priority="1" spreadType="center" length="75.95">
        <lane id="17_0" index="0" disallow="rail_fast" speed="36.11" length="75.95" width="3.64" customShape="1" shape="-30.70,19.62 -29.15,18.43 -22.72,13.30 -17.59,9.12 -9.87,2.84 -8.21,1.47 0.34,-5.63 12.18,-15.42 12.50,-15.68 18.36,-20.67 21.82,-23.67 26.62,-27.86"/>
    </edge>
    <edge id="20" from="1" to="2" priority="1" spreadType="center" length="75.20">
        <lane id="20_0" index="0" disallow="bus truck rail_fast" speed="36.11" length="75.20" width="3.50" customShape="1" shape="-25.79,24.86 -23.68,22.89 -20.84,20.12 -16.30,15.88 -12.78,12.63 -9.88,9.94 -2.07,2.82 -1.49,2.29 0.88,0.11 8.18,-6.50 8.98,-7.23 11.90,-9.95 14.96,-12.70 19.78,-16.87 22.72,-19.51 24.27,-20.85 29.09,-25.04"/>
        <lane id="20_1" index="1" disallow="bus truck rail_fast" speed="36.11" length="75.20" width="3.25" customShape="1" shape="-23.42,27.39 -23.34,27.32 -21.29,25.35 -20.55,24.61 -18.55,22.71 -12.55,17.20 -10.40,15.21 -9.64,14.50 -7.52,12.54 -1.86,7.41 0.34,5.39 1.03,4.75 3.21,2.76 9.34,-2.76 11.41,-4.66 12.24,-5.42 14.27,-7.28 20.10,-12.40 22.13,-14.23 22.99,-15.03 24.98,-16.83 31.10,-22.16 31.38,-22.41"/>
        <lane id="20_2" index="2" disallow="bus truck rail_fast" speed="36.11" length="75.20" width="3.19" customShape="1" shape="-21.15,29.81 -18.29,27.06 -16.03,24.98 -13.17,22.25 -10.30,19.66 -7.40,16.99 -4.79,14.62 -1.87,11.94 0.37,9.89 3.28,7.22 6.00,4.76 8.93,2.09 11.57,-0.28 14.47,-2.93 17.04,-5.22 19.97,-7.89 22.23,-9.86 25.16,-12.46 27.92,-14.84 30.86,-17.50 33.30,-19.64 33.57,-19.89"/>
        <lane id="20_3" index="3" disallow="bus rail_fast" speed="36.11" length="75.20" width="3.21" customShape="1" shape="-18.88,32.23 -13.75,27.45 -10.95,24.75 -10.77,24.58 -2.78,17.33 -2.51,17.08 0.10,14.65 0.36,14.40 8.07,7.37 8.24,7.21 10.95,4.68 11.09,4.56 19.10,-2.61 19.27,-2.77 21.97,-5.28 22.09,-5.39 30.13,-12.32 30.22,-12.39 33.07,-15.05 33.19,-15.16 35.76,-17.37"/>
        <lane id="20_4" index="4" disallow="rail_fast" speed="36.11" length="75.20" width="3.48" customShape="1" shape="-16.52,34.74 -11.30,29.85 -11.02,29.58 -8.41,27.15 -8.11,26.87 -0.46,19.88 -0.17,19.61 2.45,17.17 2.75,16.89 10.38,9.89 10.67,9.63 13.29,7.18 13.61,6.89 21.38,-0.05 21.68,-0.32 24.31,-2.77 24.65,-3.08 32.50,-9.94 32.79,-10.20 35.44,-12.67 35.81,-12.99 37.98,-14.82"/>
    </edge>

    <junction id="1" type="dead_end" x="-21.15" y="29.81" incLanes="" intLanes="" shape="-15.33,36.01 -26.99,23.58"/>
    <junction id="2" type="priority" x="34.69" y="-20.90" incLanes="17_0 20_0 20_1 20_2 20_3 20_4" intLanes=":2_0_0 :2_1_0 :2_1_1 :2_1_2 :2_1_3 :2_1_4" shape="43.28,-17.01 29.53,-32.83 25.43,-29.24 27.82,-26.49 27.94,-26.36 39.12,-13.51">
        <request index="0" response="000000" foes="000000" cont="0"/>
        <request index="1" response="000000" foes="000000" cont="0"/>
        <request index="2" response="000000" foes="000000" cont="0"/>
        <request index="3" response="000000" foes="000000" cont="0"/>
        <request index="4" response="000000" foes="000000" cont="0"/>
        <request index="5" response="000000" foes="000000" cont="0"/>
    </junction>
    <junction id="3" type="dead_end" x="108.94" y="-88.29" incLanes="16_0 16_1 16_2 16_3 16_4 16_5" intLanes="" shape="101.89,-96.16 115.81,-80.62"/>
    <junction id="4" type="dead_end" x="-30.70" y="19.62" incLanes="" intLanes="" shape="-29.59,21.07 -31.81,18.18"/>

    <connection from="17" to="16" fromLane="0" toLane="0" contPos="-4.00" via=":2_0_0" dir="s" state="M"/>
    <connection from="20" to="16" fromLane="0" toLane="1" contPos="-4.00" via=":2_1_0" dir="s" state="M"/>
    <connection from="20" to="16" fromLane="1" toLane="2" contPos="-4.00" via=":2_1_1" dir="s" state="M"/>
    <connection from="20" to="16" fromLane="2" toLane="3" contPos="-4.00" via=":2_1_2" dir="s" state="M"/>
    <connection from="20" to="16" fromLane="3" toLane="4" contPos="-4.00" via=":2_1_3" dir="s" state="M"/>
    <connection from="20" to="16" fromLane="4" toLane="5" contPos="-4.00" via=":2_1_4" dir="s" state="M"/>

    <connection from=":2_0" to="16" fromLane="0" toLane="0" dir="s" state="M"/>
    <connection from=":2_1" to="16" fromLane="0" toLane="1" dir="s" state="M"/>
    <connection from=":2_1" to="16" fromLane="1" toLane="2" dir="s" state="M"/>
    <connection from=":2_1" to="16" fromLane="2" toLane="3" dir="s" state="M"/>
    <connection from=":2_1" to="16" fromLane="3" toLane="4" dir="s" state="M"/>
    <connection from=":2_1" to="16" fromLane="4" toLane="5" dir="s" state="M"/>

</net>
