<!-- generated on Tue Feb  9 22:19:51 2021 by Eclipse SUMO netconvert Version 1.8.0
<configuration xmlns:xsi="http://www.w3.org/2001/XMLSchema-instance" xsi:noNamespaceSchemaLocation="http://sumo.dlr.de/xsd/netconvertConfiguration.xsd">

    <input>
        <node-files value="./converted_scenarios/scenario-factory/DEU_Muehlhausen-10_5_I-1-1/DEU_Muehlhausen-10_5_I-1-1.nod.xml"/>
        <edge-files value="./converted_scenarios/scenario-factory/DEU_Muehlhausen-10_5_I-1-1/DEU_Muehlhausen-10_5_I-1-1.edg.xml"/>
        <connection-files value="./converted_scenarios/scenario-factory/DEU_Muehlhausen-10_5_I-1-1/DEU_Muehlhausen-10_5_I-1-1.con.xml"/>
        <tllogic-files value="./converted_scenarios/scenario-factory/DEU_Muehlhausen-10_5_I-1-1/DEU_Muehlhausen-10_5_I-1-1.tll.xml"/>
        <type-files value="/home/zen/commonroad-interactive-benchmarks/install/commonroad-map-tool/crmapconverter/sumo_map/templates/DEU.typ.xml"/>
    </input>

    <output>
        <output-file value="./converted_scenarios/scenario-factory/DEU_Muehlhausen-10_5_I-1-1/DEU_Muehlhausen-10_5_I-1-1.net.xml"/>
    </output>

    <processing>
        <geometry.remove.keep-edges.explicit value="true"/>
        <geometry.avoid-overlap value="true"/>
        <offset.disable-normalization value="true"/>
    </processing>

    <junctions>
        <no-turnarounds value="true"/>
        <junctions.internal-link-detail value="20"/>
    </junctions>

    <report>
        <aggregate-warnings value="5"/>
    </report>

    <random_number>
        <seed value="1234"/>
    </random_number>

</configuration>
--><net xmlns:xsi="http://www.w3.org/2001/XMLSchema-instance" version="1.6" junctionCornerDetail="5" junctionLinkDetail="20" limitTurnSpeed="5.50" xsi:noNamespaceSchemaLocation="http://sumo.dlr.de/xsd/net_file.xsd">

    <location netOffset="0.00,0.00" convBoundary="-581.64,62.93,-404.44,362.72" origBoundary="-581.64,62.93,-404.44,362.72" projParameter="!"/>

    <type id="highway.bridleway" priority="1" speed="2.78" allow="pedestrian" oneway="1" width="2.00"/>
    <type id="highway.bus_guideway" priority="1" speed="27.78" allow="bus" oneway="1"/>
    <type id="highway.cycleway" priority="1" speed="8.33" allow="bicycle" oneway="0" width="1.00"/>
    <type id="highway.footway" priority="1" speed="2.78" allow="pedestrian" oneway="1" width="2.00"/>
    <type id="highway.ford" priority="1" speed="2.78" allow="army" oneway="0"/>
    <type id="highway.living_street" priority="2" speed="2.78" disallow="tram rail_urban rail rail_electric rail_fast ship" oneway="0"/>
    <type id="highway.motorway" priority="14" speed="39.44" allow="private emergency authority army vip passenger hov taxi bus coach delivery truck trailer motorcycle evehicle custom1 custom2" oneway="1"/>
    <type id="highway.motorway_link" priority="9" speed="22.22" allow="private emergency authority army vip passenger hov taxi bus coach delivery truck trailer motorcycle evehicle custom1 custom2" oneway="1"/>
    <type id="highway.path" priority="1" speed="2.78" allow="pedestrian bicycle" oneway="0" width="2.00"/>
    <type id="highway.pedestrian" priority="1" speed="2.78" allow="pedestrian" oneway="1" width="2.00"/>
    <type id="highway.primary" priority="12" speed="27.78" disallow="pedestrian tram rail_urban rail rail_electric rail_fast ship" oneway="0"/>
    <type id="highway.primary_link" priority="7" speed="22.22" disallow="pedestrian tram rail_urban rail rail_electric rail_fast ship" oneway="0"/>
    <type id="highway.raceway" priority="15" speed="83.33" allow="vip" oneway="0"/>
    <type id="highway.residential" priority="3" speed="13.89" disallow="pedestrian tram rail_urban rail rail_electric rail_fast ship" oneway="0"/>
    <type id="highway.secondary" priority="11" speed="27.78" disallow="pedestrian tram rail_urban rail rail_electric rail_fast ship" oneway="0"/>
    <type id="highway.secondary_link" priority="6" speed="22.22" disallow="pedestrian tram rail_urban rail rail_electric rail_fast ship" oneway="0"/>
    <type id="highway.service" priority="1" speed="5.56" allow="pedestrian delivery bicycle" oneway="0"/>
    <type id="highway.stairs" priority="1" speed="1.39" allow="pedestrian" oneway="1" width="2.00"/>
    <type id="highway.step" priority="1" speed="1.39" allow="pedestrian" oneway="1" width="2.00"/>
    <type id="highway.steps" priority="1" speed="1.39" allow="pedestrian" oneway="1" width="2.00"/>
    <type id="highway.tertiary" priority="10" speed="22.22" disallow="pedestrian tram rail_urban rail rail_electric rail_fast ship" oneway="0"/>
    <type id="highway.tertiary_link" priority="5" speed="22.22" disallow="pedestrian tram rail_urban rail rail_electric rail_fast ship" oneway="0"/>
    <type id="highway.track" priority="1" speed="5.56" allow="pedestrian motorcycle moped bicycle" oneway="0"/>
    <type id="highway.trunk" priority="13" speed="27.78" disallow="pedestrian bicycle tram rail_urban rail rail_electric rail_fast ship" oneway="0"/>
    <type id="highway.trunk_link" priority="8" speed="22.22" disallow="pedestrian bicycle tram rail_urban rail rail_electric rail_fast ship" oneway="0"/>
    <type id="highway.unclassified" priority="4" speed="13.89" disallow="pedestrian tram rail_urban rail rail_electric rail_fast ship" oneway="0"/>
    <type id="highway.unsurfaced" priority="1" speed="8.33" disallow="tram rail_urban rail rail_electric rail_fast ship" oneway="0"/>
    <type id="railway.highspeed" priority="21" speed="69.44" allow="rail_fast" oneway="1"/>
    <type id="railway.light_rail" priority="19" speed="27.78" allow="rail_urban" oneway="1"/>
    <type id="railway.preserved" priority="16" speed="27.78" allow="rail" oneway="1"/>
    <type id="railway.rail" priority="20" speed="44.44" allow="rail" oneway="1"/>
    <type id="railway.subway" priority="18" speed="27.78" allow="rail_urban" oneway="1"/>
    <type id="railway.tram" priority="17" speed="13.89" allow="tram" oneway="1"/>

    <edge id=":33_0" function="internal">
        <lane id=":33_0_0" index="0" disallow="pedestrian tram rail_urban rail rail_electric rail_fast ship" speed="11.16" length="29.25" width="3.50" shape="-491.10,173.00 -491.80,169.56 -492.49,167.38 -493.38,165.30 -494.53,163.37 -495.18,162.52 -495.90,161.72 -496.69,160.99 -497.54,160.33 -498.44,159.76 -499.40,159.27 -500.41,158.86 -501.42,158.54 -503.64,158.10 -505.90,157.95 -508.18,158.03 -511.69,158.51"/>
    </edge>
    <edge id=":33_1" function="internal">
        <lane id=":33_1_0" index="0" disallow="pedestrian tram rail_urban rail rail_electric rail_fast ship" speed="36.11" length="40.63" width="3.50" shape="-491.10,173.00 -492.02,166.82 -496.83,132.78"/>
    </edge>
    <edge id=":33_2" function="internal">
        <lane id=":33_2_0" index="0" disallow="pedestrian tram rail_urban rail rail_electric rail_fast ship" speed="13.34" length="36.67" width="3.50" shape="-491.10,173.00 -491.47,169.31 -491.47,166.79 -491.25,164.27 -490.76,161.77 -489.98,159.32 -488.89,156.98 -487.49,154.80 -485.82,152.83 -483.94,151.09 -481.90,149.58 -479.72,148.28 -476.35,146.72 -472.87,145.51"/>
    </edge>
    <edge id=":33_3" function="internal">
        <lane id=":33_3_0" index="0" disallow="pedestrian tram rail_urban rail rail_electric rail_fast ship" speed="12.42" length="31.63" width="3.50" shape="-471.86,148.86 -474.95,149.93 -477.92,151.31 -479.79,152.42 -481.55,153.71 -483.16,155.19 -484.57,156.85 -485.75,158.68 -486.68,160.66 -487.35,162.73 -487.77,164.87 -487.97,167.05 -487.96,169.23 -487.64,172.49"/>
    </edge>
    <edge id=":33_4" function="internal">
        <lane id=":33_4_0" index="0" disallow="pedestrian tram rail_urban rail rail_electric rail_fast ship" speed="36.11" length="41.00" width="3.50" shape="-471.86,148.86 -482.98,152.00 -494.19,154.81 -506.51,157.50 -511.69,158.51"/>
    </edge>
    <edge id=":33_5" function="internal">
        <lane id=":33_5_0" index="0" disallow="pedestrian tram rail_urban rail rail_electric rail_fast ship" speed="11.71" length="35.31" width="3.50" shape="-471.86,148.86 -474.37,149.53 -476.96,150.01 -479.62,150.25 -482.30,150.18 -483.70,149.99 -485.06,149.68 -486.41,149.25 -487.71,148.68 -488.95,147.97 -490.11,147.13 -491.17,146.19 -492.12,145.15 -492.96,144.03 -493.70,142.86 -494.35,141.63 -495.36,139.17 -496.11,136.61 -496.83,132.78"/>
    </edge>
    <edge id=":33_6" function="internal">
        <lane id=":33_6_0" index="0" disallow="pedestrian tram rail_urban rail rail_electric rail_fast ship" speed="10.67" length="29.12" width="3.50" shape="-493.36,132.30 -492.75,135.61 -492.12,137.76 -491.26,139.83 -490.74,140.82 -490.14,141.77 -489.46,142.66 -488.71,143.49 -487.87,144.24 -486.97,144.89 -485.99,145.44 -484.97,145.89 -483.90,146.24 -482.81,146.48 -481.70,146.63 -479.46,146.70 -477.22,146.49 -475.02,146.08 -472.87,145.51"/>
    </edge>
    <edge id=":33_7" function="internal">
        <lane id=":33_7_0" index="0" disallow="pedestrian tram rail_urban rail rail_electric rail_fast ship" speed="36.11" length="40.60" width="3.50" shape="-493.36,132.30 -488.56,166.31 -487.64,172.49"/>
    </edge>
    <edge id=":33_8" function="internal">
        <lane id=":33_8_0" index="0" disallow="pedestrian tram rail_urban rail rail_electric rail_fast ship" speed="12.77" length="36.26" width="3.50" shape="-493.36,132.30 -493.02,136.17 -493.02,138.76 -493.24,141.34 -493.73,143.88 -494.52,146.35 -495.63,148.68 -496.32,149.78 -497.09,150.82 -498.86,152.71 -500.88,154.33 -503.10,155.66 -505.45,156.74 -507.89,157.59 -511.69,158.51"/>
    </edge>
    <edge id=":33_9" function="internal">
        <lane id=":33_9_0" index="0" disallow="pedestrian tram rail_urban rail rail_electric rail_fast ship" speed="11.81" length="30.87" width="3.50" shape="-512.34,155.07 -509.00,154.26 -506.90,153.53 -504.89,152.61 -503.02,151.48 -501.34,150.14 -499.87,148.55 -499.26,147.72 -498.71,146.85 -497.77,144.88 -497.12,142.82 -496.71,140.66 -496.52,138.44 -496.52,136.19 -496.83,132.78"/>
    </edge>
    <edge id=":33_10" function="internal">
        <lane id=":33_10_0" index="0" disallow="pedestrian tram rail_urban rail rail_electric rail_fast ship" speed="36.11" length="40.63" width="3.50" shape="-512.34,155.07 -507.21,154.07 -494.99,151.40 -483.88,148.62 -472.87,145.51"/>
    </edge>
    <edge id=":33_11" function="internal">
        <lane id=":33_11_0" index="0" disallow="pedestrian tram rail_urban rail rail_electric rail_fast ship" speed="12.17" length="34.99" width="3.50" shape="-512.34,155.07 -508.32,154.52 -505.63,154.43 -502.95,154.61 -500.31,155.13 -499.03,155.53 -497.78,156.04 -496.59,156.66 -495.45,157.38 -494.39,158.20 -493.40,159.12 -492.50,160.12 -491.69,161.19 -490.32,163.50 -489.25,165.97 -488.45,168.53 -487.64,172.49"/>
    </edge>
    <edge id=":34_0" function="internal">
        <lane id=":34_0_0" index="0" disallow="pedestrian tram rail_urban rail rail_electric rail_fast ship" speed="11.57" length="29.47" width="3.50" shape="-473.58,293.44 -474.25,290.09 -474.91,288.00 -475.77,286.00 -476.85,284.14 -478.19,282.46 -478.92,281.75 -479.72,281.07 -480.54,280.47 -482.42,279.42 -484.42,278.66 -486.53,278.15 -488.72,277.86 -490.94,277.76 -494.34,277.91"/>
    </edge>
    <edge id=":34_1" function="internal">
        <lane id=":34_1_0" index="0" disallow="pedestrian tram rail_urban rail rail_electric rail_fast ship" speed="36.11" length="38.81" width="3.50" shape="-473.58,293.44 -476.35,274.22 -479.12,255.03"/>
    </edge>
    <edge id=":34_2" function="internal">
        <lane id=":34_2_0" index="0" disallow="pedestrian tram rail_urban rail rail_electric rail_fast ship" speed="36.11" length="38.77" width="3.50" shape="-475.65,254.54 -472.89,273.72 -470.13,292.91"/>
    </edge>
    <edge id=":34_3" function="internal">
        <lane id=":34_3_0" index="0" disallow="pedestrian tram rail_urban rail rail_electric rail_fast ship" speed="12.04" length="34.63" width="3.50" shape="-475.65,254.54 -475.31,258.37 -475.35,261.00 -475.67,263.64 -476.33,266.21 -476.82,267.52 -477.42,268.76 -478.14,269.95 -478.96,271.06 -479.88,272.10 -480.89,273.04 -481.97,273.89 -483.14,274.65 -485.50,275.85 -487.99,276.74 -490.54,277.37 -494.34,277.91"/>
    </edge>
    <edge id=":34_4" function="internal">
        <lane id=":34_4_0" index="0" disallow="pedestrian tram rail_urban rail rail_electric rail_fast ship" speed="11.03" length="28.87" width="3.50" shape="-494.67,274.43 -491.37,273.96 -489.22,273.43 -487.12,272.68 -485.14,271.68 -484.21,271.07 -483.34,270.39 -482.52,269.63 -481.79,268.80 -481.13,267.91 -480.55,266.96 -480.07,265.96 -479.67,264.92 -479.12,262.77 -478.85,260.57 -478.82,258.35 -479.12,255.03"/>
    </edge>
    <edge id=":34_5" function="internal">
        <lane id=":34_5_0" index="0" disallow="pedestrian tram rail_urban rail rail_electric rail_fast ship" speed="12.54" length="34.83" width="3.50" shape="-494.67,274.43 -490.80,274.25 -488.22,274.37 -485.67,274.72 -483.16,275.33 -480.75,276.26 -478.51,277.52 -477.46,278.27 -476.48,279.11 -475.57,280.03 -473.97,282.05 -472.67,284.28 -471.65,286.65 -470.89,289.11 -470.13,292.91"/>
    </edge>
    <edge id=":35_0" function="internal">
        <lane id=":35_0_0" index="0" disallow="pedestrian tram rail_urban rail rail_electric rail_fast ship" speed="10.95" length="28.95" width="3.50" shape="-482.62,230.56 -483.29,227.10 -483.94,224.92 -484.80,222.85 -485.91,220.90 -486.53,220.05 -487.23,219.24 -487.99,218.50 -488.82,217.84 -489.70,217.26 -490.64,216.77 -491.62,216.36 -492.62,216.04 -494.80,215.61 -497.03,215.49 -499.29,215.60 -502.73,216.13"/>
    </edge>
    <edge id=":35_1" function="internal">
        <lane id=":35_1_0" index="0" disallow="pedestrian tram rail_urban rail rail_electric rail_fast ship" speed="36.11" length="38.60" width="3.50" shape="-482.62,230.56 -485.42,211.45 -488.21,192.37"/>
    </edge>
    <edge id=":35_2" function="internal">
        <lane id=":35_2_0" index="0" disallow="pedestrian tram rail_urban rail rail_electric rail_fast ship" speed="36.11" length="38.60" width="3.50" shape="-484.75,191.85 -481.96,210.94 -479.16,230.04"/>
    </edge>
    <edge id=":35_3" function="internal">
        <lane id=":35_3_0" index="0" disallow="pedestrian tram rail_urban rail rail_electric rail_fast ship" speed="12.49" length="34.13" width="3.50" shape="-484.75,191.85 -484.47,194.40 -484.40,196.98 -484.61,199.60 -485.13,202.20 -486.02,204.69 -486.63,205.94 -487.33,207.10 -488.12,208.20 -489.00,209.23 -489.97,210.20 -492.03,211.84 -494.28,213.21 -496.63,214.31 -499.06,215.18 -502.73,216.13"/>
    </edge>
    <edge id=":35_4" function="internal">
        <lane id=":35_4_0" index="0" disallow="pedestrian tram rail_urban rail rail_electric rail_fast ship" speed="11.51" length="28.80" width="3.50" shape="-503.48,212.72 -500.24,211.88 -498.15,211.13 -496.15,210.20 -494.25,209.06 -492.52,207.68 -491.73,206.90 -491.01,206.07 -490.36,205.17 -489.78,204.23 -489.29,203.24 -488.53,201.16 -488.09,198.99 -487.91,196.78 -487.97,194.57 -488.21,192.37"/>
    </edge>
    <edge id=":35_5" function="internal">
        <lane id=":35_5_0" index="0" disallow="pedestrian tram rail_urban rail rail_electric rail_fast ship" speed="11.97" length="34.79" width="3.50" shape="-503.48,212.71 -499.49,212.10 -496.82,211.96 -494.15,212.11 -491.52,212.62 -490.25,213.02 -489.02,213.53 -487.83,214.16 -486.71,214.89 -485.67,215.72 -484.71,216.65 -483.83,217.66 -483.04,218.74 -481.72,221.06 -480.70,223.54 -479.93,226.10 -479.16,230.04"/>
    </edge>

    <edge id="4498" from="34" to="26" priority="3" type="highway.residential" spreadType="center" length="70.00" shape="-479.55,274.30 -460.08,362.18">
        <lane id="4498_0" index="0" disallow="pedestrian tram rail_urban rail rail_electric rail_fast ship" speed="36.11" length="70.00" width="3.50" customShape="1" shape="-470.13,292.91 -460.76,357.39 -460.08,362.18"/>
    </edge>
    <edge id="4499" from="32" to="34" priority="3" type="highway.residential" spreadType="center" length="70.03" shape="-463.54,362.72 -482.96,275.06">
        <lane id="4499_0" index="0" disallow="pedestrian tram rail_urban rail rail_electric rail_fast ship" speed="36.11" length="70.03" width="3.50" customShape="1" shape="-463.54,362.72 -464.22,357.91 -473.59,293.41"/>
    </edge>
    <edge id="4501" from="35" to="34" priority="3" type="highway.residential" spreadType="center" length="24.78" shape="-488.43,211.99 -479.52,274.47">
        <lane id="4501_0" index="0" disallow="pedestrian tram rail_urban rail rail_electric rail_fast ship" speed="36.11" length="24.78" width="3.50" customShape="1" shape="-479.16,230.04 -477.41,242.28 -475.65,254.57"/>
    </edge>
    <edge id="4502" from="34" to="35" priority="3" type="highway.residential" spreadType="center" length="24.75" shape="-482.98,274.96 -491.89,212.48">
        <lane id="4502_0" index="0" disallow="pedestrian tram rail_urban rail rail_electric rail_fast ship" speed="36.11" length="24.75" width="3.50" customShape="1" shape="-479.12,255.03 -480.87,242.78 -482.63,230.53"/>
    </edge>
    <edge id="4504" from="33" to="35" priority="3" type="highway.residential" spreadType="center" length="19.59" shape="-490.47,152.26 -488.41,212.27">
        <lane id="4504_0" index="0" disallow="pedestrian tram rail_urban rail rail_electric rail_fast ship" speed="36.11" length="19.59" width="3.50" customShape="1" shape="-487.64,172.49 -486.20,182.17 -484.75,191.87"/>
    </edge>
    <edge id="4505" from="35" to="33" priority="3" type="highway.residential" spreadType="center" length="19.58" shape="-491.90,212.39 -493.96,152.38">
        <lane id="4505_0" index="0" disallow="pedestrian tram rail_urban rail rail_electric rail_fast ship" speed="36.11" length="19.58" width="3.50" customShape="1" shape="-488.21,192.37 -489.66,182.69 -491.10,173.00"/>
    </edge>
    <edge id="4507" from="31" to="33" priority="3" type="highway.residential" spreadType="center" length="70.01" shape="-502.73,62.93 -490.48,152.11">
        <lane id="4507_0" index="0" disallow="pedestrian tram rail_urban rail rail_electric rail_fast ship" speed="36.11" length="70.01" width="3.50" customShape="1" shape="-502.73,62.93 -493.36,132.31"/>
    </edge>
    <edge id="4508" from="33" to="20" priority="3" type="highway.residential" spreadType="center" length="70.00" shape="-493.94,152.59 -506.20,63.41">
        <lane id="4508_0" index="0" disallow="pedestrian tram rail_urban rail rail_electric rail_fast ship" speed="36.11" length="70.00" width="3.50" customShape="1" shape="-496.83,132.78 -506.20,63.41"/>
    </edge>
    <edge id="4624" from="33" to="18" priority="3" type="highway.residential" spreadType="center" length="70.01" shape="-491.91,154.04 -580.99,168.19">
        <lane id="4624_0" index="0" disallow="pedestrian tram rail_urban rail rail_electric rail_fast ship" speed="36.11" length="70.01" width="3.50" customShape="1" shape="-511.69,158.51 -523.50,160.69 -538.82,163.27 -549.25,164.71 -572.18,167.10 -580.99,168.19"/>
    </edge>
    <edge id="4625" from="28" to="33" priority="3" type="highway.residential" spreadType="center" length="70.02" shape="-581.64,164.75 -492.46,150.58">
        <lane id="4625_0" index="0" disallow="pedestrian tram rail_urban rail rail_electric rail_fast ship" speed="36.11" length="70.02" width="3.50" customShape="1" shape="-581.64,164.75 -572.73,163.64 -549.80,161.25 -539.42,159.82 -524.13,157.25 -512.33,155.07"/>
    </edge>
    <edge id="4627" from="29" to="33" priority="3" type="highway.residential" spreadType="center" length="70.00" shape="-404.44,130.20 -491.79,154.01">
        <lane id="4627_0" index="0" disallow="pedestrian tram rail_urban rail rail_electric rail_fast ship" speed="36.11" length="70.00" width="3.50" customShape="1" shape="-404.44,130.20 -410.45,131.47 -424.64,134.83 -434.34,137.45 -450.20,142.33 -471.87,148.87"/>
    </edge>
    <edge id="4628" from="33" to="19" priority="3" type="highway.residential" spreadType="center" length="70.00" shape="-492.71,150.64 -405.44,126.83">
        <lane id="4628_0" index="0" disallow="pedestrian tram rail_urban rail rail_electric rail_fast ship" speed="36.11" length="70.00" width="3.50" customShape="1" shape="-472.87,145.51 -451.17,138.96 -435.26,134.08 -425.49,131.43 -411.23,128.05 -405.44,126.83"/>
    </edge>
    <edge id="4725" from="34" to="27" priority="3" type="highway.residential" spreadType="center" length="70.01" shape="-481.05,276.45 -564.05,284.35">
        <lane id="4725_0" index="0" disallow="pedestrian tram rail_urban rail rail_electric rail_fast ship" speed="36.11" length="70.01" width="3.50" customShape="1" shape="-494.34,277.91 -557.48,283.74 -564.05,284.35"/>
    </edge>
    <edge id="4726" from="30" to="34" priority="3" type="highway.residential" spreadType="center" length="70.00" shape="-564.37,280.86 -481.38,272.97">
        <lane id="4726_0" index="0" disallow="pedestrian tram rail_urban rail rail_electric rail_fast ship" speed="36.11" length="70.00" width="3.50" customShape="1" shape="-564.37,280.86 -557.80,280.25 -494.67,274.43"/>
    </edge>
    <edge id="4874" from="14" to="35" priority="3" type="highway.residential" spreadType="center" length="70.01" shape="-571.70,228.29 -490.49,210.57">
        <lane id="4874_0" index="0" disallow="pedestrian tram rail_urban rail rail_electric rail_fast ship" speed="36.11" length="70.01" width="3.50" customShape="1" shape="-571.70,228.29 -524.61,217.35 -503.45,212.71"/>
    </edge>
    <edge id="4875" from="35" to="3" priority="3" type="highway.residential" spreadType="center" length="70.01" shape="-489.75,213.98 -570.98,231.72">
        <lane id="4875_0" index="0" disallow="pedestrian tram rail_urban rail rail_electric rail_fast ship" speed="36.11" length="70.01" width="3.50" customShape="1" shape="-502.73,216.13 -523.86,220.77 -570.98,231.72"/>
    </edge>

    <junction id="14" type="dead_end" x="-571.70" y="228.29" incLanes="" intLanes="" shape="-571.30,230.00 -572.09,226.59" rightOfWay="edgePriority"/>
    <junction id="18" type="dead_end" x="-580.99" y="168.19" incLanes="4624_0" intLanes="" shape="-580.77,169.93 -581.20,166.46" rightOfWay="edgePriority"/>
    <junction id="19" type="dead_end" x="-405.44" y="126.83" incLanes="4628_0" intLanes="" shape="-405.80,125.12 -405.08,128.54" rightOfWay="edgePriority"/>
    <junction id="20" type="dead_end" x="-506.20" y="63.41" incLanes="4508_0" intLanes="" shape="-507.93,63.64 -504.46,63.17" rightOfWay="edgePriority"/>
    <junction id="26" type="dead_end" x="-460.08" y="362.18" incLanes="4498_0" intLanes="" shape="-458.35,361.94 -461.81,362.43" rightOfWay="edgePriority"/>
    <junction id="27" type="dead_end" x="-564.05" y="284.35" incLanes="4725_0" intLanes="" shape="-563.89,286.09 -564.21,282.60" rightOfWay="edgePriority"/>
    <junction id="28" type="dead_end" x="-581.64" y="164.75" incLanes="" intLanes="" shape="-581.42,166.49 -581.85,163.01" rightOfWay="edgePriority"/>
    <junction id="29" type="dead_end" x="-404.44" y="130.20" incLanes="" intLanes="" shape="-404.80,128.49 -404.08,131.91" rightOfWay="edgePriority"/>
    <junction id="3" type="dead_end" x="-570.98" y="231.72" incLanes="4875_0" intLanes="" shape="-570.58,233.42 -571.37,230.01" rightOfWay="edgePriority"/>
    <junction id="30" type="dead_end" x="-564.37" y="280.86" incLanes="" intLanes="" shape="-564.21,282.60 -564.53,279.12" rightOfWay="edgePriority"/>
    <junction id="31" type="dead_end" x="-502.73" y="62.93" incLanes="" intLanes="" shape="-504.46,63.17 -501.00,62.70" rightOfWay="edgePriority"/>
    <junction id="32" type="dead_end" x="-463.54" y="362.72" incLanes="" intLanes="" shape="-461.80,362.47 -465.27,362.96" rightOfWay="edgePriority"/>
    <junction id="33" type="priority" x="-492.21" y="152.32" incLanes="4505_0 4627_0 4507_0 4625_0" intLanes=":33_0_0 :33_1_0 :33_2_0 :33_3_0 :33_4_0 :33_5_0 :33_6_0 :33_7_0 :33_8_0 :33_9_0 :33_10_0 :33_11_0" shape="-492.84,173.26 -485.91,172.23 -486.20,167.03 -485.40,162.46 -483.51,158.53 -480.54,155.23 -476.49,152.57 -471.35,150.54 -473.37,143.84 -478.33,144.86 -482.52,144.68 -485.94,143.32 -488.60,140.76 -490.50,137.01 -491.63,132.08 -498.56,133.01 -498.31,138.38 -499.09,142.96 -500.92,146.75 -503.79,149.74 -507.70,151.94 -512.65,153.35 -511.38,160.23 -506.38,159.76 -502.14,160.35 -498.67,161.99 -495.96,164.69 -494.01,168.45">
        <request index="0" response="000000000000" foes="000100010000" cont="0"/>
        <request index="1" response="000000000000" foes="111100110000" cont="0"/>
        <request index="2" response="000011000000" foes="110011110000" cont="0"/>
        <request index="3" response="000010000000" foes="100010000000" cont="0"/>
        <request index="4" response="000110000111" foes="100110000111" cont="0"/>
        <request index="5" response="011110000110" foes="011110000110" cont="0"/>
        <request index="6" response="000000000000" foes="010000000100" cont="0"/>
        <request index="7" response="000000000000" foes="110000111100" cont="0"/>
        <request index="8" response="000000000011" foes="110000110011" cont="0"/>
        <request index="9" response="000000000010" foes="000000100010" cont="0"/>
        <request index="10" response="000111000110" foes="000111100110" cont="0"/>
        <request index="11" response="000110011110" foes="000110011110" cont="0"/>
    </junction>
    <junction id="34" type="priority" x="-481.25" y="274.72" incLanes="4499_0 4501_0 4726_0" intLanes=":34_0_0 :34_1_0 :34_2_0 :34_3_0 :34_4_0 :34_5_0" shape="-475.32,293.66 -468.39,292.66 -473.92,254.29 -480.85,255.28 -480.61,260.18 -481.39,264.29 -483.21,267.59 -486.05,270.09 -489.92,271.79 -494.83,272.69 -494.18,279.66 -489.05,279.62 -484.71,280.53 -481.17,282.39 -478.42,285.20 -476.47,288.96">
        <request index="0" response="000000" foes="001000" cont="0"/>
        <request index="1" response="000000" foes="111000" cont="0"/>
        <request index="2" response="000000" foes="100000" cont="0"/>
        <request index="3" response="000011" foes="100011" cont="0"/>
        <request index="4" response="000010" foes="000010" cont="0"/>
        <request index="5" response="001110" foes="001110" cont="0"/>
    </junction>
    <junction id="35" type="priority" x="-490.16" y="212.28" incLanes="4502_0 4504_0 4874_0" intLanes=":35_0_0 :35_1_0 :35_2_0 :35_3_0 :35_4_0 :35_5_0" shape="-484.36,230.78 -477.43,229.79 -483.02,191.59 -489.94,192.63 -489.71,197.26 -490.50,201.27 -492.31,204.64 -495.14,207.39 -498.99,209.52 -503.86,211.01 -502.36,217.84 -497.51,217.25 -493.40,217.75 -490.03,219.36 -487.40,222.07 -485.51,225.87">
        <request index="0" response="000000" foes="001000" cont="0"/>
        <request index="1" response="000000" foes="111000" cont="0"/>
        <request index="2" response="000000" foes="100000" cont="0"/>
        <request index="3" response="000011" foes="100011" cont="0"/>
        <request index="4" response="000010" foes="000010" cont="0"/>
        <request index="5" response="001110" foes="001110" cont="0"/>
    </junction>

    <connection from="4499" to="4725" fromLane="0" toLane="0" contPos="-4.00" shape="-473.58,293.44 -474.25,290.09 -474.91,288.00 -475.77,286.00 -476.85,284.14 -478.19,282.46 -478.92,281.75 -479.72,281.07 -480.54,280.47 -482.42,279.42 -484.42,278.66 -486.53,278.15 -488.72,277.86 -490.94,277.76 -494.34,277.91" via=":34_0_0" dir="r" state="M"/>
    <connection from="4499" to="4502" fromLane="0" toLane="0" contPos="-4.00" shape="-473.58,293.44 -476.35,274.22 -479.12,255.03" via=":34_1_0" dir="s" state="M"/>
    <connection from="4501" to="4498" fromLane="0" toLane="0" contPos="-4.00" shape="-475.65,254.57 -472.89,273.72 -470.13,292.91" via=":34_2_0" dir="s" state="M"/>
    <connection from="4501" to="4725" fromLane="0" toLane="0" contPos="-4.00" shape="-475.65,254.57 -475.31,258.37 -475.35,261.00 -475.67,263.64 -476.33,266.21 -476.82,267.52 -477.42,268.76 -478.14,269.95 -478.96,271.06 -479.88,272.10 -480.89,273.04 -481.97,273.89 -483.14,274.65 -485.50,275.85 -487.99,276.74 -490.54,277.37 -494.34,277.91" via=":34_3_0" dir="l" state="m"/>
    <connection from="4502" to="4875" fromLane="0" toLane="0" contPos="-4.00" shape="-482.62,230.56 -483.29,227.10 -483.94,224.92 -484.80,222.85 -485.91,220.90 -486.53,220.05 -487.23,219.24 -487.99,218.50 -488.82,217.84 -489.70,217.26 -490.64,216.77 -491.62,216.36 -492.62,216.04 -494.80,215.61 -497.03,215.49 -499.29,215.60 -502.73,216.13" via=":35_0_0" dir="r" state="M"/>
    <connection from="4502" to="4505" fromLane="0" toLane="0" contPos="-4.00" shape="-482.62,230.56 -485.42,211.45 -488.21,192.37" via=":35_1_0" dir="s" state="M"/>
    <connection from="4504" to="4501" fromLane="0" toLane="0" contPos="-4.00" shape="-484.75,191.87 -481.96,210.94 -479.16,230.04" via=":35_2_0" dir="s" state="M"/>
    <connection from="4504" to="4875" fromLane="0" toLane="0" contPos="-4.00" shape="-484.75,191.87 -484.47,194.40 -484.40,196.98 -484.61,199.60 -485.13,202.20 -486.02,204.69 -486.63,205.94 -487.33,207.10 -488.12,208.20 -489.00,209.23 -489.97,210.20 -492.03,211.84 -494.28,213.21 -496.63,214.31 -499.06,215.18 -502.73,216.13" via=":35_3_0" dir="l" state="m"/>
    <connection from="4505" to="4624" fromLane="0" toLane="0" contPos="-4.00" shape="-491.10,173.00 -491.80,169.56 -492.49,167.38 -493.38,165.30 -494.53,163.37 -495.18,162.52 -495.90,161.72 -496.69,160.99 -497.54,160.33 -498.44,159.76 -499.40,159.27 -500.41,158.86 -501.42,158.54 -503.64,158.10 -505.90,157.95 -508.18,158.03 -511.69,158.51" via=":33_0_0" dir="r" state="M"/>
    <connection from="4505" to="4508" fromLane="0" toLane="0" contPos="-4.00" shape="-491.10,173.00 -492.02,166.82 -496.83,132.78" via=":33_1_0" dir="s" state="M"/>
    <connection from="4505" to="4628" fromLane="0" toLane="0" contPos="-4.00" shape="-491.10,173.00 -491.47,169.31 -491.47,166.79 -491.25,164.27 -490.76,161.77 -489.98,159.32 -488.89,156.98 -487.49,154.80 -485.82,152.83 -483.94,151.09 -481.90,149.58 -479.72,148.28 -476.35,146.72 -472.87,145.51" via=":33_2_0" dir="l" state="m"/>