<routes>
	<vehicle depart="0.1" departLane="0" departPos="14.922061439098867" departSpeed="0.83165034" id="32" type="passenger">
		<route edges=":33_11 4504"/>
	</vehicle>
	<vehicle depart="0.1" departLane="0" departPos="31.621590295791286" departSpeed="9.8416619" id="39" type="passenger">
		<route edges=":33_7 4504 4501"/>
	</vehicle>
	<vehicle depart="0.1" departLane="0" departPos="2.5" departSpeed="9.8205268" id="311" type="passenger">
		<route edges=":33_6 4628"/>
	</vehicle>
	<vehicle depart="0.1" departLane="0" departPos="50.21944210688534" departSpeed="7.5015772" id="315" type="passenger">
		<route edges="4507 4504"/>
	</vehicle>
	<vehicle depart="0.1" departLane="0" departPos="52.92922472313987" departSpeed="0.72452591" id="321" type="passenger">
		<route edges="4625 4628"/>
	</vehicle>
	<vehicle depart="0.1" departLane="0" departPos="15.47014216450916" departSpeed="0.15997505" id="324" type="passenger">
		<route edges=":33_5 4508"/>
	</vehicle>
	<vehicle depart="0.1" departLane="0" departPos="33.09522048069982" departSpeed="5.8807896" id="331" type="passenger">
		<route edges="4507 4624"/>
	</vehicle>
	<vehicle depart="0.1" departLane="0" departPos="21.411369650521273" departSpeed="0.092650412" id="357" type="passenger">
		<route edges="4505 4508"/>
	</vehicle>
	<vehicle depart="0.1" departLane="0" departPos="8.348561279363878" departSpeed="1.6908036" id="360" type="passenger">
		<route edges="4505 4508"/>
	</vehicle>
	<vehicle depart="0.1" departLane="0" departPos="20.471085650030737" departSpeed="3.700529" id="341" type="truck">
		<route edges="4507 4624"/>
	</vehicle>
</routes>
