<routes>
	<vehicle depart="0.1" departLane="1" departPos="121.29868555649837" departSpeed="4.002053" id="1" type="passenger">
		<route edges="26 28 24"/>
	</vehicle>
	<vehicle depart="0.1" departLane="0" departPos="0" departSpeed="5.7177296" id="2" type="passenger">
		<route edges="26 27 24"/>
	</vehicle>
	<vehicle depart="0.1" departLane="0" departPos="0" departSpeed="5.7178611" id="3" type="passenger">
		<route edges="26 27 24"/>
	</vehicle>
</routes>
