<routes>
	<vehicle depart="0.1" departLane="0" departPos="40.955360800622884" departSpeed="0.0" id="33" type="passenger">
		<route edges="37827 38461"/>
	</vehicle>
	<vehicle depart="0.1" departLane="0" departPos="7.229535855282574" departSpeed="3.4322867" id="311" type="passenger">
		<route edges=":33_2 38461"/>
	</vehicle>
	<vehicle depart="0.1" departLane="0" departPos="59.89554041478919" departSpeed="0.0" id="312" type="passenger">
		<route edges="38558 37869"/>
	</vehicle>
	<vehicle depart="0.1" departLane="0" departPos="52.4972368599151" departSpeed="0.0" id="313" type="passenger">
		<route edges="38558 37869"/>
	</vehicle>
	<vehicle depart="0.1" departLane="0" departPos="6.578176012742568" departSpeed="0.0" id="314" type="passenger">
		<route edges="38556 38559"/>
	</vehicle>
	<vehicle depart="0.1" departLane="0" departPos="9.216723041899105" departSpeed="15.40434" id="328" type="passenger">
		<route edges="38559"/>
	</vehicle>
	<vehicle depart="0.1" departLane="0" departPos="15.729583527081465" departSpeed="11.811117" id="329" type="passenger">
		<route edges=":33_5 37826"/>
	</vehicle>
	<vehicle depart="0.1" departLane="0" departPos="52.49948654241635" departSpeed="6.9173541" id="335" type="passenger">
		<route edges="38460 37872"/>
	</vehicle>
	<vehicle depart="0.1" departLane="0" departPos="69.89563321651518" departSpeed="0.0" id="30" type="truck">
		<route edges="38558 37869"/>
	</vehicle>
	<vehicle depart="0.1" departLane="0" departPos="3.75" departSpeed="0.71168453" id="322" type="truck">
		<route edges=":33_9 37826"/>
	</vehicle>
</routes>
