<!-- generated on Wed Feb 10 12:33:31 2021 by Eclipse SUMO netconvert Version 1.8.0
<configuration xmlns:xsi="http://www.w3.org/2001/XMLSchema-instance" xsi:noNamespaceSchemaLocation="http://sumo.dlr.de/xsd/netconvertConfiguration.xsd">

    <input>
        <node-files value="./converted_scenarios/SUMO/DEU_Flensburg-15_1_I-1-1/DEU_Flensburg-15_1_I-1-1.nod.xml"/>
        <edge-files value="./converted_scenarios/SUMO/DEU_Flensburg-15_1_I-1-1/DEU_Flensburg-15_1_I-1-1.edg.xml"/>
        <connection-files value="./converted_scenarios/SUMO/DEU_Flensburg-15_1_I-1-1/DEU_Flensburg-15_1_I-1-1.con.xml"/>
        <tllogic-files value="./converted_scenarios/SUMO/DEU_Flensburg-15_1_I-1-1/DEU_Flensburg-15_1_I-1-1.tll.xml"/>
        <type-files value="/home/zen/commonroad-interactive-benchmarks/install/commonroad-map-tool/crmapconverter/sumo_map/templates/DEU.typ.xml"/>
    </input>

    <output>
        <output-file value="./converted_scenarios/SUMO/DEU_Flensburg-15_1_I-1-1/DEU_Flensburg-15_1_I-1-1.net.xml"/>
    </output>

    <processing>
        <geometry.remove.keep-edges.explicit value="true"/>
        <geometry.avoid-overlap value="true"/>
        <offset.disable-normalization value="true"/>
    </processing>

    <junctions>
        <no-turnarounds value="true"/>
        <junctions.internal-link-detail value="20"/>
    </junctions>

    <report>
        <aggregate-warnings value="5"/>
    </report>

    <random_number>
        <seed value="1234"/>
    </random_number>

</configuration>
--><net xmlns:xsi="http://www.w3.org/2001/XMLSchema-instance" version="1.6" junctionCornerDetail="5" junctionLinkDetail="20" limitTurnSpeed="5.50" xsi:noNamespaceSchemaLocation="http://sumo.dlr.de/xsd/net_file.xsd">

    <location netOffset="0.00,0.00" convBoundary="-52.45,-510.74,56.87,-439.94" origBoundary="-52.45,-510.74,56.87,-435.45" projParameter="!"/>

    <type id="highway.bridleway" priority="1" speed="2.78" allow="pedestrian" oneway="1" width="2.00"/>
    <type id="highway.bus_guideway" priority="1" speed="27.78" allow="bus" oneway="1"/>
    <type id="highway.cycleway" priority="1" speed="8.33" allow="bicycle" oneway="0" width="1.00"/>
    <type id="highway.footway" priority="1" speed="2.78" allow="pedestrian" oneway="1" width="2.00"/>
    <type id="highway.ford" priority="1" speed="2.78" allow="army" oneway="0"/>
    <type id="highway.living_street" priority="2" speed="2.78" disallow="tram rail_urban rail rail_electric rail_fast ship" oneway="0"/>
    <type id="highway.motorway" priority="14" speed="39.44" allow="private emergency authority army vip passenger hov taxi bus coach delivery truck trailer motorcycle evehicle custom1 custom2" oneway="1"/>
    <type id="highway.motorway_link" priority="9" speed="22.22" allow="private emergency authority army vip passenger hov taxi bus coach delivery truck trailer motorcycle evehicle custom1 custom2" oneway="1"/>
    <type id="highway.path" priority="1" speed="2.78" allow="pedestrian bicycle" oneway="0" width="2.00"/>
    <type id="highway.pedestrian" priority="1" speed="2.78" allow="pedestrian" oneway="1" width="2.00"/>
    <type id="highway.primary" priority="12" speed="27.78" disallow="pedestrian tram rail_urban rail rail_electric rail_fast ship" oneway="0"/>
    <type id="highway.primary_link" priority="7" speed="22.22" disallow="pedestrian tram rail_urban rail rail_electric rail_fast ship" oneway="0"/>
    <type id="highway.raceway" priority="15" speed="83.33" allow="vip" oneway="0"/>
    <type id="highway.residential" priority="3" speed="13.89" disallow="pedestrian tram rail_urban rail rail_electric rail_fast ship" oneway="0"/>
    <type id="highway.secondary" priority="11" speed="27.78" disallow="pedestrian tram rail_urban rail rail_electric rail_fast ship" oneway="0"/>
    <type id="highway.secondary_link" priority="6" speed="22.22" disallow="pedestrian tram rail_urban rail rail_electric rail_fast ship" oneway="0"/>
    <type id="highway.service" priority="1" speed="5.56" allow="pedestrian delivery bicycle" oneway="0"/>
    <type id="highway.stairs" priority="1" speed="1.39" allow="pedestrian" oneway="1" width="2.00"/>
    <type id="highway.step" priority="1" speed="1.39" allow="pedestrian" oneway="1" width="2.00"/>
    <type id="highway.steps" priority="1" speed="1.39" allow="pedestrian" oneway="1" width="2.00"/>
    <type id="highway.tertiary" priority="10" speed="22.22" disallow="pedestrian tram rail_urban rail rail_electric rail_fast ship" oneway="0"/>
    <type id="highway.tertiary_link" priority="5" speed="22.22" disallow="pedestrian tram rail_urban rail rail_electric rail_fast ship" oneway="0"/>
    <type id="highway.track" priority="1" speed="5.56" allow="pedestrian motorcycle moped bicycle" oneway="0"/>
    <type id="highway.trunk" priority="13" speed="27.78" disallow="pedestrian bicycle tram rail_urban rail rail_electric rail_fast ship" oneway="0"/>
    <type id="highway.trunk_link" priority="8" speed="22.22" disallow="pedestrian bicycle tram rail_urban rail rail_electric rail_fast ship" oneway="0"/>
    <type id="highway.unclassified" priority="4" speed="13.89" disallow="pedestrian tram rail_urban rail rail_electric rail_fast ship" oneway="0"/>
    <type id="highway.unsurfaced" priority="1" speed="8.33" disallow="tram rail_urban rail rail_electric rail_fast ship" oneway="0"/>
    <type id="railway.highspeed" priority="21" speed="69.44" allow="rail_fast" oneway="1"/>
    <type id="railway.light_rail" priority="19" speed="27.78" allow="rail_urban" oneway="1"/>
    <type id="railway.preserved" priority="16" speed="27.78" allow="rail" oneway="1"/>
    <type id="railway.rail" priority="20" speed="44.44" allow="rail" oneway="1"/>
    <type id="railway.subway" priority="18" speed="27.78" allow="rail_urban" oneway="1"/>
    <type id="railway.tram" priority="17" speed="13.89" allow="tram" oneway="1"/>

    <edge id=":21_0" function="internal">
        <lane id=":21_0_0" index="0" disallow="pedestrian tram rail_urban rail rail_electric rail_fast ship" speed="36.11" length="21.46" width="3.50" shape="43.82,-437.49 37.59,-436.64 29.97,-436.18 22.45,-435.70"/>
    </edge>
    <edge id=":21_1" function="internal">
        <lane id=":21_1_0" index="0" disallow="pedestrian tram rail_urban rail rail_electric rail_fast ship" speed="10.36" length="20.89" width="3.50" shape="36.87,-448.37 36.60,-447.02 35.87,-444.67 35.05,-442.93 33.98,-441.31 32.68,-439.87 31.18,-438.63 29.54,-437.64 27.79,-436.87 25.42,-436.17 22.45,-435.70"/>
    </edge>
    <edge id=":21_2" function="internal">
        <lane id=":21_2_0" index="0" disallow="pedestrian tram rail_urban rail rail_electric rail_fast ship" speed="9.23" length="16.04" width="3.50" shape="22.22,-439.20 24.53,-439.56 26.41,-440.11 27.76,-440.70 29.02,-441.45 30.17,-442.38 31.16,-443.46 31.98,-444.68 32.62,-446.01 33.21,-447.88 33.40,-448.81"/>
    </edge>
    <edge id=":21_3" function="internal">
        <lane id=":21_3_0" index="0" disallow="pedestrian tram rail_urban rail rail_electric rail_fast ship" speed="36.11" length="21.10" width="3.50" shape="22.22,-439.19 29.65,-439.66 37.20,-440.12 43.24,-440.94"/>
    </edge>
    <edge id=":22_0" function="internal">
        <lane id=":22_0_0" index="0" disallow="pedestrian tram rail_urban rail rail_electric rail_fast ship" speed="6.35" length="11.59" width="3.50" shape="4.77,-460.13 4.67,-460.74 4.54,-461.34 4.39,-461.93 4.21,-462.51 3.99,-463.08 3.74,-463.63 3.42,-464.16 3.00,-464.60 2.47,-464.89 1.87,-465.00 1.27,-464.94 0.68,-464.79 0.11,-464.57 -0.45,-464.32 -0.98,-464.03 -1.50,-463.71 -2.01,-463.37 -2.51,-463.02 -3.00,-462.66"/>
    </edge>
    <edge id=":22_1" function="internal">
        <lane id=":22_1_0" index="0" disallow="pedestrian tram rail_urban rail rail_electric rail_fast ship" speed="36.11" length="18.41" width="3.50" shape="4.77,-460.13 4.27,-464.30 4.06,-469.02 4.24,-473.74 4.81,-478.47"/>
    </edge>
    <edge id=":22_2" function="internal">
        <lane id=":22_2_0" index="0" disallow="pedestrian tram rail_urban rail rail_electric rail_fast ship" speed="36.11" length="17.35" width="3.50" shape="8.27,-477.93 7.73,-473.47 7.56,-469.03 7.75,-464.59 8.23,-460.65"/>
    </edge>
    <edge id=":22_3" function="internal">
        <lane id=":22_3_0" index="0" disallow="pedestrian tram rail_urban rail rail_electric rail_fast ship" speed="14.17" length="19.40" width="3.50" shape="8.27,-477.92 7.71,-475.67 6.84,-473.57 5.41,-471.12 3.69,-468.87 1.36,-466.38 -1.62,-463.75 -3.00,-462.66"/>
    </edge>
    <edge id=":22_4" function="internal">
        <lane id=":22_4_0" index="0" disallow="pedestrian tram rail_urban rail rail_electric rail_fast ship" speed="13.14" length="16.58" width="3.50" shape="-4.99,-465.54 -3.90,-466.41 -1.21,-468.77 0.87,-470.95 2.38,-472.89 3.63,-474.96 4.36,-476.66 4.81,-478.47"/>
    </edge>
    <edge id=":22_5" function="internal">
        <lane id=":22_5_0" index="0" disallow="pedestrian tram rail_urban rail rail_electric rail_fast ship" speed="8.02" length="19.16" width="3.50" shape="-4.99,-465.53 -2.93,-466.97 -0.60,-468.18 1.07,-468.70 1.94,-468.81 2.81,-468.81 3.67,-468.62 4.47,-468.28 5.19,-467.78 5.81,-467.16 6.76,-465.70 7.42,-464.08 8.08,-461.53 8.23,-460.65"/>
    </edge>

    <edge id="439" from="22" to="17" priority="3" type="highway.residential" spreadType="center" length="32.02" shape="1.27,-467.26 -3.63,-507.71">
        <lane id="439_0" index="0" disallow="pedestrian tram rail_urban rail rail_electric rail_fast ship" speed="36.11" length="32.02" width="3.50" customShape="1" shape="4.81,-478.47 4.89,-478.94 5.11,-481.29 5.05,-484.20 4.69,-488.64 4.00,-493.03 2.87,-497.85 1.39,-502.62 0.67,-504.31 0.00,-505.35 -0.52,-505.90 -1.08,-506.30 -3.63,-507.71"/>
    </edge>
    <edge id="440" from="18" to="22" priority="3" type="highway.residential" spreadType="center" length="36.26" shape="-1.87,-510.74 4.73,-467.74">
        <lane id="440_0" index="0" disallow="pedestrian tram rail_urban rail rail_electric rail_fast ship" speed="36.11" length="36.26" width="3.50" customShape="1" shape="-1.87,-510.74 0.87,-509.20 1.88,-508.44 2.79,-507.45 3.79,-505.90 4.68,-503.79 6.24,-498.76 7.44,-493.69 8.16,-489.04 8.55,-484.37 8.60,-481.14 8.35,-478.44 8.26,-477.88"/>
    </edge>
    <edge id="442" from="19" to="22" priority="3" type="highway.residential" spreadType="center" length="50.82" shape="-50.43,-480.77 3.42,-469.24">
        <lane id="442_0" index="0" disallow="pedestrian tram rail_urban rail rail_electric rail_fast ship" speed="36.11" length="50.82" width="3.50" customShape="1" shape="-50.43,-480.77 -46.71,-478.10 -41.80,-474.73 -36.61,-471.74 -31.70,-469.30 -26.61,-467.17 -21.43,-464.83 -17.82,-463.33 -15.58,-462.69 -13.80,-462.42 -12.04,-462.43 -10.29,-462.71 -8.62,-463.28 -7.01,-464.12 -4.99,-465.53"/>
    </edge>
    <edge id="443" from="22" to="13" priority="3" type="highway.residential" spreadType="center" length="55.09" shape="2.67,-465.82 -52.45,-477.91">
        <lane id="443_0" index="0" disallow="pedestrian tram rail_urban rail rail_electric rail_fast ship" speed="36.11" length="55.09" width="3.50" customShape="1" shape="-3.00,-462.66 -5.23,-461.11 -7.28,-460.05 -9.49,-459.31 -11.80,-458.94 -14.10,-458.94 -16.35,-459.28 -18.99,-460.03 -22.86,-461.64 -27.96,-463.94 -33.16,-466.12 -38.27,-468.66 -43.68,-471.78 -48.74,-475.25 -52.45,-477.91"/>
    </edge>
    <edge id="475" from="21" to="22" priority="3" type="highway.residential" spreadType="center" length="39.40" shape="31.64,-440.26 1.79,-466.27">
        <lane id="475_0" index="0" disallow="pedestrian tram rail_urban rail rail_electric rail_fast ship" speed="36.11" length="39.40" width="3.50" customShape="1" shape="22.45,-435.70 18.73,-435.45 15.97,-435.56 13.74,-435.92 11.55,-436.56 8.97,-437.61 6.93,-438.75 5.49,-439.90 4.24,-441.37 3.58,-442.53 3.13,-443.85 3.02,-444.64 3.04,-445.42 3.15,-446.16 3.54,-447.46 4.90,-450.43 5.25,-451.62 5.33,-452.86 5.24,-456.24 4.77,-460.14"/>
    </edge>
    <edge id="476" from="22" to="21" priority="3" type="highway.residential" spreadType="center" length="33.87" shape="4.09,-468.91 33.93,-442.90">
        <lane id="476_0" index="0" disallow="pedestrian tram rail_urban rail rail_electric rail_fast ship" speed="36.11" length="33.87" width="3.50" customShape="1" shape="8.23,-460.65 8.50,-458.87 8.68,-457.09 8.79,-455.30 8.83,-453.51 8.71,-451.72 8.31,-449.99 7.72,-448.31 7.15,-446.61 6.94,-444.92 7.20,-443.32 8.40,-442.01 9.91,-441.04 11.54,-440.30 13.23,-439.69 14.97,-439.23 16.74,-439.00 18.54,-438.95 20.33,-439.02 22.22,-439.19"/>
    </edge>
    <edge id="478" from="20" to="21" priority="3" type="highway.residential" spreadType="center" length="13.28" shape="56.87,-439.94 32.67,-439.84">
        <lane id="478_0" index="0" disallow="pedestrian tram rail_urban rail rail_electric rail_fast ship" speed="36.11" length="13.28" width="3.50" customShape="1" shape="56.87,-439.94 47.85,-438.17 43.82,-437.49"/>
    </edge>
    <edge id="479" from="21" to="8" priority="3" type="highway.residential" spreadType="center" length="13.21" shape="32.65,-443.33 56.22,-443.38">
        <lane id="479_0" index="0" disallow="pedestrian tram rail_urban rail rail_electric rail_fast ship" speed="36.11" length="13.21" width="3.50" customShape="1" shape="43.24,-440.94 47.21,-441.61 56.22,-443.38"/>
    </edge>
    <edge id="538" from="1" to="21" priority="3" type="highway.residential" spreadType="center" length="27.82" shape="34.94,-476.06 34.53,-441.47">
        <lane id="538_0" index="0" disallow="pedestrian tram rail_urban rail rail_electric rail_fast ship" speed="36.11" length="27.82" width="3.50" customShape="1" shape="34.94,-476.06 36.48,-463.07 37.12,-453.83 37.13,-450.53 36.87,-448.37"/>
    </edge>
    <edge id="539" from="21" to="5" priority="3" type="highway.residential" spreadType="center" length="26.98" shape="31.04,-441.51 31.46,-475.66">
        <lane id="539_0" index="0" disallow="pedestrian tram rail_urban rail rail_electric rail_fast ship" speed="36.11" length="26.98" width="3.50" customShape="1" shape="33.40,-448.81 33.64,-450.72 33.63,-453.66 32.99,-462.74 31.46,-475.66"/>
    </edge>

    <junction id="1" type="dead_end" x="34.94" y="-476.06" incLanes="" intLanes="" shape="33.20,-475.86 36.67,-476.27" rightOfWay="edgePriority"/>
    <junction id="13" type="dead_end" x="-52.45" y="-477.91" incLanes="443_0" intLanes="" shape="-53.47,-476.49 -51.43,-479.33" rightOfWay="edgePriority"/>
    <junction id="17" type="dead_end" x="-3.63" y="-507.71" incLanes="439_0" intLanes="" shape="-4.47,-506.18 -2.78,-509.24" rightOfWay="edgePriority"/>
    <junction id="18" type="dead_end" x="-1.87" y="-510.74" incLanes="" intLanes="" shape="-2.73,-509.22 -1.02,-512.27" rightOfWay="edgePriority"/>
    <junction id="19" type="dead_end" x="-50.43" y="-480.77" incLanes="" intLanes="" shape="-51.45,-479.34 -49.41,-482.19" rightOfWay="edgePriority"/>
    <junction id="20" type="dead_end" x="56.87" y="-439.94" incLanes="" intLanes="" shape="56.54,-441.66 57.21,-438.22" rightOfWay="edgePriority"/>
    <junction id="21" type="priority" x="32.79" y="-441.58" incLanes="478_0 538_0 476_0" intLanes=":21_0_0 :21_1_0 :21_2_0 :21_3_0" shape="44.11,-435.77 42.95,-442.67 40.19,-442.90 39.30,-443.61 38.74,-444.72 38.51,-446.24 38.61,-448.15 31.67,-449.02 31.14,-446.76 30.19,-444.87 28.82,-443.33 27.01,-442.17 24.77,-441.37 22.11,-440.93 22.57,-433.95 27.17,-434.21 30.58,-434.34 33.38,-434.46 36.18,-434.66 39.56,-435.06">
        <request index="0" response="0000" foes="0010" cont="0"/>
        <request index="1" response="1001" foes="1001" cont="0"/>
        <request index="2" response="0000" foes="0000" cont="0"/>
        <request index="3" response="0000" foes="0010" cont="0"/>
    </junction>
    <junction id="22" type="priority" x="3.00" y="-467.54" incLanes="475_0 440_0 442_0" intLanes=":22_0_0 :22_1_0 :22_2_0 :22_3_0 :22_4_0 :22_5_0" shape="3.04,-459.87 9.96,-460.91 9.44,-464.45 9.12,-467.09 9.01,-469.29 9.12,-471.48 9.45,-474.12 9.99,-477.65 3.08,-478.74 2.57,-476.72 1.65,-474.72 0.34,-472.75 -1.37,-470.80 -3.48,-468.87 -5.99,-466.97 -2.00,-461.22 0.56,-462.45 1.50,-462.44 2.23,-462.00 2.75,-461.15">
        <request index="0" response="000000" foes="001000" cont="0"/>
        <request index="1" response="110000" foes="111000" cont="0"/>
        <request index="2" response="100000" foes="100000" cont="0"/>
        <request index="3" response="100011" foes="100011" cont="0"/>
        <request index="4" response="000000" foes="000010" cont="0"/>
        <request index="5" response="000000" foes="001110" cont="0"/>
    </junction>
    <junction id="5" type="dead_end" x="31.46" y="-475.66" incLanes="539_0" intLanes="" shape="29.72,-475.45 33.20,-475.87" rightOfWay="edgePriority"/>
    <junction id="8" type="dead_end" x="56.22" y="-443.38" incLanes="479_0" intLanes="" shape="55.88,-445.10 56.55,-441.66" rightOfWay="edgePriority"/>

    <connection from="440" to="476" fromLane="0" toLane="0" contPos="-4.00" shape="8.26,-477.88 7.73,-473.47 7.56,-469.03 7.75,-464.59 8.23,-460.65" via=":22_2_0" dir="s" state="m"/>
    <connection from="440" to="443" fromLane="0" toLane="0" contPos="-4.00" shape="8.26,-477.88 7.71,-475.67 6.84,-473.57 5.41,-471.12 3.69,-468.87 1.36,-466.38 -1.62,-463.75 -3.00,-462.66" via=":22_3_0" dir="l" state="m"/>
    <connection from="442" to="439" fromLane="0" toLane="0" contPos="-4.00" shape="-5.09,-465.46 -3.90,-466.41 -1.21,-468.77 0.87,-470.95 2.38,-472.89 3.63,-474.96 4.36,-476.66 4.81,-478.47" via=":22_4_0" dir="r" state="M"/>
    <connection from="442" to="476" fromLane="0" toLane="0" contPos="-4.00" shape="-5.09,-465.46 -2.93,-466.97 -0.60,-468.18 1.07,-468.70 1.94,-468.81 2.81,-468.81 3.67,-468.62 4.47,-468.28 5.19,-467.78 5.81,-467.16 6.76,-465.70 7.42,-464.08 8.08,-461.53 8.23,-460.65" via=":22_5_0" dir="s" state="M"/>
    <connection from="475" to="443" fromLane="0" toLane="0" contPos="-4.00" shape="4.77,-460.14 4.67,-460.74 4.54,-461.34 4.39,-461.93 4.21,-462.51 3.99,-463.08 3.74,-463.63 3.42,-464.16 3.00,-464.60 2.47,-464.89 1.87,-465.00 1.27,-464.94 0.68,-464.79 0.11,-464.57 -0.45,-464.32 -0.98,-464.03 -1.50,-463.71 -2.01,-463.37 -2.51,-463.02 -3.00,-462.66" via=":22_0_0" dir="s" state="M"/>
    <connection from="475" to="439" fromLane="0" toLane="0" contPos="-4.00" shape="4.77,-460.14 4.27,-464.30 4.06,-469.02 4.24,-473.74 4.81,-478.47" via=":22_1_0" dir="L" state="m"/>
    <connection from="476" to="539" fromLane="0" toLane="0" contPos="-4.00" shape="22.12,-439.18 24.53,-439.56 26.41,-440.11 27.76,-440.70 29.02,-441.45 30.17,-442.38 31.16,-443.46 31.98,-444.68 32.62,-446.01 33.21,-447.88 33.40,-448.81" via=":21_2_0" dir="r" state="M"/>
    <connection from="476" to="479" fromLane="0" toLane="0" contPos="-4.00" shape="22.12,-439.18 29.65,-439.66 37.20,-440.12 40.70,-440.52" via=":21_3_0" dir="s" state="M"/>
    <connection from="478" to="475" fromLane="0" toLane="0" contPos="-4.00" shape="41.19,-437.05 37.59,-436.64 29.97,-436.18 22.45,-435.70" via=":21_0_0" dir="s" state="M"/>
    <connection from="538" to="475" fromLane="0" toLane="0" contPos="-4.00" shape="36.85,-448.23 36.60,-447.02 35.87,-444.67 35.05,-442.93 33.98,-441.31 32.68,-439.87 31.18,-438.63 29.54,-437.64 27.79,-436.87 25.42,-436.17 22.45,-435.70" via=":21_1_0" dir="l" state="m"/>

    <connection from=":21_0" to="475" fromLane="0" toLane="0" dir="s" state="M"/>
    <connection from=":21_1" to="475" fromLane="0" toLane="0" dir="l" state="M"/>
    <connection from=":21_2" to="539" fromLane="0" toLane="0" dir="r" state="M"/>
    <connection from=":21_3" to="479" fromLane="0" toLane="0" dir="s" state="M"/>
    <connection from=":22_0" to="443" fromLane="0" toLane="0" dir="s" state="M"/>
    <connection from=":22_1" to="439" fromLane="0" toLane="0" dir="L" state="M"/>
    <connection from=":22_2" to="476" fromLane="0" toLane="0" dir="s" state="M"/>
    <connection from=":22_3" to="443" fromLane="0" toLane="0" dir="l" state="M"/>
    <connection from=":22_4" to="439" fromLane="0" toLane="0" dir="r" state="M"/>
    <connection from=":22_5" to="476" fromLane="0" toLane="0" dir="s" state="M"/>

</net>