<!-- generated on 2020-12-18 15:58:25.401858 by ipykernel_launcher.py v1_2_0+5214-53edc58fcd
-->
<tlLogics/>
