<!-- generated on 2020-12-18 15:58:25.133546 by ipykernel_launcher.py v1_2_0+5214-53edc58fcd
-->
<edges>
	<edge from="1" function="normal" id="3431" length="7.746632106922337" numLanes="5" priority="1" speed="36.11111111111111" spreadType="center" to="2">
		<lane allow="moped bicycle pedestrian custom1 trailer evehicle rail_urban ship private truck vip custom2 authority delivery rail_electric taxi tram army hov coach motorcycle passenger bus rail emergency" index="0" length="7.746632106922337" shape="17.04255,76.2423 13.50045,69.23179999999999" speed="36.11111111111111" width="2.8417555225599527"/>
		<lane allow="moped bicycle pedestrian custom1 trailer evehicle rail_urban ship private truck vip custom2 authority delivery rail_electric taxi tram army hov coach motorcycle passenger bus rail emergency" index="1" length="7.746632106922337" shape="19.669800000000002,74.89359999999999 16.18695,67.8857" speed="36.11111111111111" width="3.064659380746909"/>
		<lane allow="moped bicycle pedestrian custom1 trailer evehicle rail_urban ship private truck vip custom2 authority delivery rail_electric taxi tram army hov coach motorcycle passenger bus rail emergency" index="2" length="7.746632106922337" shape="22.380850000000002,73.50184999999999 18.9332,66.5272" speed="36.11111111111111" width="3.0301778330652454"/>
		<lane allow="moped bicycle pedestrian custom1 trailer evehicle rail_urban ship private truck vip custom2 authority delivery rail_electric taxi tram army hov coach motorcycle passenger bus rail emergency" index="3" length="7.746632106922337" shape="25.0991,72.10640000000001 21.6677,65.16120000000001" speed="36.11111111111111" width="3.0528378404363354"/>
		<lane allow="moped bicycle pedestrian custom1 trailer evehicle rail_urban ship private truck vip custom2 authority delivery rail_electric taxi tram army hov coach motorcycle passenger bus rail emergency" index="4" length="7.746632106922337" shape="27.8244,70.70734999999999 24.39345,63.7184" speed="36.11111111111111" width="3.0460097258544714"/>
	</edge>
	<edge from="2" function="normal" id="3438" length="8.438893355322135" numLanes="6" priority="1" speed="36.11111111111111" spreadType="center" to="3">
		<lane allow="moped bicycle pedestrian custom1 trailer evehicle rail_urban ship private truck vip custom2 authority delivery rail_electric taxi tram army hov coach motorcycle passenger bus rail emergency" index="0" length="8.438893355322135" shape="13.50045,69.23179999999999 6.8256,62.95505" speed="36.11111111111111" width="2.9435128146485137"/>
		<lane allow="moped bicycle pedestrian custom1 trailer evehicle rail_urban ship private truck vip custom2 authority delivery rail_electric taxi tram army hov coach motorcycle passenger bus rail emergency" index="1" length="8.438893355322135" shape="13.50045,69.23179999999999 9.6669,61.622150000000005" speed="36.11111111111111" width="2.9435128146485137"/>
		<lane allow="moped bicycle pedestrian custom1 trailer evehicle rail_urban ship private truck vip custom2 authority delivery rail_electric taxi tram army hov coach motorcycle passenger bus rail emergency" index="2" length="8.438893355322135" shape="16.18695,67.8857 12.41545,60.2906" speed="36.11111111111111" width="3.0546153096584847"/>
		<lane allow="moped bicycle pedestrian custom1 trailer evehicle rail_urban ship private truck vip custom2 authority delivery rail_electric taxi tram army hov coach motorcycle passenger bus rail emergency" index="3" length="8.438893355322135" shape="18.9332,66.5272 15.1465,58.94775" speed="36.11111111111111" width="3.0324580145485966"/>
		<lane allow="moped bicycle pedestrian custom1 trailer evehicle rail_urban ship private truck vip custom2 authority delivery rail_electric taxi tram army hov coach motorcycle passenger bus rail emergency" index="4" length="8.438893355322135" shape="21.6677,65.16120000000001 17.8654,57.56655" speed="36.11111111111111" width="3.0528378404363354"/>
		<lane allow="moped bicycle pedestrian custom1 trailer evehicle rail_urban ship private truck vip custom2 authority delivery rail_electric taxi tram army hov coach motorcycle passenger bus rail emergency" index="5" length="8.438893355322135" shape="24.39345,63.7184 20.6533,56.1536" speed="36.11111111111111" width="3.1152791608457817"/>
	</edge>
	<edge from="3" function="normal" id="3450" length="24.494871241480368" numLanes="6" priority="1" speed="36.11111111111111" spreadType="center" to="4">
		<lane allow="moped bicycle pedestrian custom1 trailer evehicle rail_urban ship private truck vip custom2 authority delivery rail_electric taxi tram army hov coach motorcycle passenger bus rail emergency" index="0" length="24.494871241480368" shape="6.8256,62.95505 3.6609,56.721000000000004 -0.12740000000000007,49.03385 -4.2131,41.08925" speed="36.11111111111111" width="3.2241062653082633"/>
		<lane allow="moped bicycle pedestrian custom1 trailer evehicle rail_urban ship private truck vip custom2 authority delivery rail_electric taxi tram army hov coach motorcycle passenger bus rail emergency" index="1" length="24.494871241480368" shape="9.6669,61.622150000000005 6.6594,55.57055 2.83645,47.622299999999996 -1.2674,39.48555" speed="36.11111111111111" width="2.8665619215359706"/>
		<lane allow="moped bicycle pedestrian custom1 trailer evehicle rail_urban ship private truck vip custom2 authority delivery rail_electric taxi tram army hov coach motorcycle passenger bus rail emergency" index="2" length="24.494871241480368" shape="12.41545,60.2906 9.39245,54.239149999999995 5.5386500000000005,46.29135 1.3751,38.167" speed="36.11111111111111" width="3.004221073756057"/>
		<lane allow="moped bicycle pedestrian custom1 trailer evehicle rail_urban ship private truck vip custom2 authority delivery rail_electric taxi tram army hov coach motorcycle passenger bus rail emergency" index="3" length="24.494871241480368" shape="15.1465,58.94775 12.0601,52.7895 8.1754,44.8421 4.15975,36.7926" speed="36.11111111111111" width="3.0189875720181423"/>
		<lane allow="moped bicycle pedestrian custom1 trailer evehicle rail_urban ship private truck vip custom2 authority delivery rail_electric taxi tram army hov coach motorcycle passenger bus rail emergency" index="4" length="24.494871241480368" shape="17.8654,57.56655 14.74695,51.33185 10.86225,43.38445 6.92285,35.3993" speed="36.11111111111111" width="3.0183955092068353"/>
		<lane allow="moped bicycle pedestrian custom1 trailer evehicle rail_urban ship private truck vip custom2 authority delivery rail_electric taxi tram army hov coach motorcycle passenger bus rail emergency" index="5" length="24.494871241480368" shape="20.6533,56.1536 17.440849999999998,49.82795 13.556149999999999,41.88055 9.618649999999999,34.02615" speed="36.11111111111111" width="3.0323687935341903"/>
	</edge>
	<edge from="4" function="normal" id="3664" length="45.621593371778964" numLanes="2" priority="1" speed="36.11111111111111" spreadType="center" to="5">
		<lane allow="moped bicycle pedestrian custom1 trailer evehicle rail_urban ship private vip custom2 authority delivery rail_electric taxi tram army hov coach motorcycle passenger rail emergency" index="0" length="45.621593371778964" shape="6.92285,35.3993 3.1645,28.0179 1.0291,23.609949999999998 -0.03579999999999994,21.07805 -0.50925,19.0302 -0.63705,16.6648 -0.1956,13.8781 0.5395,11.311900000000001 1.60595,9.373149999999999 3.0187999999999997,7.22675 6.13905,4.251799999999999 12.18365,0.7691 21.196399999999997,-3.9456" speed="36.11111111111111" width="2.9349357471672186"/>
		<lane allow="moped bicycle pedestrian custom1 trailer evehicle rail_urban ship private vip custom2 authority delivery rail_electric taxi tram army hov coach motorcycle passenger rail emergency" index="1" length="45.621593371778964" shape="9.618649999999999,34.02615 6.26725,27.24995 4.65935,23.204549999999998 3.9955499999999997,20.813299999999998 3.7192,19.031950000000002 3.5512,16.99915 3.7804499999999996,14.8914 4.4287,13.12555 5.3950499999999995,11.5445 6.72105,9.92525 9.1939,7.35685 14.4585,3.5985 22.74125,-0.8540000000000001" speed="36.11111111111111" width="3.0323687935341903"/>
	</edge>
	<edge from="5" function="normal" id="3495" length="15.184501575044735" numLanes="3" priority="1" speed="36.11111111111111" spreadType="center" to="6">
		<lane allow="moped bicycle pedestrian custom1 trailer evehicle rail_urban ship private truck vip custom2 authority delivery rail_electric taxi tram army hov coach motorcycle passenger bus rail emergency" index="0" length="15.184501575044735" shape="19.573349999999998,-7.2737 28.300649999999997,-11.56875 33.20845,-13.98405" speed="36.11111111111111" width="3.8765859644795686"/>
		<lane allow="moped bicycle pedestrian custom1 trailer evehicle rail_urban ship private truck vip custom2 authority delivery rail_electric taxi tram army hov coach motorcycle passenger bus rail emergency" index="1" length="15.184501575044735" shape="21.196399999999997,-3.9456 29.92355,-8.23915 34.842150000000004,-10.65895" speed="36.11111111111111" width="3.5117895381130118"/>
		<lane allow="moped bicycle pedestrian custom1 trailer evehicle rail_urban ship private truck vip custom2 authority delivery rail_electric taxi tram army hov coach motorcycle passenger bus rail emergency" index="2" length="15.184501575044735" shape="22.74125,-0.8540000000000001 31.420049999999996,-5.1226 36.36685,-7.55565" speed="36.11111111111111" width="3.3823138145358427"/>
	</edge>
	<edge from="4" function="normal" id="3610" length="13.553882434287969" numLanes="3" priority="1" speed="36.11111111111111" spreadType="center" to="7">
		<lane allow="moped bicycle pedestrian custom1 trailer evehicle rail_urban ship private truck vip custom2 authority delivery rail_electric taxi tram army hov coach motorcycle passenger bus rail emergency" index="0" length="13.553882434287969" shape="-1.2674,39.48555 -7.3041,27.30965" speed="36.11111111111111" width="2.8665619215359706"/>
		<lane allow="moped bicycle pedestrian custom1 trailer evehicle rail_urban ship private truck vip custom2 authority delivery rail_electric taxi tram army hov coach motorcycle passenger bus rail emergency" index="1" length="13.553882434287969" shape="1.3751,38.167 -4.57515,25.9758" speed="36.11111111111111" width="3.0173836033888697"/>
		<lane allow="moped bicycle pedestrian custom1 trailer evehicle rail_urban ship private truck vip custom2 authority delivery rail_electric taxi tram army hov coach motorcycle passenger bus rail emergency" index="2" length="13.553882434287969" shape="4.15975,36.7926 -1.81905,24.62865" speed="36.11111111111111" width="3.118054550517038"/>
	</edge>
	<edge from="7" function="normal" id="3646" length="16.509632755735122" numLanes="3" priority="1" speed="36.11111111111111" spreadType="center" to="8">
		<lane allow="moped bicycle pedestrian custom1 trailer evehicle rail_urban ship private truck vip custom2 authority delivery rail_electric taxi tram army hov coach motorcycle passenger bus rail emergency" index="0" length="16.509632755735122" shape="-7.3041,27.30965 -8.7381,24.417250000000003 -10.37135,21.122700000000002 -11.77645,18.288800000000002 -13.16185,15.494399999999999 -14.637450000000001,12.5181" speed="36.11111111111111" width="3.0575892938718896"/>
		<lane allow="moped bicycle pedestrian custom1 trailer evehicle rail_urban ship private truck vip custom2 authority delivery rail_electric taxi tram army hov coach motorcycle passenger bus rail emergency" index="1" length="16.509632755735122" shape="-4.57515,25.9758 -6.0044,23.047600000000003 -7.618650000000001,19.740099999999998 -9.0097,16.892000000000003 -10.3896,14.06655 -11.8584,11.0593" speed="36.11111111111111" width="2.9903827313573097"/>
		<lane allow="moped bicycle pedestrian custom1 trailer evehicle rail_urban ship private truck vip custom2 authority delivery rail_electric taxi tram army hov coach motorcycle passenger bus rail emergency" index="2" length="16.509632755735122" shape="-1.81905,24.62865 -3.26965,21.6774 -4.8948,18.371000000000002 -6.2958,15.5219 -7.6942,12.678249999999998 -9.18135,9.65415" speed="36.11111111111111" width="3.056448910091579"/>
	</edge>
	<edge from="8" function="normal" id="3626" length="12.190574110865331" numLanes="3" priority="1" speed="36.11111111111111" spreadType="center" to="9">
		<lane allow="moped bicycle pedestrian custom1 trailer evehicle rail_urban ship private truck vip custom2 authority delivery rail_electric taxi tram army hov coach motorcycle passenger bus rail emergency" index="0" length="12.190574110865331" shape="-14.637450000000001,12.5181 -20.052750000000003,1.59635" speed="36.11111111111111" width="3.286946748884138"/>
		<lane allow="moped bicycle pedestrian custom1 trailer evehicle rail_urban ship private truck vip custom2 authority delivery rail_electric taxi tram army hov coach motorcycle passenger bus rail emergency" index="1" length="12.190574110865331" shape="-11.8584,11.0593 -17.2091,0.10369999999999996" speed="36.11111111111111" width="2.9693589611227544"/>
		<lane allow="moped bicycle pedestrian custom1 trailer evehicle rail_urban ship private truck vip custom2 authority delivery rail_electric taxi tram army hov coach motorcycle passenger bus rail emergency" index="2" length="12.190574110865331" shape="-9.18135,9.65415 -14.561050000000002,-1.28625" speed="36.11111111111111" width="3.01198864871699"/>
	</edge>
	<edge from="9" function="normal" id="3542" length="42.04503365774769" numLanes="3" priority="1" speed="36.11111111111111" spreadType="center" to="10">
		<lane allow="moped bicycle pedestrian custom1 trailer evehicle rail_urban ship private truck vip custom2 authority delivery rail_electric taxi tram army hov coach motorcycle passenger rail emergency" index="0" length="42.04503365774769" shape="-20.052750000000003,1.59635 -24.21405,-6.942349999999999 -28.2673,-15.87235 -32.03935,-24.59085 -35.664100000000005,-33.8348 -36.98185,-37.04795" speed="36.11111111111111" width="2.8481341330773025"/>
		<lane allow="moped bicycle pedestrian custom1 trailer evehicle rail_urban ship private truck vip custom2 authority delivery rail_electric taxi tram army hov coach motorcycle passenger bus rail emergency" index="1" length="42.04503365774769" shape="-17.2091,0.10369999999999996 -21.4525,-8.4511 -25.53465,-17.2345 -29.2753,-25.9227 -32.9293,-35.043000000000006 -34.27535,-38.381550000000004" speed="36.11111111111111" width="2.9693589611227544"/>
		<lane allow="moped bicycle pedestrian custom1 trailer evehicle rail_urban ship private truck vip custom2 authority delivery rail_electric taxi tram army hov coach motorcycle passenger bus rail emergency" index="2" length="42.04503365774769" shape="-14.561050000000002,-1.28625 -18.78385,-9.9662 -22.834200000000003,-18.6885 -26.60575,-27.3763 -30.1006,-36.175650000000005 -31.5133,-39.7425" speed="36.11111111111111" width="2.962201547835663"/>
	</edge>
	<edge from="4" function="normal" id="3604" length="15.83780930439205" numLanes="1" priority="1" speed="36.11111111111111" spreadType="center" to="11">
		<lane allow="moped bicycle pedestrian custom1 trailer evehicle rail_urban ship private vip custom2 authority delivery rail_electric taxi tram army hov coach motorcycle passenger rail emergency" index="0" length="15.83780930439205" shape="-4.2131,41.08925 -5.25535,39.81515 -6.514099999999999,38.2633 -7.902100000000001,36.867050000000006 -9.782499999999999,35.63175 -11.4837,35.04795 -13.2799,34.85025 -15.2016,35.06975 -17.5176,35.82195" speed="36.11111111111111" width="3.843390931196045"/>
	</edge>
	<edge from="11" function="normal" id="3487" length="21.42834305383199" numLanes="3" priority="1" speed="36.11111111111111" spreadType="center" to="12">
		<lane allow="moped bicycle pedestrian custom1 trailer evehicle rail_urban ship private truck vip custom2 authority delivery rail_electric taxi tram army hov coach motorcycle passenger bus rail emergency" index="0" length="21.42834305383199" shape="-17.5176,35.82195 -26.731099999999998,40.26135 -35.568,45.08005 -36.564350000000005,45.625249999999994" speed="36.11111111111111" width="4.576431161942677"/>
		<lane allow="moped bicycle pedestrian custom1 trailer evehicle rail_urban ship private truck vip custom2 authority delivery rail_electric taxi tram army hov coach motorcycle passenger bus rail emergency" index="1" length="21.42834305383199" shape="-19.2349,31.368000000000002 -28.625349999999997,36.41005 -37.2718,41.58005 -38.29875,42.1965" speed="36.11111111111111" width="3.1084813092569776"/>
		<lane allow="moped bicycle pedestrian custom1 trailer evehicle rail_urban ship private truck vip custom2 authority delivery rail_electric taxi tram army hov coach motorcycle passenger bus rail emergency" index="2" length="21.42834305383199" shape="-20.3706,28.136899999999997 -30.1523,33.384550000000004 -38.79875,38.55455 -39.82835,39.172650000000004" speed="36.11111111111111" width="3.664585112942531"/>
	</edge>
	<edge from="13" function="normal" id="3479" length="22.65181742569602" numLanes="3" priority="1" speed="36.11111111111111" spreadType="center" to="14">
		<lane allow="moped bicycle pedestrian custom1 trailer evehicle rail_urban ship private truck vip custom2 authority delivery rail_electric taxi tram army hov coach motorcycle passenger bus rail emergency" index="0" length="22.65181742569602" shape="-44.69165,29.55835 -43.549099999999996,28.98045 -33.9691,24.228099999999998 -24.35865,19.44455" speed="36.11111111111111" width="3.2311980966817857"/>
		<lane allow="moped bicycle pedestrian custom1 trailer evehicle rail_urban ship private truck vip custom2 authority delivery rail_electric taxi tram army hov coach motorcycle passenger rail emergency" index="1" length="22.65181742569602" shape="-43.280150000000006,32.348749999999995 -42.11835,31.76105 -32.53835,27.008699999999997 -22.92785,22.22515" speed="36.11111111111111" width="3.022973122606284"/>
		<lane allow="moped bicycle pedestrian custom1 trailer evehicle rail_urban ship private truck vip custom2 authority delivery rail_electric taxi tram army hov coach motorcycle passenger rail emergency" index="2" length="22.65181742569602" shape="-41.9076,35.06215 -40.712,34.457350000000005 -31.131999999999998,29.705 -21.6211,24.9844" speed="36.11111111111111" width="3.058616492795397"/>
	</edge>
	<edge from="14" function="normal" id="3672" length="43.429643178518916" numLanes="1" priority="1" speed="36.11111111111111" spreadType="center" to="15">
		<lane allow="moped bicycle pedestrian custom1 trailer evehicle rail_urban ship private vip custom2 authority delivery rail_electric taxi tram army hov coach motorcycle passenger rail emergency" index="0" length="43.429643178518916" shape="-21.6211,24.9844 -16.463900000000002,22.44405 -12.8811,20.95955 -9.035250000000001,19.600900000000003 -6.25455,18.6306 -3.7685999999999997,18.13375 -1.53375,17.92135 0.80245,18.03835 2.44695,18.17275 3.5564,18.429000000000002 4.49615,19.012 5.4154,20.3622 6.5711,22.29055 9.23855,26.528 10.8123,29.579749999999997 12.28405,32.691900000000004" speed="36.11111111111111" width="2.91718217634758"/>
	</edge>
	<edge from="15" function="normal" id="3456" length="24.710920579823163" numLanes="3" priority="1" speed="36.11111111111111" spreadType="center" to="16">
		<lane allow="moped bicycle pedestrian custom1 trailer evehicle rail_urban ship private truck vip custom2 authority delivery rail_electric taxi tram army hov coach motorcycle passenger bus rail emergency" index="0" length="24.710920579823163" shape="17.8107,29.9322 21.4065,37.1258 25.25985,45.0429 28.622500000000002,52.1513" speed="36.11111111111111" width="3.0476685974692166"/>
		<lane allow="moped bicycle pedestrian custom1 trailer evehicle rail_urban ship private truck vip custom2 authority delivery rail_electric taxi tram army hov coach motorcycle passenger bus rail emergency" index="1" length="24.710920579823163" shape="14.981850000000001,31.32645 18.84195,38.89335 22.520200000000003,46.45895 25.95905,53.4894" speed="36.11111111111111" width="2.9148241130469628"/>
		<lane allow="moped bicycle pedestrian custom1 trailer evehicle rail_urban ship private truck vip custom2 authority delivery rail_electric taxi tram army hov coach motorcycle passenger bus rail emergency" index="2" length="24.710920579823163" shape="12.28405,32.691900000000004 16.21255,40.4541 20.000999999999998,48.15665 23.37255,54.803250000000006" speed="36.11111111111111" width="2.8880043801905853"/>
	</edge>
	<edge from="16" function="normal" id="3462" length="8.466645302154797" numLanes="3" priority="1" speed="36.11111111111111" spreadType="center" to="17">
		<lane allow="moped bicycle pedestrian custom1 trailer evehicle rail_urban ship private truck vip custom2 authority delivery rail_electric taxi tram army hov coach motorcycle passenger bus rail emergency" index="0" length="8.466645302154797" shape="28.622500000000002,52.1513 32.5018,59.71405" speed="36.11111111111111" width="3.0476685974692166"/>
		<lane allow="moped bicycle pedestrian custom1 trailer evehicle rail_urban ship private truck vip custom2 authority delivery rail_electric taxi tram army hov coach motorcycle passenger bus rail emergency" index="1" length="8.466645302154797" shape="25.95905,53.4894 29.77715,61.0991" speed="36.11111111111111" width="2.9148241130469628"/>
		<lane allow="moped bicycle pedestrian custom1 trailer evehicle rail_urban ship private truck vip custom2 authority delivery rail_electric taxi tram army hov coach motorcycle passenger bus rail emergency" index="2" length="8.466645302154797" shape="23.37255,54.803250000000006 27.1132,62.39875" speed="36.11111111111111" width="2.8880043801905853"/>
	</edge>
	<edge from="17" function="normal" id="3470" length="7.6445065283836335" numLanes="3" priority="1" speed="36.11111111111111" spreadType="center" to="18">
		<lane allow="moped bicycle pedestrian custom1 trailer evehicle rail_urban ship private truck vip custom2 authority delivery rail_electric taxi tram army hov coach motorcycle passenger bus rail emergency" index="0" length="7.6445065283836335" shape="32.5018,59.71405 35.8932,66.5651" speed="36.11111111111111" width="3.054999162029337"/>
		<lane allow="moped bicycle pedestrian custom1 trailer evehicle rail_urban ship private truck vip custom2 authority delivery rail_electric taxi tram army hov coach motorcycle passenger bus rail emergency" index="1" length="7.6445065283836335" shape="29.77715,61.0991 33.19265,67.95145" speed="36.11111111111111" width="2.998011102381041"/>
		<lane allow="moped bicycle pedestrian custom1 trailer evehicle rail_urban ship private truck vip custom2 authority delivery rail_electric taxi tram army hov coach motorcycle passenger bus rail emergency" index="2" length="7.6445065283836335" shape="27.1132,62.39875 30.51515,69.326" speed="36.11111111111111" width="2.9350875710956243"/>
	</edge>
	<edge from="14" function="normal" id="3636" length="10.130444963203738" numLanes="2" priority="1" speed="36.11111111111111" spreadType="center" to="19">
		<lane allow="moped bicycle pedestrian custom1 trailer evehicle rail_urban ship private truck vip custom2 authority delivery rail_electric taxi tram army hov coach motorcycle passenger bus rail emergency" index="0" length="10.130444963203738" shape="-24.35865,19.44455 -15.34755,14.7592" speed="36.11111111111111" width="3.2321866189934005"/>
		<lane allow="moped bicycle pedestrian custom1 trailer evehicle rail_urban ship private truck vip custom2 authority delivery rail_electric taxi tram army hov coach motorcycle passenger bus rail emergency" index="1" length="10.130444963203738" shape="-22.92785,22.22515 -13.90315,17.6229" speed="36.11111111111111" width="3.0254656269738063"/>
	</edge>
	<edge from="19" function="normal" id="3658" length="24.83401336288985" numLanes="2" priority="1" speed="36.11111111111111" spreadType="center" to="20">
		<lane allow="moped bicycle pedestrian custom1 trailer evehicle rail_urban ship private truck vip custom2 authority delivery rail_electric taxi tram army hov coach motorcycle passenger bus rail emergency" index="0" length="24.83401336288985" shape="-15.34755,14.7592 -12.45175,13.2533 -9.79625,11.87255 -7.0793,10.45985 -4.090999999999999,8.90595 -1.38935,7.50105 1.25535,6.1259 3.9709,4.7139 6.742649999999999,3.27265" speed="36.11111111111111" width="3.3089087884074417"/>
		<lane allow="moped bicycle pedestrian custom1 trailer evehicle rail_urban ship private truck vip custom2 authority delivery rail_electric taxi tram army hov coach motorcycle passenger bus rail emergency" index="1" length="24.83401336288985" shape="-13.90315,17.6229 -11.03515,16.1603 -8.36415,14.79825 -5.62585,13.4019 -2.66125,11.890149999999998 0.04920000000000002,10.5079 2.69915,9.156649999999999 5.4336,7.76235 8.2204,6.341200000000001" speed="36.11111111111111" width="3.105783426126168"/>
	</edge>
	<edge from="20" function="normal" id="3676" length="16.155928389455163" numLanes="2" priority="1" speed="36.11111111111111" spreadType="center" to="5">
		<lane allow="moped bicycle pedestrian custom1 trailer evehicle rail_urban ship private truck vip custom2 authority delivery rail_electric taxi tram army hov coach motorcycle passenger bus rail emergency" index="0" length="16.155928389455163" shape="6.742649999999999,3.27265 12.762350000000001,0.2664000000000001 21.196399999999997,-3.9456" speed="36.11111111111111" width="3.503454903377522"/>
		<lane allow="moped bicycle pedestrian custom1 trailer evehicle rail_urban ship private truck vip custom2 authority delivery rail_electric taxi tram army hov coach motorcycle passenger bus rail emergency" index="1" length="16.155928389455163" shape="8.2204,6.341200000000001 14.245049999999999,3.3559 22.74125,-0.8540000000000001" speed="36.11111111111111" width="3.3082245268421553"/>
	</edge>
	<edge from="14" function="normal" id="3600" length="24.197467511365534" numLanes="1" priority="1" speed="36.11111111111111" spreadType="center" to="9">
		<lane allow="moped bicycle pedestrian custom1 trailer evehicle rail_urban ship private vip custom2 authority delivery rail_electric taxi tram army hov coach motorcycle passenger rail emergency" index="0" length="24.197467511365534" shape="-24.35865,19.44455 -19.870350000000002,17.0496 -17.87735,15.8595 -16.2743,14.9489 -15.531199999999998,14.46895 -15.107099999999999,13.88135 -15.0713,13.0744 -15.4785,11.6628 -16.2794,9.69665 -17.25985,7.5983 -20.052750000000003,1.59635" speed="36.11111111111111" width="3.2321866189934005"/>
	</edge>
	<edge from="21" function="normal" id="3502" length="11.539017429977408" numLanes="2" priority="1" speed="36.11111111111111" spreadType="center" to="22">
		<lane allow="moped bicycle pedestrian custom1 trailer evehicle rail_urban ship private truck vip custom2 authority delivery rail_electric taxi tram army hov coach motorcycle passenger bus rail emergency" index="0" length="11.539017429977408" shape="40.910349999999994,1.6916 35.86065,4.16 30.51625,6.77255" speed="36.11111111111111" width="3.607231317783765"/>
		<lane allow="moped bicycle pedestrian custom1 trailer evehicle rail_urban ship private truck vip custom2 authority delivery rail_electric taxi tram army hov coach motorcycle passenger bus rail emergency" index="1" length="11.539017429977408" shape="39.30575,-1.57425 34.33015,0.8584 28.939300000000003,3.49385" speed="36.11111111111111" width="3.6307914977315874"/>
	</edge>
	<edge from="22" function="normal" id="3528" length="6.575577396130323" numLanes="3" priority="1" speed="36.11111111111111" spreadType="center" to="23">
		<lane allow="moped bicycle pedestrian custom1 trailer evehicle rail_urban ship private truck vip custom2 authority delivery rail_electric taxi tram army hov coach motorcycle passenger bus rail emergency" index="0" length="6.575577396130323" shape="30.51625,6.77255 26.0934,12.7944" speed="36.11111111111111" width="3.245737241367515"/>
		<lane allow="moped bicycle pedestrian custom1 trailer evehicle rail_urban ship private truck vip custom2 authority delivery rail_electric taxi tram army hov coach motorcycle passenger bus rail emergency" index="1" length="6.575577396130323" shape="30.51625,6.77255 24.60425,9.71255" speed="36.11111111111111" width="3.6024336135451542"/>
		<lane allow="moped bicycle pedestrian custom1 trailer evehicle rail_urban ship private truck vip custom2 authority delivery rail_electric taxi tram army hov coach motorcycle passenger bus rail emergency" index="2" length="6.575577396130323" shape="28.939300000000003,3.49385 23.05125,6.421150000000001" speed="36.11111111111111" width="3.6713079753679065"/>
	</edge>
	<edge from="23" function="normal" id="3534" length="6.608363657139339" numLanes="3" priority="1" speed="36.11111111111111" spreadType="center" to="24">
		<lane allow="moped bicycle pedestrian custom1 trailer evehicle rail_urban ship private truck vip custom2 authority delivery rail_electric taxi tram army hov coach motorcycle passenger bus rail emergency" index="0" length="6.608363657139339" shape="26.0934,12.7944 20.11385,15.68385" speed="36.11111111111111" width="3.190167196245363"/>
		<lane allow="moped bicycle pedestrian custom1 trailer evehicle rail_urban ship private truck vip custom2 authority delivery rail_electric taxi tram army hov coach motorcycle passenger bus rail emergency" index="1" length="6.608363657139339" shape="24.60425,9.71255 18.664099999999998,12.6573" speed="36.11111111111111" width="3.5215687697388494"/>
		<lane allow="moped bicycle pedestrian custom1 trailer evehicle rail_urban ship private truck vip custom2 authority delivery rail_electric taxi tram army hov coach motorcycle passenger bus rail emergency" index="2" length="6.608363657139339" shape="23.05125,6.421150000000001 17.141199999999998,9.3778" speed="36.11111111111111" width="3.677371487897299"/>
	</edge>
	<edge from="24" function="normal" id="3620" length="6.669397413559939" numLanes="2" priority="1" speed="36.11111111111111" spreadType="center" to="25">