<routes>
	<vehicle depart="0.1" departLane="1" departPos="11.44926522785339" departSpeed="9.6378" id="1213" type="passenger">
		<route edges="3652 3616 3456 3462 3470"/>
	</vehicle>
	<vehicle depart="0.1" departLane="0" departPos="17.13424890380439" departSpeed="10.0919" id="1214" type="passenger">
		<route edges="3652 3616 3456 3462 3470"/>
	</vehicle>
	<vehicle depart="0.1" departLane="0" departPos="0" departSpeed="9.2324" id="1216" type="passenger">
		<route edges="3652 3616 3456 3462 3470"/>
	</vehicle>
	<vehicle depart="0.1" departLane="1" departPos="41.56189728917717" departSpeed="5.5748" id="1219" type="passenger">
		<route edges="3573 3632 3652 3616 3456 3462 3470"/>
	</vehicle>
	<vehicle depart="0.1" departLane="1" departPos="29.960510808669763" departSpeed="3.2644" id="1221" type="passenger">
		<route edges="3573 3632 3652 3616 3456 3462 3470"/>
	</vehicle>
	<vehicle depart="0.1" departLane="0" departPos="18.217427156349792" departSpeed="4.1057" id="1223" type="passenger">
		<route edges="3573 3680 3495"/>
	</vehicle>
	<vehicle depart="0.1" departLane="1" departPos="20.310145552578472" departSpeed="6.4953" id="1230" type="passenger">
		<route edges="3680 3680 3495"/>
	</vehicle>
	<vehicle depart="0.1" departLane="1" departPos="19.34569988844441" departSpeed="2.3866" id="1231" type="passenger">
		<route edges="3573 3632 3652 3616 3456 3462 3470"/>
	</vehicle>
	<vehicle depart="0.1" departLane="2" departPos="0" departSpeed="6.1143" id="1235" type="passenger">
		<route edges="3652 3616 3672 3616 3456 3462 3470"/>
	</vehicle>
	<vehicle depart="0.1" departLane="1" departPos="0" departSpeed="1.2588" id="1236" type="passenger">
		<route edges="3573 3680 3495"/>
	</vehicle>
	<vehicle depart="0.1" departLane="2" departPos="0" departSpeed="7.1719" id="1239" type="passenger">
		<route edges="3632 3652 3616 3456 3462 3470"/>
	</vehicle>
	<vehicle depart="0.1" departLane="0" departPos="0" departSpeed="5.5717" id="1240" type="passenger">
		<route edges="3680 3495"/>
	</vehicle>
	<vehicle depart="0.1" departLane="2" departPos="41.65840591059532" departSpeed="2.6609" id="1242" type="passenger">
		<route edges="3573 3632 3652 3616 3456 3462 3470"/>
	</vehicle>
	<vehicle depart="0.1" departLane="2" departPos="26.232837558723578" departSpeed="2.9352" id="1245" type="passenger">
		<route edges="3573 3632 3652 3616 3456 3462 3470"/>
	</vehicle>
	<vehicle depart="0.1" departLane="2" departPos="18.129081173389206" departSpeed="1.3045" id="1247" type="passenger">
		<route edges="3573 3632 3652 3616 3456 3462 3470"/>
	</vehicle>
	<vehicle depart="0.1" departLane="0" departPos="29.542588475578448" departSpeed="5.0932" id="1253" type="passenger">
		<route edges="3573 3680 3680 3495"/>
	</vehicle>
	<vehicle depart="0.1" departLane="3" departPos="41.74398239742749" departSpeed="5.4376" id="1254" type="passenger">
		<route edges="3573 3632 3652 3616 3456 3462 3470"/>
	</vehicle>
	<vehicle depart="0.1" departLane="0" departPos="0" departSpeed="0.0" id="1255" type="passenger">
		<route edges="3670 3640 3487"/>
	</vehicle>
	<vehicle depart="0.1" departLane="1" departPos="0" departSpeed="0.9967" id="1257" type="passenger">
		<route edges="3573 3680 3495"/>
	</vehicle>
	<vehicle depart="0.1" departLane="4" departPos="0" departSpeed="5.2212" id="1261" type="passenger">
		<route edges="3450 3664 3495"/>
	</vehicle>
	<vehicle depart="0.1" departLane="0" departPos="0" departSpeed="0.0" id="1265" type="passenger">
		<route edges="3600 3542"/>
	</vehicle>
	<vehicle depart="0.1" departLane="3" departPos="22.11951849156322" departSpeed="3.1242" id="1266" type="passenger">
		<route edges="3573 3632 3652 3616 3456 3462 3470"/>
	</vehicle>
	<vehicle depart="0.1" departLane="2" departPos="0" departSpeed="3.301" id="1267" type="passenger">
		<route edges="3573 3632 3652 3616 3456 3462 3470"/>
	</vehicle>
	<vehicle depart="0.1" departLane="3" departPos="0" departSpeed="4.956" id="1270" type="passenger">
		<route edges="3573 3632 3652 3616 3456 3462 3470"/>
	</vehicle>
</routes>
