<?xml version="1.0" encoding="UTF-8"?>

<!-- generated on Fri Dec 18 15:58:25 2020 by Eclipse SUMO netconvert Version 1.8.0
<configuration xmlns:xsi="http://www.w3.org/2001/XMLSchema-instance" xsi:noNamespaceSchemaLocation="http://sumo.dlr.de/xsd/netconvertConfiguration.xsd">

    <input>
        <node-files value="./converted_scenarios/NGSIM/Lankershim/USA_Lanker-1_1_I-1-1/nodes.net.xml"/>
        <edge-files value="./converted_scenarios/NGSIM/Lankershim/USA_Lanker-1_1_I-1-1/edges.net.xml"/>
        <connection-files value="./converted_scenarios/NGSIM/Lankershim/USA_Lanker-1_1_I-1-1/_connections.net.xml"/>
        <tllogic-files value="./converted_scenarios/NGSIM/Lankershim/USA_Lanker-1_1_I-1-1/_tll.net.xml"/>
    </input>

    <output>
        <output-file value="./converted_scenarios/NGSIM/Lankershim/USA_Lanker-1_1_I-1-1/USA_Lanker-1_1_I-1-1.net.xml"/>
    </output>

    <processing>
        <plain.extend-edge-shape value="true"/>
        <geometry.remove.keep-edges.explicit value="true"/>
        <geometry.avoid-overlap value="true"/>
        <offset.disable-normalization value="true"/>
    </processing>

    <junctions>
        <no-turnarounds value="true"/>
        <junctions.internal-link-detail value="20"/>
    </junctions>

    <report>
        <aggregate-warnings value="5"/>
    </report>

    <random_number>
        <seed value="1234"/>
    </random_number>

</configuration>
-->

<net version="1.6" junctionCornerDetail="5" junctionLinkDetail="20" limitTurnSpeed="5.50" xmlns:xsi="http://www.w3.org/2001/XMLSchema-instance" xsi:noNamespaceSchemaLocation="http://sumo.dlr.de/xsd/net_file.xsd">

    <location netOffset="0.00,0.00" convBoundary="-43.29,-44.49,40.11,73.49" origBoundary="-44.69,-47.22,40.91,76.24" projParameter="!"/>

    <edge id=":11_0" function="internal">
        <lane id=":11_0_0" index="0" disallow="bus truck rail_fast" speed="36.11" length="8.30" width="4.58" shape="-24.63,38.13 -16.77,35.46"/>
    </edge>
    <edge id=":11_1" function="internal">
        <lane id=":11_1_0" index="0" disallow="rail_fast" speed="36.11" length="1.01" width="3.11" shape="-17.68,30.61 -18.61,31.03"/>
        <lane id=":11_1_1" index="1" disallow="rail_fast" speed="36.11" length="1.01" width="3.66" shape="-19.01,27.46 -19.91,27.89"/>
    </edge>
    <edge id=":14_0" function="internal">
        <lane id=":14_0_0" index="0" disallow="bus truck rail_fast" speed="7.94" length="13.70" width="3.23" shape="-26.03,20.28 -24.81,19.67 -23.66,19.08 -22.58,18.52 -21.57,17.98 -20.63,17.47 -19.75,16.99 -18.95,16.53 -18.22,16.09 -17.55,15.68 -16.96,15.30 -16.44,14.94 -15.98,14.61 -15.60,14.30 -15.28,14.01 -15.03,13.76 -14.86,13.53 -14.75,13.32 -14.71,13.14 -14.74,12.98"/>
    </edge>
    <edge id=":14_1" function="internal">
        <lane id=":14_1_0" index="0" disallow="rail_fast" speed="36.11" length="13.45" width="3.23" shape="-26.03,20.28 -14.10,14.11"/>
        <lane id=":14_1_1" index="1" disallow="bus rail_fast" speed="36.11" length="13.45" width="3.03" shape="-24.65,23.08 -12.64,16.98"/>
    </edge>
    <edge id=":14_3" function="internal">
        <lane id=":14_3_0" index="0" disallow="bus truck rail_fast" speed="36.11" length="2.11" width="2.92" shape="-23.29,25.81 -25.18,26.74"/>
    </edge>
    <edge id=":15_0" function="internal">
        <lane id=":15_0_0" index="0" disallow="bus truck rail_fast" speed="9.12" length="13.80" width="3.05" shape="17.44,17.84 17.07,18.27 16.75,18.72 16.47,19.21 16.24,19.72 16.05,20.26 15.91,20.83 15.82,21.42 15.77,22.05 15.77,22.70 15.81,23.38 15.90,24.09 16.03,24.83 16.21,25.60 16.43,26.39 16.70,27.22 17.02,28.07 17.38,28.95 17.79,29.86 18.24,30.79"/>
    </edge>
    <edge id=":15_1" function="internal">
        <lane id=":15_1_0" index="0" disallow="rail_fast" speed="36.11" length="13.06" width="3.05" shape="12.60,19.06 18.24,30.79"/>
        <lane id=":15_1_1" index="1" disallow="rail_fast" speed="36.11" length="13.06" width="2.91" shape="9.78,20.42 15.43,32.20"/>
        <lane id=":15_1_2" index="2" disallow="rail_fast" speed="36.11" length="13.06" width="2.89" shape="7.05,21.73 12.72,33.55"/>
    </edge>
    <edge id=":15_4" function="internal">
        <lane id=":15_4_0" index="0" disallow="bus truck rail_fast" speed="36.11" length="13.55" width="2.89" shape="6.20,21.67 12.72,33.55"/>
    </edge>
    <edge id=":16_0" function="internal">
        <lane id=":16_0_0" index="0" disallow="rail_fast" speed="36.11" length="0.24" width="3.05" shape="28.57,52.05 28.68,52.25"/>
        <lane id=":16_0_1" index="1" disallow="rail_fast" speed="36.11" length="0.24" width="2.91" shape="25.91,53.38 26.01,53.60"/>
        <lane id=":16_0_2" index="2" disallow="rail_fast" speed="36.11" length="0.24" width="2.89" shape="23.31,54.68 23.42,54.90"/>
    </edge>
    <edge id=":17_0" function="internal">
        <lane id=":17_0_0" index="0" disallow="rail_fast" speed="36.11" length="3.05" width="3.05" shape="31.79,58.33 33.17,61.06"/>
        <lane id=":17_0_1" index="1" disallow="rail_fast" speed="36.11" length="3.05" width="3.00" shape="29.07,59.69 30.43,62.42"/>
        <lane id=":17_0_2" index="2" disallow="rail_fast" speed="36.11" length="3.05" width="2.94" shape="26.43,61.01 27.77,63.74"/>
    </edge>
    <edge id=":19_0" function="internal">
        <lane id=":19_0_0" index="0" disallow="rail_fast" speed="36.11" length="0.12" width="3.31" shape="-13.93,14.02 -14.03,14.07"/>
        <lane id=":19_0_1" index="1" disallow="rail_fast" speed="36.11" length="0.12" width="3.11" shape="-12.46,16.89 -12.57,16.94"/>
    </edge>
    <edge id=":2_0" function="internal">
        <lane id=":2_0_0" index="0" disallow="rail_fast" speed="21.97" length="7.43" width="2.94" shape="14.69,71.58 14.43,71.08 14.19,70.64 13.97,70.24 13.76,69.88 13.56,69.56 13.37,69.27 13.18,69.01 12.98,68.77 12.79,68.54 12.58,68.32 12.37,68.10 12.14,67.88 11.90,67.66 11.63,67.42 11.35,67.17 11.04,66.89 10.69,66.58 10.32,66.24 9.91,65.85"/>
        <lane id=":2_0_1" index="1" disallow="rail_fast" speed="36.11" length="7.43" width="2.94" shape="14.69,71.58 11.38,65.02"/>
        <lane id=":2_0_2" index="2" disallow="rail_fast" speed="36.11" length="7.43" width="3.05" shape="17.35,70.23 14.02,63.52"/>
        <lane id=":2_0_3" index="3" disallow="rail_fast" speed="36.11" length="7.43" width="3.03" shape="20.08,68.86 16.68,62.02"/>
        <lane id=":2_0_4" index="4" disallow="rail_fast" speed="36.11" length="7.43" width="3.05" shape="22.81,67.48 19.34,60.51"/>
        <lane id=":2_0_5" index="5" disallow="rail_fast" speed="36.11" length="7.43" width="3.12" shape="25.56,66.09 22.57,60.03"/>
    </edge>
    <edge id=":20_0" function="internal">
        <lane id=":20_0_0" index="0" disallow="rail_fast" speed="36.11" length="3.06" width="3.50" shape="5.34,4.00 8.08,2.61"/>
        <lane id=":20_0_1" index="1" disallow="rail_fast" speed="36.11" length="3.06" width="3.31" shape="6.85,7.04 9.58,5.67"/>
    </edge>
    <edge id=":22_0" function="internal">
        <lane id=":22_0_0" index="0" disallow="rail_fast" speed="14.45" length="8.28" width="3.25" shape="34.16,4.99 33.62,5.26 33.13,5.50 32.69,5.72 32.29,5.94 31.93,6.14 31.60,6.33 31.30,6.52 31.02,6.72 30.76,6.92 30.51,7.13 30.27,7.36 30.03,7.60 29.79,7.87 29.54,8.16 29.28,8.49 29.01,8.84 28.71,9.24 28.38,9.68 28.02,10.17"/>
        <lane id=":22_0_1" index="1" disallow="rail_fast" speed="36.11" length="8.28" width="3.60" shape="34.16,4.99 26.93,8.56"/>
        <lane id=":22_0_2" index="2" disallow="rail_fast" speed="36.11" length="8.28" width="3.67" shape="32.58,1.72 24.87,5.52"/>
    </edge>
    <edge id=":23_0" function="internal">
        <lane id=":23_0_0" index="0" disallow="rail_fast" speed="9.74" length="3.41" width="3.19" shape="26.69,11.99 26.52,12.20 26.37,12.39 26.23,12.56 26.09,12.71 25.96,12.83 25.83,12.94 25.70,13.04 25.57,13.12 25.44,13.20 25.31,13.27 25.17,13.33 25.03,13.39 24.87,13.45 24.71,13.52 24.53,13.59 24.34,13.67 24.13,13.76 23.90,13.86 23.65,13.97"/>
        <lane id=":23_0_1" index="1" disallow="rail_fast" speed="36.11" length="3.41" width="3.52" shape="25.21,9.41 22.18,10.92"/>
        <lane id=":23_0_2" index="2" disallow="rail_fast" speed="36.11" length="3.41" width="3.68" shape="23.40,6.25 20.60,7.65"/>
    </edge>
    <edge id=":24_0" function="internal">
        <lane id=":24_0_0" index="0" disallow="bus truck rail_fast" speed="14.27" length="3.68" width="2.93" shape="21.03,15.24 20.78,15.36 20.56,15.46 20.35,15.56 20.17,15.64 20.00,15.72 19.84,15.80 19.70,15.87 19.56,15.94 19.43,16.01 19.30,16.09 19.18,16.17 19.06,16.25 18.93,16.35 18.80,16.46 18.66,16.58 18.51,16.72 18.35,16.88 18.18,17.05 17.99,17.25"/>
    </edge>
    <edge id=":24_1" function="internal">
        <lane id=":24_1_0" index="0" disallow="rail_fast" speed="36.11" length="11.27" width="3.46" shape="19.58,12.21 9.49,17.20"/>
        <lane id=":24_1_1" index="1" disallow="rail_fast" speed="36.11" length="11.27" width="3.70" shape="18.01,8.94 7.93,14.00"/>
    </edge>
    <edge id=":24_3" function="internal">
        <lane id=":24_3_0" index="0" disallow="bus truck rail_fast" speed="17.55" length="16.88" width="3.01" shape="18.01,8.94 16.87,9.50 15.78,10.00 14.75,10.44 13.76,10.84 12.81,11.18 11.90,11.48 11.03,11.73 10.18,11.94 9.37,12.11 8.57,12.25 7.80,12.35 7.03,12.42 6.28,12.46 5.54,12.48 4.79,12.47 4.05,12.44 3.29,12.39 2.53,12.33 1.76,12.25"/>
    </edge>
    <edge id=":25_0" function="internal">
        <lane id=":25_0_0" index="0" disallow="rail_fast" speed="36.11" length="2.24" width="3.21" shape="9.31,17.29 11.32,16.29"/>
        <lane id=":25_0_1" index="1" disallow="rail_fast" speed="36.11" length="2.24" width="3.68" shape="7.75,14.09 9.75,13.09"/>
    </edge>
    <edge id=":26_0" function="internal">
        <lane id=":26_0_0" index="0" disallow="rail_fast" speed="36.11" length="14.96" width="3.17" shape="1.65,21.08 -11.76,27.71"/>
        <lane id=":26_0_1" index="1" disallow="rail_fast" speed="36.11" length="14.96" width="3.68" shape="0.07,17.94 -13.30,24.63"/>
    </edge>
    <edge id=":26_2" function="internal">
        <lane id=":26_2_0" index="0" disallow="bus truck rail_fast" speed="11.28" length="15.17" width="3.68" shape="-4.46,13.05 -4.62,13.87 -4.81,14.67 -5.04,15.44 -5.31,16.19 -5.60,16.91 -5.93,17.61 -6.30,18.29 -6.69,18.95 -7.13,19.58 -7.59,20.19 -8.09,20.78 -8.62,21.34 -9.19,21.88 -9.79,22.40 -10.42,22.89 -11.09,23.36 -11.79,23.81 -12.53,24.23 -13.30,24.63"/>
    </edge>
    <edge id=":28_0" function="internal">
        <lane id=":28_0_0" index="0" disallow="bus truck rail_fast" speed="10.22" length="10.24" width="3.11" shape="1.54,-12.02 1.77,-11.62 2.03,-11.23 2.31,-10.85 2.61,-10.49 2.94,-10.14 3.29,-9.80 3.66,-9.47 4.05,-9.16 4.46,-8.86 4.90,-8.58 5.36,-8.30 5.85,-8.04 6.35,-7.79 6.88,-7.56 7.43,-7.34 8.00,-7.13 8.60,-6.93 9.22,-6.75 9.86,-6.58"/>
    </edge>
    <edge id=":28_1" function="internal">
        <lane id=":28_1_0" index="0" disallow="bus truck rail_fast" speed="11.58" length="11.05" width="3.13" shape="-1.52,-10.42 -1.16,-9.70 -0.81,-9.07 -0.49,-8.50 -0.16,-7.99 0.15,-7.54 0.47,-7.14 0.79,-6.78 1.12,-6.46 1.47,-6.17 1.83,-5.91 2.22,-5.67 2.64,-5.44 3.08,-5.22 3.57,-5.01 4.10,-4.79 4.68,-4.56 5.31,-4.31 5.99,-4.04 6.74,-3.75"/>
    </edge>
    <edge id=":28_2" function="internal">
        <lane id=":28_2_0" index="0" disallow="rail_fast" speed="36.11" length="10.45" width="3.12" shape="-1.52,-10.42 3.05,-0.86"/>
        <lane id=":28_2_1" index="1" disallow="rail_fast" speed="36.11" length="10.45" width="3.06" shape="-4.25,-8.98 0.25,0.46"/>
        <lane id=":28_2_2" index="2" disallow="rail_fast" speed="36.11" length="10.45" width="2.98" shape="-6.95,-7.56 -2.49,1.74"/>
    </edge>
    <edge id=":28_5" function="internal">
        <lane id=":28_5_0" index="0" disallow="bus truck rail_fast" speed="36.11" length="10.20" width="2.87" shape="-9.63,-6.15 -9.30,-5.46 -8.99,-4.84 -8.71,-4.28 -8.46,-3.78 -8.23,-3.31 -8.01,-2.88 -7.82,-2.48 -7.63,-2.09 -7.46,-1.72 -7.29,-1.35 -7.13,-0.97 -6.96,-0.58 -6.80,-0.17 -6.63,0.27 -6.45,0.75 -6.25,1.27 -6.05,1.85 -5.82,2.49 -5.57,3.20"/>
    </edge>
    <edge id=":29_0" function="internal">
        <lane id=":29_0_0" index="0" disallow="rail_fast" speed="36.11" length="3.22" width="3.12" shape="3.93,1.00 5.31,3.90"/>
        <lane id=":29_0_1" index="1" disallow="rail_fast" speed="36.11" length="3.22" width="3.06" shape="1.17,2.40 2.56,5.30"/>
        <lane id=":29_0_2" index="2" disallow="rail_fast" speed="36.11" length="3.22" width="2.95" shape="-1.52,3.77 -0.13,6.68"/>
    </edge>
    <edge id=":3_0" function="internal">
        <lane id=":3_0_0" index="0" disallow="rail_fast" speed="15.71" length="3.50" width="3.22" shape="9.53,65.49 9.32,65.31 9.13,65.15 8.95,65.01 8.78,64.88 8.62,64.78 8.47,64.68 8.32,64.59 8.19,64.51 8.06,64.42 7.93,64.34 7.81,64.25 7.69,64.15 7.57,64.05 7.45,63.92 7.33,63.78 7.22,63.62 7.09,63.44 6.97,63.23 6.84,62.98"/>
        <lane id=":3_0_1" index="1" disallow="rail_fast" speed="36.11" length="3.50" width="2.87" shape="11.19,64.64 9.67,61.62"/>
        <lane id=":3_0_2" index="2" disallow="rail_fast" speed="36.11" length="3.50" width="3.00" shape="13.89,63.25 12.42,60.29"/>
        <lane id=":3_0_3" index="3" disallow="rail_fast" speed="36.11" length="3.50" width="3.02" shape="16.60,61.85 15.15,58.95"/>
        <lane id=":3_0_4" index="4" disallow="rail_fast" speed="36.11" length="3.50" width="3.02" shape="19.29,60.42 17.87,57.57"/>
        <lane id=":3_0_5" index="5" disallow="rail_fast" speed="36.11" length="3.50" width="3.03" shape="22.48,59.85 20.65,56.15"/>
    </edge>
    <edge id=":30_0" function="internal">
        <lane id=":30_0_0" index="0" disallow="rail_fast" speed="36.11" length="2.64" width="3.14" shape="11.36,16.49 12.51,18.88"/>
        <lane id=":30_0_1" index="1" disallow="rail_fast" speed="36.11" length="2.64" width="3.10" shape="8.56,17.85 9.69,20.24"/>
        <lane id=":30_0_2" index="2" disallow="rail_fast" speed="36.11" length="2.64" width="2.93" shape="5.83,19.17 6.97,21.55"/>
    </edge>
    <edge id=":4_0" function="internal">
        <lane id=":4_0_0" index="0" disallow="bus truck rail_fast" speed="36.11" length="5.96" width="3.84" shape="-2.42,44.57 -2.63,44.17 -2.81,43.81 -2.97,43.49 -3.12,43.19 -3.25,42.92 -3.37,42.67 -3.49,42.44 -3.60,42.22 -3.72,42.01 -3.83,41.81 -3.96,41.60 -4.09,41.39 -4.23,41.18 -4.39,40.95 -4.57,40.71 -4.76,40.45 -4.98,40.16 -5.23,39.85 -5.51,39.50"/>
    </edge>
    <edge id=":4_1" function="internal">
        <lane id=":4_1_0" index="0" disallow="rail_fast" speed="36.11" length="6.33" width="2.87" shape="0.53,43.06 -2.32,37.37"/>
        <lane id=":4_1_1" index="1" disallow="rail_fast" speed="36.11" length="6.33" width="3.02" shape="3.19,41.70 0.34,36.05"/>
        <lane id=":4_1_2" index="2" disallow="rail_fast" speed="36.11" length="6.33" width="3.12" shape="5.92,40.31 3.12,34.68"/>
    </edge>
    <edge id=":4_4" function="internal">
        <lane id=":4_4_0" index="0" disallow="bus truck rail_fast" speed="36.11" length="6.26" width="2.93" shape="8.66,38.91 5.86,33.32"/>
    </edge>
    <edge id=":4_5" function="internal">
        <lane id=":4_5_0" index="0" disallow="bus truck rail_fast" speed="36.11" length="6.22" width="3.03" shape="11.37,37.53 8.60,31.96"/>
    </edge>
    <edge id=":5_0" function="internal">
        <lane id=":5_0_0" index="0" disallow="bus truck rail_fast" speed="10.83" length="9.96" width="3.88" shape="10.71,-6.37 11.35,-6.21 11.94,-6.07 12.47,-5.95 12.96,-5.84 13.42,-5.76 13.84,-5.70 14.24,-5.66 14.62,-5.64 14.99,-5.65 15.36,-5.68 15.72,-5.73 16.09,-5.81 16.48,-5.92 16.88,-6.06 17.31,-6.22 17.77,-6.42 18.26,-6.64 18.80,-6.90 19.39,-7.19"/>
        <lane id=":5_0_1" index="1" disallow="bus truck rail_fast" speed="12.01" length="9.96" width="3.51" shape="10.59,-2.81 11.36,-2.63 12.06,-2.47 12.71,-2.33 13.30,-2.21 13.84,-2.12 14.36,-2.05 14.84,-2.00 15.30,-1.99 15.74,-2.00 16.18,-2.04 16.61,-2.11 17.06,-2.21 17.52,-2.34 18.00,-2.51 18.52,-2.70 19.07,-2.94 19.67,-3.21 20.32,-3.52 21.03,-3.86"/>
    </edge>
    <edge id=":5_2" function="internal">
        <lane id=":5_2_0" index="0" disallow="bus truck rail_fast" speed="36.11" length="10.89" width="3.51" shape="11.37,1.24 21.03,-3.86"/>
        <lane id=":5_2_1" index="1" disallow="bus truck rail_fast" speed="36.11" length="10.89" width="3.38" shape="13.11,4.56 13.78,4.09 14.38,3.67 14.92,3.30 15.42,2.96 15.88,2.66 16.31,2.39 16.71,2.15 17.10,1.93 17.48,1.72 17.86,1.51 18.24,1.32 18.65,1.12 19.07,0.91 19.53,0.69 20.03,0.46 20.57,0.20 21.17,-0.09 21.83,-0.41 22.56,-0.76"/>
    </edge>
    <edge id=":5_4" function="internal">
        <lane id=":5_4_0" index="0" disallow="rail_fast" speed="36.11" length="13.99" width="3.51" shape="8.51,2.39 21.03,-3.86"/>
        <lane id=":5_4_1" index="1" disallow="rail_fast" speed="36.11" length="13.99" width="3.38" shape="10.03,5.45 22.56,-0.76"/>
    </edge>
    <edge id=":7_0" function="internal">
        <lane id=":7_0_0" index="0" disallow="rail_fast" speed="36.11" length="3.02" width="3.06" shape="-6.63,28.68 -7.97,25.97"/>
        <lane id=":7_0_1" index="1" disallow="rail_fast" speed="36.11" length="3.02" width="2.99" shape="-3.91,27.34 -5.23,24.63"/>
        <lane id=":7_0_2" index="2" disallow="rail_fast" speed="36.11" length="3.02" width="3.06" shape="-1.15,25.99 -2.48,23.28"/>
    </edge>
    <edge id=":8_0" function="internal">
        <lane id=":8_0_0" index="0" disallow="rail_fast" speed="36.11" length="0.10" width="3.29" shape="-13.94,13.92 -13.96,13.89"/>
        <lane id=":8_0_1" index="1" disallow="rail_fast" speed="36.11" length="0.10" width="2.97" shape="-11.16,12.49 -11.18,12.46"/>
        <lane id=":8_0_2" index="2" disallow="rail_fast" speed="36.11" length="0.10" width="3.01" shape="-8.47,11.10 -8.48,11.07"/>
    </edge>
    <edge id=":9_0" function="internal">
        <lane id=":9_0_0" index="0" disallow="bus rail_fast" speed="36.11" length="15.32" width="2.85" shape="-14.05,13.71 -20.84,-0.02"/>
        <lane id=":9_0_1" index="1" disallow="rail_fast" speed="36.11" length="15.32" width="2.97" shape="-11.26,12.28 -18.00,-1.48"/>
        <lane id=":9_0_2" index="2" disallow="rail_fast" speed="36.11" length="15.32" width="2.96" shape="-8.57,10.89 -15.32,-2.85"/>
    </edge>
    <edge id=":9_3" function="internal">
        <lane id=":9_3_0" index="0" disallow="bus truck rail_fast" speed="14.99" length="18.43" width="2.96" shape="-4.04,11.20 -4.75,10.87 -5.43,10.51 -6.09,10.12 -6.73,9.68 -7.34,9.20 -7.94,8.68 -8.52,8.11 -9.09,7.50 -9.65,6.84 -10.21,6.12 -10.76,5.36 -11.30,4.54 -11.85,3.66 -12.41,2.73 -12.97,1.74 -13.53,0.69 -14.11,-0.43 -14.71,-1.61 -15.32,-2.85"/>
    </edge>
    <edge id=":9_4" function="internal">
        <lane id=":9_4_0" index="0" disallow="bus truck rail_fast" speed="36.11" length="14.16" width="2.85" shape="-14.83,12.80 -20.84,-0.02"/>
    </edge>

    <edge id="3431" from="1" to="2" priority="1" spreadType="center" length="7.75">
        <lane id="3431_0" index="0" disallow="rail_fast" speed="36.11" length="7.75" width="2.84" customShape="1" shape="16.99,76.15 14.69,71.58"/>
        <lane id="3431_1" index="1" disallow="rail_fast" speed="36.11" length="7.75" width="3.06" customShape="1" shape="19.67,74.89 17.35,70.23"/>
        <lane id="3431_2" index="2" disallow="rail_fast" speed="36.11" length="7.75" width="3.03" customShape="1" shape="22.38,73.50 20.08,68.86"/>
        <lane id="3431_3" index="3" disallow="rail_fast" speed="36.11" length="7.75" width="3.05" customShape="1" shape="25.12,72.16 22.81,67.48"/>
        <lane id="3431_4" index="4" disallow="rail_fast" speed="36.11" length="7.75" width="3.05" customShape="1" shape="27.87,70.81 25.56,66.09"/>
    </edge>
    <edge id="3438" from="2" to="3" priority="1" spreadType="center" length="8.44">
        <lane id="3438_0" index="0" disallow="rail_fast" speed="36.11" length="8.44" width="2.94" customShape="1" shape="9.91,65.85 9.53,65.49"/>
        <lane id="3438_1" index="1" disallow="rail_fast" speed="36.11" length="8.44" width="2.94" customShape="1" shape="11.38,65.02 11.19,64.64"/>
        <lane id="3438_2" index="2" disallow="rail_fast" speed="36.11" length="8.44" width="3.05" customShape="1" shape="14.02,63.52 13.89,63.25"/>
        <lane id="3438_3" index="3" disallow="rail_fast" speed="36.11" length="8.44" width="3.03" customShape="1" shape="16.68,62.02 16.60,61.85"/>
        <lane id="3438_4" index="4" disallow="rail_fast" speed="36.11" length="8.44" width="3.05" customShape="1" shape="19.34,60.51 19.29,60.42"/>
        <lane id="3438_5" index="5" disallow="rail_fast" speed="36.11" length="8.44" width="3.12" customShape="1" shape="22.57,60.03 22.48,59.85"/>
    </edge>
    <edge id="3450" from="3" to="4" priority="1" spreadType="center" length="24.49">
        <lane id="3450_0" index="0" disallow="rail_fast" speed="36.11" length="24.49" width="3.22" customShape="1" shape="6.84,62.98 3.66,56.72 -0.13,49.03 -2.42,44.57"/>
        <lane id="3450_1" index="1" disallow="rail_fast" speed="36.11" length="24.49" width="2.87" customShape="1" shape="9.67,61.62 6.66,55.57 2.84,47.62 0.53,43.06"/>
        <lane id="3450_2" index="2" disallow="rail_fast" speed="36.11" length="24.49" width="3.00" customShape="1" shape="12.42,60.29 9.39,54.24 5.54,46.29 3.19,41.70"/>
        <lane id="3450_3" index="3" disallow="rail_fast" speed="36.11" length="24.49" width="3.02" customShape="1" shape="15.15,58.95 12.06,52.79 8.18,44.84 5.92,40.31"/>
        <lane id="3450_4" index="4" disallow="rail_fast" speed="36.11" length="24.49" width="3.02" customShape="1" shape="17.87,57.57 14.75,51.33 10.86,43.38 8.66,38.91"/>
        <lane id="3450_5" index="5" disallow="rail_fast" speed="36.11" length="24.49" width="3.03" customShape="1" shape="20.65,56.15 17.44,49.83 13.56,41.88 11.37,37.53"/>
    </edge>
    <edge id="3456" from="15" to="16" priority="1" spreadType="center" length="24.71">
        <lane id="3456_0" index="0" disallow="rail_fast" speed="36.11" length="24.71" width="3.05" customShape="1" shape="18.24,30.79 21.41,37.13 25.26,45.04 28.57,52.05"/>
        <lane id="3456_1" index="1" disallow="rail_fast" speed="36.11" length="24.71" width="2.91" customShape="1" shape="15.43,32.20 18.84,38.89 22.52,46.46 25.91,53.38"/>
        <lane id="3456_2" index="2" disallow="rail_fast" speed="36.11" length="24.71" width="2.89" customShape="1" shape="12.72,33.55 16.21,40.45 20.00,48.16 23.31,54.68"/>
    </edge>
    <edge id="3462" from="16" to="17" priority="1" spreadType="center" length="8.47">
        <lane id="3462_0" index="0" disallow="rail_fast" speed="36.11" length="8.47" width="3.05" customShape="1" shape="28.68,52.25 31.79,58.33"/>
        <lane id="3462_1" index="1" disallow="rail_fast" speed="36.11" length="8.47" width="2.91" customShape="1" shape="26.01,53.60 29.07,59.69"/>
        <lane id="3462_2" index="2" disallow="rail_fast" speed="36.11" length="8.47" width="2.89" customShape="1" shape="23.42,54.90 26.43,61.01"/>
    </edge>
    <edge id="3470" from="17" to="18" priority="1" spreadType="center" length="7.64">
        <lane id="3470_0" index="0" disallow="rail_fast" speed="36.11" length="7.64" width="3.05" customShape="1" shape="33.17,61.06 35.91,66.60"/>
        <lane id="3470_1" index="1" disallow="rail_fast" speed="36.11" length="7.64" width="3.00" customShape="1" shape="30.43,62.42 33.19,67.95"/>
        <lane id="3470_2" index="2" disallow="rail_fast" speed="36.11" length="7.64" width="2.94" customShape="1" shape="27.77,63.74 30.52,69.33"/>
    </edge>
    <edge id="3479" from="13" to="14" priority="1" spreadType="center" length="22.65">
        <lane id="3479_0" index="0" disallow="rail_fast" speed="36.11" length="22.65" width="3.23" customShape="1" shape="-44.69,29.56 -43.55,28.98 -33.97,24.23 -26.03,20.28"/>
        <lane id="3479_1" index="1" disallow="bus rail_fast" speed="36.11" length="22.65" width="3.02" customShape="1" shape="-43.28,32.35 -42.12,31.76 -32.54,27.01 -24.65,23.08"/>
        <lane id="3479_2" index="2" disallow="bus rail_fast" speed="36.11" length="22.65" width="3.06" customShape="1" shape="-41.91,35.06 -40.71,34.46 -31.13,29.70 -23.29,25.81"/>
    </edge>
    <edge id="3487" from="11" to="12" priority="1" spreadType="center" length="21.43">
        <lane id="3487_0" index="0" disallow="rail_fast" speed="36.11" length="21.43" width="4.58" acceleration="1" customShape="1" shape="-16.77,35.46 -26.73,40.26 -35.57,45.08 -36.46,45.57"/>
        <lane id="3487_1" index="1" disallow="rail_fast" speed="36.11" length="21.43" width="3.11" customShape="1" shape="-18.61,31.03 -28.63,36.41 -37.27,41.58 -38.30,42.20"/>
        <lane id="3487_2" index="2" disallow="rail_fast" speed="36.11" length="21.43" width="3.66" customShape="1" shape="-19.91,27.89 -30.15,33.38 -38.80,38.55 -39.93,39.23"/>
    </edge>
    <edge id="3495" from="5" to="6" priority="1" spreadType="center" length="15.18">
        <lane id="3495_0" index="0" disallow="rail_fast" speed="36.11" length="15.18" width="3.88" customShape="1" shape="19.39,-7.19 28.30,-11.57 33.21,-13.98"/>
        <lane id="3495_1" index="1" disallow="rail_fast" speed="36.11" length="15.18" width="3.51" customShape="1" shape="21.03,-3.86 29.92,-8.24 34.84,-10.66"/>
        <lane id="3495_2" index="2" disallow="rail_fast" speed="36.11" length="15.18" width="3.38" customShape="1" shape="22.56,-0.76 31.42,-5.12 36.37,-7.56"/>
    </edge>
    <edge id="3502" from="21" to="22" priority="1" spreadType="center" length="11.54">
        <lane id="3502_0" index="0" disallow="rail_fast" speed="36.11" length="11.54" width="3.61" customShape="1" shape="40.91,1.69 35.86,4.16 34.16,4.99"/>
        <lane id="3502_1" index="1" disallow="rail_fast" speed="36.11" length="11.54" width="3.63" customShape="1" shape="39.31,-1.58 34.33,0.86 32.58,1.72"/>
    </edge>
    <edge id="3528" from="22" to="23" priority="1" spreadType="center" length="6.58">
        <lane id="3528_0" index="0" disallow="rail_fast" speed="36.11" length="6.58" width="3.25" customShape="1" shape="28.02,10.17 26.69,11.99"/>
        <lane id="3528_1" index="1" disallow="rail_fast" speed="36.11" length="6.58" width="3.60" customShape="1" shape="26.93,8.56 25.21,9.41"/>
        <lane id="3528_2" index="2" disallow="rail_fast" speed="36.11" length="6.58" width="3.67" customShape="1" shape="24.87,5.52 23.40,6.25"/>
    </edge>
    <edge id="3534" from="23" to="24" priority="1" spreadType="center" length="6.61">
        <lane id="3534_0" index="0" disallow="rail_fast" speed="36.11" length="6.61" width="3.19" customShape="1" shape="23.65,13.97 21.03,15.24"/>
        <lane id="3534_1" index="1" disallow="rail_fast" speed="36.11" length="6.61" width="3.52" customShape="1" shape="22.18,10.92 19.58,12.21"/>
        <lane id="3534_2" index="2" disallow="rail_fast" speed="36.11" length="6.61" width="3.68" customShape="1" shape="20.60,7.65 18.01,8.94"/>
    </edge>
    <edge id="3542" from="9" to="10" priority="1" spreadType="center" length="42.05">
        <lane id="3542_0" index="0" disallow="bus rail_fast" speed="36.11" length="42.05" width="2.85" customShape="1" shape="-20.84,-0.02 -24.21,-6.94 -28.27,-15.87 -32.04,-24.59 -35.66,-33.83 -37.06,-37.24"/>
        <lane id="3542_1" index="1" disallow="rail_fast" speed="36.11" length="42.05" width="2.97" customShape="1" shape="-18.00,-1.48 -21.45,-8.45 -25.53,-17.23 -29.28,-25.92 -32.93,-35.04 -34.28,-38.38"/>
        <lane id="3542_2" index="2" disallow="rail_fast" speed="36.11" length="42.05" width="2.96" customShape="1" shape="-15.32,-2.85 -18.78,-9.97 -22.83,-18.69 -26.61,-27.38 -30.10,-36.18 -31.44,-39.55"/>
    </edge>
    <edge id="3573" from="27" to="28" priority="1" spreadType="center" length="41.48">
        <lane id="3573_0" index="0" disallow="rail_fast" speed="36.11" length="41.48" width="3.35" customShape="1" shape="-16.34,-47.22 -14.68,-43.89 -10.43,-35.31 -5.99,-26.38 -1.69,-17.91 1.54,-12.02"/>
        <lane id="3573_1" index="1" disallow="rail_fast" speed="36.11" length="41.48" width="2.88" customShape="1" shape="-19.20,-45.81 -17.45,-42.32 -13.26,-33.94 -8.72,-24.88 -4.50,-16.45 -1.52,-10.42"/>
        <lane id="3573_2" index="2" disallow="rail_fast" speed="36.11" length="41.48" width="3.08" customShape="1" shape="-21.92,-44.47 -20.14,-40.92 -15.95,-32.54 -11.41,-23.48 -7.19,-15.05 -4.25,-8.98"/>
        <lane id="3573_3" index="3" disallow="rail_fast" speed="36.11" length="41.48" width="2.82" customShape="1" shape="-24.61,-43.15 -22.81,-39.56 -18.62,-31.18 -14.08,-22.12 -9.91,-13.64 -6.95,-7.56"/>
        <lane id="3573_4" index="4" disallow="rail_fast" speed="36.11" length="41.48" width="3.05" customShape="1" shape="-27.32,-41.82 -25.51,-38.14 -21.32,-29.76 -16.78,-20.69 -12.61,-12.22 -9.63,-6.15"/>
    </edge>
    <edge id="3600" from="14" to="9" priority="1" spreadType="center" length="24.20">
        <lane id="3600_0" index="0" disallow="bus truck rail_fast" speed="36.11" length="24.20" width="3.23" customShape="1" shape="-14.74,12.98 -14.83,12.80"/>
    </edge>
    <edge id="3602" from="24" to="15" priority="1" spreadType="center" length="16.41">
        <lane id="3602_0" index="0" disallow="bus truck rail_fast" speed="36.11" length="16.41" width="2.93" customShape="1" shape="17.99,17.25 17.44,17.84"/>
    </edge>
    <edge id="3604" from="4" to="11" priority="1" spreadType="center" length="15.84">
        <lane id="3604_0" index="0" disallow="bus truck rail_fast" speed="36.11" length="15.84" width="3.84" customShape="1" shape="-5.51,39.50 -6.51,38.26 -7.90,36.87 -9.78,35.63 -11.48,35.05 -13.28,34.85 -15.20,35.07 -24.63,38.13"/>
    </edge>
    <edge id="3610" from="4" to="7" priority="1" spreadType="center" length="13.55">
        <lane id="3610_0" index="0" disallow="rail_fast" speed="36.11" length="13.55" width="2.87" customShape="1" shape="-2.32,37.37 -6.63,28.68"/>
        <lane id="3610_1" index="1" disallow="rail_fast" speed="36.11" length="13.55" width="3.02" customShape="1" shape="0.34,36.05 -3.91,27.34"/>