<routes>
	<vehicle depart="0.1" departLane="0" departPos="59.096132029910365" departSpeed="1.7449787" id="37" type="bicycle">
		<route edges="164 71"/>
	</vehicle>
	<vehicle depart="0.1" departLane="0" departPos="13.848138432987831" departSpeed="5.904897" id="39" type="bicycle">
		<route edges="62 8"/>
	</vehicle>
	<vehicle depart="0.1" departLane="0" departPos="5.525268558194751" departSpeed="0.42187702" id="359" type="bicycle">
		<route edges="164 71"/>
	</vehicle>
	<vehicle depart="0.1" departLane="0" departPos="68.35296375634644" departSpeed="4.5128734" id="32" type="passenger">
		<route edges="164 67 64 61 146"/>
	</vehicle>
	<vehicle depart="0.1" departLane="0" departPos="17.126278786350593" departSpeed="0.0" id="35" type="passenger">
		<route edges="7 65"/>
	</vehicle>
	<vehicle depart="0.1" departLane="0" departPos="24.30212928299136" departSpeed="0.0" id="38" type="passenger">
		<route edges="161 68"/>
	</vehicle>
	<vehicle depart="0.1" departLane="0" departPos="58.846104855549164" departSpeed="3.0852972" id="315" type="passenger">
		<route edges="164 71"/>
	</vehicle>
	<vehicle depart="0.1" departLane="0" departPos="37.24494698737962" departSpeed="11.988963" id="317" type="passenger">
		<route edges="142 383 7"/>
	</vehicle>
	<vehicle depart="0.1" departLane="0" departPos="17.36625617938327" departSpeed="11.330503" id="318" type="passenger">
		<route edges=":52_1 61 10"/>
	</vehicle>
	<vehicle depart="0.1" departLane="0" departPos="41.792921320048" departSpeed="0.0" id="322" type="passenger">
		<route edges="145 10"/>
	</vehicle>
	<vehicle depart="0.1" departLane="0" departPos="8.601874305149423" departSpeed="5.8217066" id="327" type="passenger">
		<route edges=":51_0 67 64 61 10"/>
	</vehicle>
	<vehicle depart="0.1" departLane="0" departPos="34.562922439552764" departSpeed="0.0022841479" id="328" type="passenger">
		<route edges="145 10"/>
	</vehicle>
	<vehicle depart="0.1" departLane="0" departPos="49.97865715113705" departSpeed="1.9069613" id="331" type="passenger">
		<route edges="164 71"/>
	</vehicle>
	<vehicle depart="0.1" departLane="0" departPos="17.431909611983922" departSpeed="0.00022796875" id="334" type="passenger">
		<route edges="161 68"/>
	</vehicle>
	<vehicle depart="0.1" departLane="0" departPos="69.89916722968246" departSpeed="0.0" id="335" type="passenger">
		<route edges="11 142"/>
	</vehicle>
	<vehicle depart="0.1" departLane="0" departPos="62.39806245811846" departSpeed="0.0004580874" id="336" type="passenger">
		<route edges="11 142"/>
	</vehicle>
	<vehicle depart="0.1" departLane="0" departPos="22.52939984035389" departSpeed="0.052593577" id="337" type="passenger">
		<route edges="145 10"/>
	</vehicle>
	<vehicle depart="0.1" departLane="0" departPos="52.29944120029446" departSpeed="16.53304" id="338" type="passenger">
		<route edges="70 163"/>
	</vehicle>
	<vehicle depart="0.1" departLane="0" departPos="41.75686891047622" departSpeed="1.0037108" id="339" type="passenger">
		<route edges="164 71"/>
	</vehicle>
	<vehicle depart="0.1" departLane="0" departPos="55.26350476426352" departSpeed="0.0054793786" id="342" type="passenger">
		<route edges="11 142"/>
	</vehicle>
	<vehicle depart="0.1" departLane="0" departPos="33.82087085001578" departSpeed="0.42631337" id="343" type="passenger">
		<route edges="164 71"/>
	</vehicle>
	<vehicle depart="0.1" departLane="0" departPos="30.54916794872954" departSpeed="13.575752" id="344" type="passenger">
		<route edges="70 67 64 61"/>
	</vehicle>
	<vehicle depart="0.1" departLane="0" departPos="15.166334289957982" departSpeed="0.11434471" id="346" type="passenger">
		<route edges="145 10"/>
	</vehicle>
	<vehicle depart="0.1" departLane="0" departPos="48.501763089101985" departSpeed="0.034398109" id="347" type="passenger">
		<route edges="11 142"/>
	</vehicle>
	<vehicle depart="0.1" departLane="0" departPos="26.542528287070308" departSpeed="0.14671226" id="348" type="passenger">
		<route edges="164 71"/>
	</vehicle>
	<vehicle depart="0.1" departLane="0" departPos="41.49451173124935" departSpeed="0.14078276" id="349" type="passenger">
		<route edges="11 142"/>
	</vehicle>
	<vehicle depart="0.1" departLane="0" departPos="7.152065523780185" departSpeed="4.2367427" id="350" type="passenger">
		<route edges=":53_4 70 67 64"/>
	</vehicle>
	<vehicle depart="0.1" departLane="0" departPos="19.421725665696336" departSpeed="0.12109082" id="351" type="passenger">
		<route edges="164 71"/>
	</vehicle>
	<vehicle depart="0.1" departLane="0" departPos="33.825660363130034" departSpeed="0.40755504" id="352" type="passenger">
		<route edges="11 142"/>
	</vehicle>
	<vehicle depart="0.1" departLane="0" departPos="25.84729172780781" departSpeed="0.8716302" id="353" type="passenger">
		<route edges="11 142"/>
	</vehicle>
	<vehicle depart="0.1" departLane="0" departPos="11.81249866901861" departSpeed="0.22739046" id="355" type="passenger">
		<route edges="164 71"/>
	</vehicle>
	<vehicle depart="0.1" departLane="0" departPos="7.775334411848311" departSpeed="0.19860848" id="356" type="passenger">
		<route edges="145 10"/>
	</vehicle>
	<vehicle depart="0.1" departLane="0" departPos="17.731668325777225" departSpeed="1.3631203" id="357" type="passenger">
		<route edges="11 142"/>
	</vehicle>
	<vehicle depart="0.1" departLane="0" departPos="15.223722749020162" departSpeed="3.2106172" id="360" type="passenger">
		<route edges="118 70 67"/>
	</vehicle>
	<vehicle depart="0.1" departLane="0" departPos="9.062947400002056" departSpeed="1.4940038" id="361" type="passenger">
		<route edges="11 142"/>
	</vehicle>
	<vehicle depart="0.1" departLane="0" departPos="42.12777328196598" departSpeed="0.0" id="33" type="motorcycle">
		<route edges="145 10"/>
	</vehicle>
	<vehicle depart="0.1" departLane="0" departPos="27.298339409644235" departSpeed="0.015684376" id="333" type="motorcycle">
		<route edges="145 10"/>
	</vehicle>
	<vehicle depart="0.1" departLane="0" departPos="57.512945832838476" departSpeed="12.571969" id="325" type="truck">
		<route edges="142 383 7 65"/>
	</vehicle>
	<vehicle depart="0.1" departLane="0" departPos="10.328785302884555" departSpeed="0.0014083803" id="341" type="truck">
		<route edges="161 68"/>
	</vehicle>
</routes>
