<routes>
	<vehicle depart="0.1" departLane="0" departPos="47.4430979159205" departSpeed="0.0015773632" id="312" type="bicycle">
		<route edges="148 92"/>
	</vehicle>
	<vehicle depart="0.1" departLane="0" departPos="14.860142341758106" departSpeed="7.6111399" id="347" type="bus">
		<route edges="149"/>
	</vehicle>
	<vehicle depart="0.1" departLane="0" departPos="19.338776009719624" departSpeed="4.2578247" id="369" type="bus">
		<route edges="91 145 139"/>
	</vehicle>
	<vehicle depart="0.1" departLane="0" departPos="75.09876209341138" departSpeed="1.8620087e-05" id="38" type="passenger">
		<route edges="146 92"/>
	</vehicle>
	<vehicle depart="0.1" departLane="0" departPos="68.17043941772897" departSpeed="0.00030559328" id="39" type="passenger">
		<route edges="146 92"/>
	</vehicle>
	<vehicle depart="0.1" departLane="0" departPos="53.02238286256462" departSpeed="0.00053862879" id="311" type="passenger">
		<route edges="148 92"/>
	</vehicle>
	<vehicle depart="0.1" departLane="0" departPos="66.89094836901468" departSpeed="0.0" id="314" type="passenger">
		<route edges="148 92"/>
	</vehicle>
	<vehicle depart="0.1" departLane="0" departPos="82.40435594957796" departSpeed="0.0" id="315" type="passenger">
		<route edges="146 92"/>
	</vehicle>
	<vehicle depart="0.1" departLane="0" departPos="60.095140936909" departSpeed="8.9444485e-05" id="316" type="passenger">
		<route edges="148 92"/>
	</vehicle>
	<vehicle depart="0.1" departLane="0" departPos="46.2493141038582" departSpeed="14.483804" id="318" type="passenger">
		<route edges="151 177"/>
	</vehicle>
	<vehicle depart="0.1" departLane="0" departPos="45.854408926749095" departSpeed="0.0015727554" id="322" type="passenger">
		<route edges="148 92"/>
	</vehicle>
	<vehicle depart="0.1" departLane="0" departPos="17.381319838998664" departSpeed="11.268668" id="324" type="passenger">
		<route edges="151 177"/>
	</vehicle>
	<vehicle depart="0.1" departLane="0" departPos="38.552985209332356" departSpeed="0.0031173036" id="328" type="passenger">
		<route edges="148 92"/>
	</vehicle>
	<vehicle depart="0.1" departLane="0" departPos="2.5" departSpeed="0.0" id="330" type="passenger">
		<route edges="143 151"/>
	</vehicle>
	<vehicle depart="0.1" departLane="0" departPos="6.929817434231544" departSpeed="7.4280854" id="332" type="passenger">
		<route edges=":36_2 151 177"/>
	</vehicle>
	<vehicle depart="0.1" departLane="0" departPos="70.0388628789969" departSpeed="8.4500239" id="337" type="passenger">
		<route edges="145 151 177"/>
	</vehicle>
	<vehicle depart="0.1" departLane="0" departPos="8.062975089888571" departSpeed="0.0" id="338" type="passenger">
		<route edges="140 143"/>
	</vehicle>
	<vehicle depart="0.1" departLane="0" departPos="31.447194133438682" departSpeed="0.0054882571" id="339" type="passenger">
		<route edges="148 92"/>
	</vehicle>
	<vehicle depart="0.1" departLane="0" departPos="66.05963764457988" departSpeed="15.3311" id="340" type="passenger">
		<route edges="152 146"/>
	</vehicle>
	<vehicle depart="0.1" departLane="0" departPos="24.73605435825963" departSpeed="0.0098727188" id="345" type="passenger">
		<route edges="148 92"/>
	</vehicle>
	<vehicle depart="0.1" departLane="0" departPos="17.611847739688873" departSpeed="0.023264895" id="348" type="passenger">
		<route edges="148 92"/>
	</vehicle>
	<vehicle depart="0.1" departLane="0" departPos="4.685783945429011" departSpeed="8.1592566" id="352" type="passenger">
		<route edges=":37_3 145 139"/>
	</vehicle>
	<vehicle depart="0.1" departLane="0" departPos="10.451875980112174" departSpeed="0.059687636" id="359" type="passenger">
		<route edges="148 92"/>
	</vehicle>
	<vehicle depart="0.1" departLane="0" departPos="46.327612425741066" departSpeed="7.096579" id="362" type="passenger">
		<route edges="91 145 139"/>
	</vehicle>
	<vehicle depart="0.1" departLane="0" departPos="32.53438457091113" departSpeed="6.7280334" id="364" type="passenger">
		<route edges="91 145 139"/>
	</vehicle>
	<vehicle depart="0.1" departLane="0" departPos="90.0591112261693" departSpeed="16.042025" id="329" type="truck">
		<route edges="152 146"/>
	</vehicle>
</routes>
