<routes>
	<vehicle depart="0.1" departLane="0" departPos="12.562228749196112" departSpeed="2.5025062" id="31" type="passenger">
		<route edges=":20_5 1792"/>
	</vehicle>
	<vehicle depart="0.1" departLane="0" departPos="10.614083701829768" departSpeed="13.659682" id="336" type="passenger">
		<route edges="2408"/>
	</vehicle>
	<vehicle depart="0.1" departLane="0" departPos="30.21521896276526" departSpeed="3.9381236" id="346" type="passenger">
		<route edges="3874 2053 2408"/>
	</vehicle>
	<vehicle depart="0.1" departLane="1" departPos="10.307425902279967" departSpeed="0.0" id="349" type="passenger">
		<route edges="1790 1750"/>
	</vehicle>
	<vehicle depart="0.1" departLane="0" departPos="15.673444853900287" departSpeed="6.6778957" id="351" type="passenger">
		<route edges=":20_6 2408"/>
	</vehicle>
	<vehicle depart="0.1" departLane="0" departPos="2.5" departSpeed="3.9138953" id="358" type="passenger">
		<route edges="1790 2051 3702"/>
	</vehicle>
	<vehicle depart="0.1" departLane="0" departPos="10.57100391786953" departSpeed="1.3863321" id="359" type="passenger">
		<route edges="3874 2053"/>
	</vehicle>
	<vehicle depart="0.1" departLane="0" departPos="20.61178657787005" departSpeed="3.229484" id="352" type="truck">
		<route edges="3874 2053 2408"/>
	</vehicle>
	<vehicle depart="0.1" departLane="0" departPos="6.91470709685718" departSpeed="8.61809" id="355" type="truck">
		<route edges=":20_1 1792"/>
	</vehicle>
</routes>
