<routes>
	<vehicle depart="0.1" departLane="0" departPos="76.03297463962855" departSpeed="5.3064538" id="38" type="bicycle">
		<route edges="362 359 1539"/>
	</vehicle>
	<vehicle depart="0.1" departLane="0" departPos="27.6984018708139" departSpeed="0.015414286" id="322" type="bicycle">
		<route edges="360 198"/>
	</vehicle>
	<vehicle depart="0.1" departLane="0" departPos="38.25030548606511" departSpeed="0.0" id="339" type="bicycle">
		<route edges="129 131"/>
	</vehicle>
	<vehicle depart="0.1" departLane="0" departPos="44.34199871081949" departSpeed="0.00024135596" id="327" type="bus">
		<route edges="330 362"/>
	</vehicle>
	<vehicle depart="0.1" departLane="0" departPos="14.445047548443245" departSpeed="9.1437741" id="347" type="bus">
		<route edges=":37_3 131"/>
	</vehicle>
	<vehicle depart="0.1" departLane="0" departPos="23.882950372392944" departSpeed="0.064380688" id="31" type="passenger">
		<route edges="360 198"/>
	</vehicle>
	<vehicle depart="0.1" departLane="0" departPos="54.037985507513234" departSpeed="0.0" id="32" type="passenger">
		<route edges="360 198"/>
	</vehicle>
	<vehicle depart="0.1" departLane="0" departPos="11.132818544730425" departSpeed="2.6880397" id="33" type="passenger">
		<route edges=":38_3 360"/>
	</vehicle>
	<vehicle depart="0.1" departLane="0" departPos="47.27207303938875" departSpeed="6.2043287e-05" id="34" type="passenger">
		<route edges="360 198"/>
	</vehicle>
	<vehicle depart="0.1" departLane="0" departPos="70.03760288272817" departSpeed="0.00019260012" id="39" type="passenger">
		<route edges="204 360"/>
	</vehicle>
	<vehicle depart="0.1" departLane="0" departPos="131.8558654014521" departSpeed="0.0" id="310" type="passenger">
		<route edges="198 118"/>
	</vehicle>
	<vehicle depart="0.1" departLane="0" departPos="13.001392926781456" departSpeed="8.0823749" id="313" type="passenger">
		<route edges=":35_5 359 1539"/>
	</vehicle>
	<vehicle depart="0.1" departLane="0" departPos="40.16050200887616" departSpeed="0.00060760361" id="315" type="passenger">
		<route edges="360 198"/>
	</vehicle>
	<vehicle depart="0.1" departLane="0" departPos="61.116904303970976" departSpeed="1.5260405" id="317" type="passenger">
		<route edges="204 360"/>
	</vehicle>
	<vehicle depart="0.1" departLane="0" departPos="32.985630469561784" departSpeed="0.0033111446" id="319" type="passenger">
		<route edges="360 198"/>
	</vehicle>
	<vehicle depart="0.1" departLane="0" departPos="52.03448855855292" departSpeed="1.6919408" id="320" type="passenger">
		<route edges="204 360"/>
	</vehicle>
	<vehicle depart="0.1" departLane="0" departPos="88.61229729218664" departSpeed="7.0359277" id="321" type="passenger">
		<route edges="362 359 1539"/>
	</vehicle>
	<vehicle depart="0.1" departLane="0" departPos="130.73183193097233" departSpeed="3.92434" id="323" type="passenger">
		<route edges="197 363"/>
	</vehicle>
	<vehicle depart="0.1" departLane="0" departPos="43.2830168747306" departSpeed="1.4593194" id="325" type="passenger">
		<route edges="204 360"/>
	</vehicle>
	<vehicle depart="0.1" departLane="0" departPos="31.37049456804961" departSpeed="0.0017028523" id="333" type="passenger">
		<route edges="330 362"/>
	</vehicle>
	<vehicle depart="0.1" departLane="0" departPos="75.4323335283831" departSpeed="6.2408454" id="334" type="passenger">
		<route edges="362 359 1539"/>
	</vehicle>
	<vehicle depart="0.1" departLane="0" departPos="24.860281600105527" departSpeed="0.0087361565" id="338" type="passenger">
		<route edges="330 362"/>
	</vehicle>
	<vehicle depart="0.1" departLane="0" departPos="30.102447488789952" departSpeed="0.70946164" id="341" type="passenger">
		<route edges="204 360"/>
	</vehicle>
	<vehicle depart="0.1" departLane="0" departPos="50.36590739866529" departSpeed="6.3559035" id="343" type="passenger">
		<route edges="362 359"/>
	</vehicle>
	<vehicle depart="0.1" departLane="0" departPos="22.561350201343245" departSpeed="0.61662105" id="344" type="passenger">
		<route edges="204 360"/>
	</vehicle>
	<vehicle depart="0.1" departLane="0" departPos="35.12294432120384" departSpeed="6.8668546" id="345" type="passenger">
		<route edges="362 198"/>
	</vehicle>
	<vehicle depart="0.1" departLane="0" departPos="19.494287031475732" departSpeed="7.2737175" id="348" type="passenger">
		<route edges="362 198"/>
	</vehicle>
	<vehicle depart="0.1" departLane="0" departPos="2.5" departSpeed="1.7705206" id="350" type="passenger">
		<route edges="360 198"/>
	</vehicle>
	<vehicle depart="0.1" departLane="0" departPos="14.47772690729685" departSpeed="0.76709818" id="351" type="passenger">
		<route edges="204 360"/>
	</vehicle>
	<vehicle depart="0.1" departLane="0" departPos="2.5" departSpeed="7.9638688" id="352" type="passenger">
		<route edges="362 198"/>
	</vehicle>
	<vehicle depart="0.1" departLane="0" departPos="26.398264032333703" departSpeed="7.7925189" id="353" type="passenger">
		<route edges="129 131"/>
	</vehicle>
	<vehicle depart="0.1" departLane="0" departPos="33.534148107083695" departSpeed="8.1931921" id="354" type="passenger">
		<route edges="335 362 198"/>
	</vehicle>
	<vehicle depart="0.1" departLane="0" departPos="15.266397658092604" departSpeed="6.6815562" id="361" type="passenger">
		<route edges="129 131"/>
	</vehicle>
	<vehicle depart="0.1" departLane="0" departPos="6.846307734562184" departSpeed="3.9151512" id="365" type="passenger">
		<route edges="129 131"/>
	</vehicle>
	<vehicle depart="0.1" departLane="0" departPos="35.09080371240057" departSpeed="1.0364769" id="331" type="motorcycle">
		<route edges="204 360"/>
	</vehicle>
	<vehicle depart="0.1" departLane="0" departPos="62.3168680969759" departSpeed="6.047023" id="340" type="motorcycle">
		<route edges="362 359 1539"/>
	</vehicle>
	<vehicle depart="0.1" departLane="0" departPos="6.272100315493263" departSpeed="0.97428749" id="356" type="motorcycle">
		<route edges="204 360"/>
	</vehicle>
	<vehicle depart="0.1" departLane="0" departPos="15.941554721352741" departSpeed="6.7867806" id="30" type="truck">
		<route edges="198 118"/>
	</vehicle>
	<vehicle depart="0.1" departLane="0" departPos="63.56616030460168" departSpeed="0.0" id="314" type="truck">
		<route edges="360 198"/>
	</vehicle>
	<vehicle depart="0.1" departLane="0" departPos="16.028307636064973" departSpeed="0.69068415" id="342" type="truck">
		<route edges="360 198"/>
	</vehicle>
</routes>
