<routes>
	<vehicle depart="0.1" departLane="0" departPos="13.238912572881025" departSpeed="6.8681648" id="310" type="passenger">
		<route edges="10579 10416"/>
	</vehicle>
</routes>
