<routes>
	<vehicle depart="0.1" departLane="0" departPos="1.0" departSpeed="2.0927913" id="311" type="bicycle">
		<route edges=":76_1 5170"/>
	</vehicle>
	<vehicle depart="0.1" departLane="0" departPos="13.460301704826044" departSpeed="1.6678069" id="329" type="passenger">
		<route edges=":76_1 5170"/>
	</vehicle>
	<vehicle depart="0.1" departLane="0" departPos="2.5" departSpeed="0.16422438" id="330" type="passenger">
		<route edges=":76_1 5170"/>
	</vehicle>
	<vehicle depart="0.1" departLane="0" departPos="20.240447963951162" departSpeed="0.97831825" id="338" type="passenger">
		<route edges="5173 5170"/>
	</vehicle>
	<vehicle depart="0.1" departLane="0" departPos="11.82817186122022" departSpeed="0.026021516" id="348" type="passenger">
		<route edges="5173 5170"/>
	</vehicle>
	<vehicle depart="0.1" departLane="0" departPos="28.85276833048996" departSpeed="0.95251127" id="360" type="passenger">
		<route edges="8664 5173 5170"/>
	</vehicle>
	<vehicle depart="0.1" departLane="0" departPos="20.96679037481943" departSpeed="9.1271066" id="384" type="passenger">
		<route edges="5170 4992"/>
	</vehicle>
	<vehicle depart="0.1" departLane="0" departPos="10.965583699684666" departSpeed="8.1988615" id="388" type="passenger">
		<route edges="5170 4992"/>
	</vehicle>
	<vehicle depart="0.1" departLane="0" departPos="20.725843297533626" departSpeed="9.7602547" id="394" type="passenger">
		<route edges=":76_4 5170 4992"/>
	</vehicle>
	<vehicle depart="0.1" departLane="0" departPos="19.36984679212175" departSpeed="1.1330657" id="375" type="truck">
		<route edges="8664 5173"/>
	</vehicle>
</routes>
