<routes>
	<vehicle depart="0.1" departLane="0" departPos="54.51014793135542" departSpeed="0.7227643" id="38" type="bicycle">
		<route edges="60956 60734"/>
	</vehicle>
	<vehicle depart="0.1" departLane="0" departPos="69.02161272591367" departSpeed="0.0" id="336" type="bus">
		<route edges="60731 60734"/>
	</vehicle>
	<vehicle depart="0.1" departLane="0" departPos="49.87396377844784" departSpeed="4.2300836" id="317" type="passenger">
		<route edges="60956 60734"/>
	</vehicle>
	<vehicle depart="0.1" departLane="0" departPos="7.829118984709563" departSpeed="7.2944042" id="322" type="passenger">
		<route edges=":54_3 60730"/>
	</vehicle>
	<vehicle depart="0.1" departLane="0" departPos="36.355624944925204" departSpeed="3.0931434" id="326" type="passenger">
		<route edges="60956 60734"/>
	</vehicle>
	<vehicle depart="0.1" departLane="0" departPos="18.353866470269523" departSpeed="2.2411342" id="332" type="passenger">
		<route edges="60956 60734"/>
	</vehicle>
	<vehicle depart="0.1" departLane="0" departPos="5.24309508403497" departSpeed="0.078901003" id="347" type="passenger">
		<route edges="60963 60685"/>
	</vehicle>
	<vehicle depart="0.1" departLane="0" departPos="67.84949881374749" departSpeed="2.7465132" id="34" type="motorcycle">
		<route edges="60956 60730"/>
	</vehicle>
	<vehicle depart="0.1" departLane="0" departPos="23.898307276049167" departSpeed="3.4458018" id="328" type="motorcycle">
		<route edges="60956 60734"/>
	</vehicle>
</routes>
