<!-- generated on Tue Feb  9 22:08:15 2021 by Eclipse SUMO netconvert Version 1.8.0
<configuration xmlns:xsi="http://www.w3.org/2001/XMLSchema-instance" xsi:noNamespaceSchemaLocation="http://sumo.dlr.de/xsd/netconvertConfiguration.xsd">

    <input>
        <node-files value="./converted_scenarios/scenario-factory/DEU_Guetersloh-4_4_I-1-1/DEU_Guetersloh-4_4_I-1-1.nod.xml"/>
        <edge-files value="./converted_scenarios/scenario-factory/DEU_Guetersloh-4_4_I-1-1/DEU_Guetersloh-4_4_I-1-1.edg.xml"/>
        <connection-files value="./converted_scenarios/scenario-factory/DEU_Guetersloh-4_4_I-1-1/DEU_Guetersloh-4_4_I-1-1.con.xml"/>
        <tllogic-files value="./converted_scenarios/scenario-factory/DEU_Guetersloh-4_4_I-1-1/DEU_Guetersloh-4_4_I-1-1.tll.xml"/>
        <type-files value="/home/zen/commonroad-interactive-benchmarks/install/commonroad-map-tool/crmapconverter/sumo_map/templates/DEU.typ.xml"/>
    </input>

    <output>
        <output-file value="./converted_scenarios/scenario-factory/DEU_Guetersloh-4_4_I-1-1/DEU_Guetersloh-4_4_I-1-1.net.xml"/>
    </output>

    <processing>
        <geometry.remove.keep-edges.explicit value="true"/>
        <geometry.avoid-overlap value="true"/>
        <offset.disable-normalization value="true"/>
    </processing>

    <junctions>
        <no-turnarounds value="true"/>
        <junctions.internal-link-detail value="20"/>
    </junctions>

    <report>
        <aggregate-warnings value="5"/>
    </report>

    <random_number>
        <seed value="1234"/>
    </random_number>

</configuration>
--><net xmlns:xsi="http://www.w3.org/2001/XMLSchema-instance" version="1.6" junctionCornerDetail="5" junctionLinkDetail="20" limitTurnSpeed="5.50" xsi:noNamespaceSchemaLocation="http://sumo.dlr.de/xsd/net_file.xsd">

    <location netOffset="0.00,0.00" convBoundary="161.53,-98.13,388.78,39.84" origBoundary="161.53,-98.13,388.78,39.84" projParameter="!"/>

    <type id="highway.bridleway" priority="1" speed="2.78" allow="pedestrian" oneway="1" width="2.00"/>
    <type id="highway.bus_guideway" priority="1" speed="27.78" allow="bus" oneway="1"/>
    <type id="highway.cycleway" priority="1" speed="8.33" allow="bicycle" oneway="0" width="1.00"/>
    <type id="highway.footway" priority="1" speed="2.78" allow="pedestrian" oneway="1" width="2.00"/>
    <type id="highway.ford" priority="1" speed="2.78" allow="army" oneway="0"/>
    <type id="highway.living_street" priority="2" speed="2.78" disallow="tram rail_urban rail rail_electric rail_fast ship" oneway="0"/>
    <type id="highway.motorway" priority="14" speed="39.44" allow="private emergency authority army vip passenger hov taxi bus coach delivery truck trailer motorcycle evehicle custom1 custom2" oneway="1"/>
    <type id="highway.motorway_link" priority="9" speed="22.22" allow="private emergency authority army vip passenger hov taxi bus coach delivery truck trailer motorcycle evehicle custom1 custom2" oneway="1"/>
    <type id="highway.path" priority="1" speed="2.78" allow="pedestrian bicycle" oneway="0" width="2.00"/>
    <type id="highway.pedestrian" priority="1" speed="2.78" allow="pedestrian" oneway="1" width="2.00"/>
    <type id="highway.primary" priority="12" speed="27.78" disallow="pedestrian tram rail_urban rail rail_electric rail_fast ship" oneway="0"/>
    <type id="highway.primary_link" priority="7" speed="22.22" disallow="pedestrian tram rail_urban rail rail_electric rail_fast ship" oneway="0"/>
    <type id="highway.raceway" priority="15" speed="83.33" allow="vip" oneway="0"/>
    <type id="highway.residential" priority="3" speed="13.89" disallow="pedestrian tram rail_urban rail rail_electric rail_fast ship" oneway="0"/>
    <type id="highway.secondary" priority="11" speed="27.78" disallow="pedestrian tram rail_urban rail rail_electric rail_fast ship" oneway="0"/>
    <type id="highway.secondary_link" priority="6" speed="22.22" disallow="pedestrian tram rail_urban rail rail_electric rail_fast ship" oneway="0"/>
    <type id="highway.service" priority="1" speed="5.56" allow="pedestrian delivery bicycle" oneway="0"/>
    <type id="highway.stairs" priority="1" speed="1.39" allow="pedestrian" oneway="1" width="2.00"/>
    <type id="highway.step" priority="1" speed="1.39" allow="pedestrian" oneway="1" width="2.00"/>
    <type id="highway.steps" priority="1" speed="1.39" allow="pedestrian" oneway="1" width="2.00"/>
    <type id="highway.tertiary" priority="10" speed="22.22" disallow="pedestrian tram rail_urban rail rail_electric rail_fast ship" oneway="0"/>
    <type id="highway.tertiary_link" priority="5" speed="22.22" disallow="pedestrian tram rail_urban rail rail_electric rail_fast ship" oneway="0"/>
    <type id="highway.track" priority="1" speed="5.56" allow="pedestrian motorcycle moped bicycle" oneway="0"/>
    <type id="highway.trunk" priority="13" speed="27.78" disallow="pedestrian bicycle tram rail_urban rail rail_electric rail_fast ship" oneway="0"/>
    <type id="highway.trunk_link" priority="8" speed="22.22" disallow="pedestrian bicycle tram rail_urban rail rail_electric rail_fast ship" oneway="0"/>
    <type id="highway.unclassified" priority="4" speed="13.89" disallow="pedestrian tram rail_urban rail rail_electric rail_fast ship" oneway="0"/>
    <type id="highway.unsurfaced" priority="1" speed="8.33" disallow="tram rail_urban rail rail_electric rail_fast ship" oneway="0"/>
    <type id="railway.highspeed" priority="21" speed="69.44" allow="rail_fast" oneway="1"/>
    <type id="railway.light_rail" priority="19" speed="27.78" allow="rail_urban" oneway="1"/>
    <type id="railway.preserved" priority="16" speed="27.78" allow="rail" oneway="1"/>
    <type id="railway.rail" priority="20" speed="44.44" allow="rail" oneway="1"/>
    <type id="railway.subway" priority="18" speed="27.78" allow="rail_urban" oneway="1"/>
    <type id="railway.tram" priority="17" speed="13.89" allow="tram" oneway="1"/>

    <edge id=":49_0" function="internal">
        <lane id=":49_0_0" index="0" disallow="pedestrian tram rail_urban rail rail_electric rail_fast ship" speed="36.11" length="39.21" width="3.50" shape="321.91,21.06 320.79,20.58 312.46,16.48 287.00,3.22"/>
    </edge>
    <edge id=":49_1" function="internal">
        <lane id=":49_1_0" index="0" disallow="pedestrian tram rail_urban rail rail_electric rail_fast ship" speed="11.79" length="34.93" width="3.50" shape="321.91,21.06 319.37,19.92 317.02,18.63 314.82,17.10 312.84,15.29 311.96,14.29 311.17,13.20 310.48,12.05 309.91,10.84 309.46,9.58 309.14,8.28 308.94,6.95 308.86,5.62 309.02,2.94 309.53,0.31 310.32,-2.25 311.89,-5.95 312.49,-7.14"/>
    </edge>
    <edge id=":49_2" function="internal">
        <lane id=":49_2_0" index="0" disallow="pedestrian tram rail_urban rail rail_electric rail_fast ship" speed="10.76" length="28.89" width="3.50" shape="315.59,-5.52 315.08,-4.50 313.70,-1.26 313.03,0.90 312.59,3.10 312.45,5.32 312.51,6.36 312.67,7.41 312.91,8.44 313.26,9.43 313.70,10.38 314.24,11.29 314.86,12.15 315.55,12.94 317.19,14.45 319.03,15.73 321.02,16.84 323.14,17.79"/>
    </edge>
    <edge id=":49_3" function="internal">
        <lane id=":49_3_0" index="0" disallow="pedestrian tram rail_urban rail rail_electric rail_fast ship" speed="12.18" length="34.22" width="3.50" shape="315.59,-5.52 313.64,-2.24 312.09,-0.15 310.31,1.78 308.30,3.48 307.15,4.25 305.97,4.91 304.72,5.47 303.43,5.92 302.11,6.25 300.76,6.46 299.41,6.56 298.04,6.56 295.43,6.26 292.88,5.66 290.43,4.80 287.00,3.22"/>
    </edge>
    <edge id=":49_4" function="internal">
        <lane id=":49_4_0" index="0" disallow="pedestrian tram rail_urban rail rail_electric rail_fast ship" speed="11.18" length="28.66" width="3.50" shape="288.60,0.11 291.60,1.50 293.68,2.22 295.83,2.73 298.02,2.98 299.12,2.99 300.22,2.91 301.31,2.73 302.38,2.47 303.42,2.11 304.43,1.65 305.39,1.12 306.31,0.51 308.00,-0.91 309.49,-2.53 310.81,-4.30 312.49,-7.14"/>
    </edge>
    <edge id=":49_5" function="internal">
        <lane id=":49_5_0" index="0" disallow="pedestrian tram rail_urban rail rail_electric rail_fast ship" speed="36.11" length="38.81" width="3.50" shape="288.60,0.11 313.95,13.32 322.20,17.38 323.14,17.79"/>
    </edge>
    <edge id=":50_0" function="internal">
        <lane id=":50_0_0" index="0" disallow="pedestrian tram rail_urban rail rail_electric rail_fast ship" speed="36.11" length="28.91" width="3.50" shape="348.14,-66.88 337.14,-45.80 334.71,-41.28"/>
    </edge>
    <edge id=":50_1" function="internal">
        <lane id=":50_1_0" index="0" disallow="pedestrian tram rail_urban rail rail_electric rail_fast ship" speed="15.61" length="29.12" width="3.50" shape="334.72,-69.27 335.21,-68.20 336.47,-65.01 337.43,-61.67 338.04,-58.22 338.24,-54.71 337.99,-51.20 337.30,-47.75 336.18,-44.42 334.71,-41.28"/>
    </edge>
    <edge id=":50_2" function="internal">
        <lane id=":50_2_0" index="0" disallow="pedestrian tram rail_urban rail rail_electric rail_fast ship" speed="14.67" length="25.86" width="3.50" shape="331.62,-42.91 332.94,-45.72 333.92,-48.66 334.52,-51.70 334.73,-54.80 334.55,-57.90 334.00,-60.96 333.13,-63.94 331.99,-66.83 331.56,-67.76"/>
    </edge>
    <edge id=":50_3" function="internal">
        <lane id=":50_3_0" index="0" disallow="pedestrian tram rail_urban rail rail_electric rail_fast ship" speed="36.11" length="28.87" width="3.50" shape="331.62,-42.91 334.05,-47.44 345.02,-68.48"/>
    </edge>
    <edge id=":51_0" function="internal">
        <lane id=":51_0_0" index="0" disallow="pedestrian tram rail_urban rail rail_electric rail_fast ship" speed="36.11" length="36.79" width="3.50" shape="334.60,-41.06 325.90,-24.83 317.22,-8.63"/>
    </edge>
    <edge id=":51_1" function="internal">
        <lane id=":51_1_0" index="0" disallow="pedestrian tram rail_urban rail rail_electric rail_fast ship" speed="11.96" length="32.84" width="3.50" shape="334.60,-41.06 333.24,-38.77 331.70,-36.65 329.93,-34.72 328.95,-33.85 327.91,-33.05 326.80,-32.35 325.64,-31.75 324.42,-31.25 323.17,-30.87 321.89,-30.60 320.59,-30.45 317.97,-30.46 315.37,-30.84 312.84,-31.51 310.38,-32.42 306.80,-34.14"/>
    </edge>
    <edge id=":51_2" function="internal">
        <lane id=":51_2_0" index="0" disallow="pedestrian tram rail_urban rail rail_electric rail_fast ship" speed="10.91" length="27.26" width="3.50" shape="308.45,-37.22 311.58,-35.72 313.68,-34.94 315.82,-34.36 317.97,-34.03 320.13,-34.01 321.14,-34.13 322.16,-34.33 323.16,-34.62 324.12,-35.01 325.05,-35.48 325.93,-36.03 326.78,-36.67 327.56,-37.35 329.06,-38.97 330.36,-40.75 331.51,-42.71"/>
    </edge>
    <edge id=":51_3" function="internal">
        <lane id=":51_3_0" index="0" disallow="pedestrian tram rail_urban rail rail_electric rail_fast ship" speed="12.24" length="34.23" width="3.50" shape="308.45,-37.22 311.86,-35.16 313.96,-33.57 315.88,-31.78 317.57,-29.76 318.30,-28.67 318.94,-27.52 319.48,-26.32 319.92,-25.08 320.25,-23.81 320.46,-22.51 320.57,-21.20 320.49,-18.57 320.05,-15.98 319.32,-13.45 318.36,-11.00 317.22,-8.63"/>
    </edge>
    <edge id=":51_4" function="internal">
        <lane id=":51_4_0" index="0" disallow="pedestrian tram rail_urban rail rail_electric rail_fast ship" speed="11.24" length="28.70" width="3.50" shape="314.11,-10.24 315.11,-12.32 315.94,-14.43 316.56,-16.58 316.93,-18.74 317.00,-20.93 316.91,-21.96 316.74,-23.01 316.48,-24.03 316.12,-25.02 315.69,-25.99 315.17,-26.92 314.59,-27.79 313.18,-29.48 311.56,-30.99 309.77,-32.34 306.80,-34.14"/>
    </edge>
    <edge id=":51_5" function="internal">
        <lane id=":51_5_0" index="0" disallow="pedestrian tram rail_urban rail rail_electric rail_fast ship" speed="36.11" length="36.84" width="3.50" shape="314.11,-10.24 322.81,-26.48 331.51,-42.71"/>
    </edge>
    <edge id=":52_0" function="internal">
        <lane id=":52_0_0" index="0" disallow="pedestrian tram rail_urban rail rail_electric rail_fast ship" speed="13.97" length="25.53" width="3.50" shape="331.46,-67.98 330.52,-69.78 328.81,-72.34 327.52,-73.87 326.08,-75.29 324.52,-76.56 322.86,-77.68 320.15,-79.11 317.27,-80.21 314.28,-81.01 311.18,-81.54"/>
    </edge>
    <edge id=":52_1" function="internal">
        <lane id=":52_1_0" index="0" disallow="pedestrian tram rail_urban rail rail_electric rail_fast ship" speed="8.37" length="21.82" width="3.50" shape="331.46,-67.98 330.80,-69.47 330.22,-71.00 329.75,-72.62 329.46,-74.37 329.50,-76.27 330.09,-78.24 331.38,-79.92 333.10,-81.03 334.91,-81.59 336.66,-81.82 338.34,-81.85 339.97,-81.75"/>
    </edge>
    <edge id=":52_2" function="internal">
        <lane id=":52_2_0" index="0" disallow="pedestrian tram rail_urban rail rail_electric rail_fast ship" speed="6.82" length="13.97" width="3.50" shape="339.66,-78.26 338.50,-78.33 337.33,-78.31 336.17,-78.15 335.06,-77.80 334.10,-77.16 333.44,-76.21 333.16,-75.08 333.18,-73.92 333.39,-72.77 333.72,-71.65 334.14,-70.56 334.61,-69.50"/>
    </edge>
    <edge id=":52_3" function="internal">
        <lane id=":52_3_0" index="0" disallow="pedestrian tram rail_urban rail rail_electric rail_fast ship" speed="36.11" length="28.67" width="3.50" shape="339.66,-78.26 323.84,-79.95 311.18,-81.54"/>
    </edge>
    <edge id=":52_4" function="internal">
        <lane id=":52_4_0" index="0" disallow="pedestrian tram rail_urban rail rail_electric rail_fast ship" speed="36.11" length="28.52" width="3.50" shape="311.64,-85.01 324.24,-83.42 339.97,-81.75"/>
    </edge>
    <edge id=":52_5" function="internal">
        <lane id=":52_5_0" index="0" disallow="pedestrian tram rail_urban rail rail_electric rail_fast ship" speed="14.92" length="29.00" width="3.50" shape="311.64,-85.01 315.09,-84.41 318.45,-83.51 321.70,-82.26 324.77,-80.63 326.69,-79.33 328.48,-77.86 330.12,-76.22 331.61,-74.45 333.53,-71.55 334.61,-69.50"/>
    </edge>
    <edge id=":53_0" function="internal">
        <lane id=":53_0_0" index="0" disallow="pedestrian tram rail_urban rail rail_electric rail_fast ship" speed="11.77" length="23.44" width="3.50" shape="368.55,-75.08 367.50,-75.20 364.31,-75.38 361.15,-75.26 359.12,-74.97 357.15,-74.49 355.26,-73.81 353.50,-72.89 351.90,-71.75 350.49,-70.39 349.27,-68.83 348.23,-67.06"/>
    </edge>
    <edge id=":53_1" function="internal">
        <lane id=":53_1_0" index="0" disallow="pedestrian tram rail_urban rail rail_electric rail_fast ship" speed="36.11" length="28.84" width="3.50" shape="368.55,-75.08 357.30,-76.42 339.88,-78.24"/>
    </edge>
    <edge id=":53_2" function="internal">
        <lane id=":53_2_0" index="0" disallow="pedestrian tram rail_urban rail rail_electric rail_fast ship" speed="36.11" length="28.95" width="3.50" shape="340.20,-81.73 357.69,-79.90 368.97,-78.55"/>
    </edge>
    <edge id=":53_3" function="internal">
        <lane id=":53_3_0" index="0" disallow="pedestrian tram rail_urban rail rail_electric rail_fast ship" speed="8.68" length="21.58" width="3.50" shape="340.20,-81.73 342.01,-81.50 343.77,-81.15 345.49,-80.62 347.11,-79.85 348.54,-78.78 349.64,-77.37 350.24,-75.69 350.36,-73.90 350.14,-72.12 349.66,-70.40 349.02,-68.72 348.23,-67.06"/>
    </edge>
    <edge id=":53_4" function="internal">
        <lane id=":53_4_0" index="0" disallow="pedestrian tram rail_urban rail rail_electric rail_fast ship" speed="7.20" length="14.47" width="3.50" shape="345.11,-68.64 345.72,-69.92 346.20,-71.17 346.54,-72.39 346.70,-73.57 346.64,-74.64 346.32,-75.56 345.72,-76.31 344.85,-76.94 343.78,-77.44 342.57,-77.81 341.26,-78.07 339.88,-78.24"/>
    </edge>
    <edge id=":53_5" function="internal">
        <lane id=":53_5_0" index="0" disallow="pedestrian tram rail_urban rail rail_electric rail_fast ship" speed="12.82" length="27.73" width="3.50" shape="345.11,-68.64 346.35,-70.77 347.82,-72.67 349.54,-74.36 351.48,-75.78 353.60,-76.92 355.85,-77.78 358.18,-78.37 360.56,-78.72 364.17,-78.88 367.77,-78.69 368.97,-78.55"/>
    </edge>
    <edge id=":54_0" function="internal">
        <lane id=":54_0_0" index="0" disallow="pedestrian tram rail_urban rail rail_electric rail_fast ship" speed="36.11" length="38.87" width="3.50" shape="257.71,-12.23 240.52,-21.33 223.36,-30.42"/>
    </edge>
    <edge id=":54_1" function="internal">
        <lane id=":54_1_0" index="0" disallow="pedestrian tram rail_urban rail rail_electric rail_fast ship" speed="11.88" length="34.75" width="3.50" shape="257.71,-12.23 254.24,-14.28 252.08,-15.84 250.07,-17.60 248.29,-19.58 247.51,-20.67 246.82,-21.81 246.23,-23.00 245.76,-24.25 245.40,-25.54 245.18,-26.85 245.08,-28.18 245.10,-29.52 245.23,-30.84 245.79,-33.45 246.68,-35.97 247.83,-38.38 249.18,-40.72"/>
    </edge>
    <edge id=":54_2" function="internal">
        <lane id=":54_2_0" index="0" disallow="pedestrian tram rail_urban rail rail_electric rail_fast ship" speed="10.87" length="28.87" width="3.50" shape="252.14,-38.85 250.97,-36.83 250.00,-34.78 249.25,-32.67 248.79,-30.50 248.69,-29.46 248.68,-28.39 248.77,-27.34 248.95,-26.30 249.23,-25.29 249.61,-24.31 250.09,-23.36 250.65,-22.44 251.27,-21.58 252.77,-19.92 254.46,-18.44 256.31,-17.11 259.35,-15.32"/>
    </edge>
    <edge id=":54_3" function="internal">
        <lane id=":54_3_0" index="0" disallow="pedestrian tram rail_urban rail rail_electric rail_fast ship" speed="12.55" length="33.87" width="3.50" shape="252.14,-38.85 249.89,-35.62 248.21,-33.64 246.35,-31.82 244.30,-30.21 242.06,-28.89 240.87,-28.36 239.64,-27.92 238.39,-27.59 237.11,-27.35 235.81,-27.22 233.21,-27.25 230.64,-27.65 228.13,-28.34 225.70,-29.28 223.36,-30.42"/>
    </edge>
    <edge id=":54_4" function="internal">
        <lane id=":54_4_0" index="0" disallow="pedestrian tram rail_urban rail rail_electric rail_fast ship" speed="11.56" length="28.59" width="3.50" shape="224.98,-33.52 227.03,-32.52 229.12,-31.71 231.24,-31.13 233.39,-30.80 235.56,-30.78 236.58,-30.89 237.62,-31.09 238.64,-31.36 239.64,-31.73 240.58,-32.15 242.46,-33.26 244.18,-34.61 245.76,-36.17 247.20,-37.87 249.18,-40.72"/>
    </edge>
    <edge id=":54_5" function="internal">
        <lane id=":54_5_0" index="0" disallow="pedestrian tram rail_urban rail rail_electric rail_fast ship" speed="36.11" length="38.89" width="3.50" shape="224.98,-33.52 242.16,-24.42 259.35,-15.32"/>
    </edge>

    <edge id="60681" from="51" to="49" priority="3" type="highway.residential" spreadType="center" length="3.53" shape="320.47,-28.55 309.77,5.44">
        <lane id="60681_0" index="0" disallow="pedestrian tram rail_urban rail rail_electric rail_fast ship" speed="36.11" length="3.53" width="3.50" customShape="1" shape="317.22,-8.63 316.41,-7.08 315.58,-5.50"/>
    </edge>
    <edge id="60682" from="49" to="51" priority="3" type="highway.residential" spreadType="center" length="3.52" shape="306.43,4.39 317.14,-29.60">
        <lane id="60682_0" index="0" disallow="pedestrian tram rail_urban rail rail_electric rail_fast ship" speed="36.11" length="3.52" width="3.50" customShape="1" shape="312.49,-7.14 313.31,-8.70 314.12,-10.26"/>
    </edge>
    <edge id="60684" from="50" to="51" priority="3" type="highway.residential" spreadType="center" length="0.28" shape="339.12,-58.51 320.22,-28.00">
        <lane id="60684_0" index="0" disallow="pedestrian tram rail_urban rail rail_electric rail_fast ship" speed="36.11" length="0.28" width="3.50" customShape="1" shape="334.71,-41.28 334.64,-41.14 334.58,-41.03"/>
    </edge>
    <edge id="60685" from="51" to="50" priority="3" type="highway.residential" spreadType="center" length="0.24" shape="317.25,-29.84 336.14,-60.35">
        <lane id="60685_0" index="0" disallow="pedestrian tram rail_urban rail rail_electric rail_fast ship" speed="36.11" length="0.24" width="3.50" customShape="1" shape="331.51,-42.71 331.56,-42.79 331.62,-42.92"/>
    </edge>
    <edge id="60687" from="53" to="50" priority="3" type="highway.residential" spreadType="center" length="0.20" shape="353.21,-73.82 338.92,-58.24">
        <lane id="60687_0" index="0" disallow="pedestrian tram rail_urban rail rail_electric rail_fast ship" speed="36.11" length="0.20" width="3.50" customShape="1" shape="348.23,-67.06 348.14,-66.88"/>
    </edge>
    <edge id="60688" from="50" to="53" priority="3" type="highway.residential" spreadType="center" length="0.22" shape="336.34,-60.61 350.65,-76.18">
        <lane id="60688_0" index="0" disallow="pedestrian tram rail_urban rail rail_electric rail_fast ship" speed="36.11" length="0.22" width="3.50" customShape="1" shape="345.02,-68.48 345.08,-68.58 345.12,-68.67"/>
    </edge>
    <edge id="60730" from="54" to="44" priority="3" type="highway.residential" spreadType="center" length="70.00" shape="243.77,-26.90 161.53,-63.23">
        <lane id="60730_0" index="0" disallow="pedestrian tram rail_urban rail rail_electric rail_fast ship" speed="36.11" length="70.00" width="3.50" customShape="1" shape="223.36,-30.42 170.07,-58.70 161.53,-63.23"/>
    </edge>
    <edge id="60731" from="48" to="54" priority="3" type="highway.residential" spreadType="center" length="70.02" shape="163.15,-66.33 245.19,-30.10">
        <lane id="60731_0" index="0" disallow="pedestrian tram rail_urban rail rail_electric rail_fast ship" speed="36.11" length="70.02" width="3.50" customShape="1" shape="163.15,-66.33 171.71,-61.79 225.00,-33.51"/>
    </edge>
    <edge id="60733" from="49" to="54" priority="3" type="highway.residential" spreadType="center" length="33.14" shape="307.29,6.46 243.60,-26.98">
        <lane id="60733_0" index="0" disallow="pedestrian tram rail_urban rail rail_electric rail_fast ship" speed="36.11" length="33.14" width="3.50" customShape="1" shape="287.00,3.22 272.33,-4.52 257.69,-12.24"/>
    </edge>
    <edge id="60734" from="54" to="49" priority="3" type="highway.residential" spreadType="center" length="33.10" shape="245.22,-30.08 308.92,3.37">
        <lane id="60734_0" index="0" disallow="pedestrian tram rail_urban rail rail_electric rail_fast ship" speed="36.11" length="33.10" width="3.50" customShape="1" shape="259.35,-15.32 273.96,-7.62 288.63,0.12"/>
    </edge>
    <edge id="60736" from="46" to="49" priority="3" type="highway.residential" spreadType="center" length="69.89" shape="386.93,39.84 307.39,6.51">
        <lane id="60736_0" index="0" disallow="pedestrian tram rail_urban rail rail_electric rail_fast ship" speed="36.11" length="69.89" width="3.50" customShape="1" shape="386.93,39.84 385.62,37.70 384.02,35.80 382.20,34.12 379.80,32.37 377.62,31.17 374.87,30.04 371.54,29.04 367.18,28.08 362.76,27.43 357.33,26.95 347.41,26.40 340.49,25.82 335.09,25.02 330.73,24.05 326.45,22.77 321.91,21.06"/>
    </edge>
    <edge id="60737" from="49" to="23" priority="3" type="highway.residential" spreadType="center" length="70.00" shape="308.73,3.28 388.78,36.15">
        <lane id="60737_0" index="0" disallow="pedestrian tram rail_urban rail rail_electric rail_fast ship" speed="36.11" length="70.00" width="3.50" customShape="1" shape="323.14,17.79 327.77,19.52 332.02,20.77 336.36,21.69 341.77,22.44 348.78,22.97 358.93,23.56 364.57,24.15 369.18,24.92 373.75,26.04 377.27,27.23 380.19,28.58 382.52,30.00 385.08,32.00 387.03,33.92 388.78,36.15"/>
    </edge>
    <edge id="60787" from="52" to="50" priority="3" type="highway.residential" spreadType="center" length="0.27" shape="329.56,-78.29 339.17,-60.25">
        <lane id="60787_0" index="0" disallow="pedestrian tram rail_urban rail rail_electric rail_fast ship" speed="36.11" length="0.27" width="3.50" customShape="1" shape="334.61,-69.50 334.67,-69.39 334.73,-69.26"/>
    </edge>
    <edge id="60788" from="50" to="52" priority="3" type="highway.residential" spreadType="center" length="0.26" shape="336.09,-58.60 326.48,-76.65">
        <lane id="60788_0" index="0" disallow="pedestrian tram rail_urban rail rail_electric rail_fast ship" speed="36.11" length="0.26" width="3.50" customShape="1" shape="331.56,-67.76 331.51,-67.88 331.45,-67.99"/>
    </edge>
    <edge id="60855" from="52" to="27" priority="3" type="highway.residential" spreadType="center" length="16.27" shape="327.76,-75.62 295.05,-83.69">
        <lane id="60855_0" index="0" disallow="pedestrian tram rail_urban rail rail_electric rail_fast ship" speed="36.11" length="16.27" width="3.50" customShape="1" shape="311.18,-81.54 303.13,-82.62 295.05,-83.69"/>
    </edge>
    <edge id="60856" from="32" to="52" priority="3" type="highway.residential" spreadType="center" length="16.29" shape="295.51,-87.16 328.60,-79.02">
        <lane id="60856_0" index="0" disallow="pedestrian tram rail_urban rail rail_electric rail_fast ship" speed="36.11" length="16.29" width="3.50" customShape="1" shape="295.51,-87.16 303.59,-86.08 311.66,-85.01"/>
    </edge>
    <edge id="60858" from="53" to="52" priority="3" type="highway.residential" spreadType="center" length="0.22" shape="351.78,-73.14 327.91,-75.60">
        <lane id="60858_0" index="0" disallow="pedestrian tram rail_urban rail rail_electric rail_fast ship" speed="36.11" length="0.22" width="3.50" customShape="1" shape="339.88,-78.24 339.66,-78.26"/>
    </edge>
    <edge id="60859" from="52" to="53" priority="3" type="highway.residential" spreadType="center" length="0.26" shape="328.27,-79.08 352.14,-76.61">
        <lane id="60859_0" index="0" disallow="pedestrian tram rail_urban rail rail_electric rail_fast ship" speed="36.11" length="0.26" width="3.50" customShape="1" shape="339.97,-81.75 340.11,-81.74 340.23,-81.72"/>
    </edge>
    <edge id="60861" from="47" to="53" priority="3" type="highway.residential" spreadType="center" length="19.85" shape="388.24,-72.66 351.72,-73.14">
        <lane id="60861_0" index="0" disallow="pedestrian tram rail_urban rail rail_electric rail_fast ship" speed="36.11" length="19.85" width="3.50" customShape="1" shape="388.24,-72.66 378.39,-73.87 368.54,-75.08"/>
    </edge>
    <edge id="60862" from="53" to="34" priority="3" type="highway.residential" spreadType="center" length="19.85" shape="351.77,-76.64 388.67,-76.13">
        <lane id="60862_0" index="0" disallow="pedestrian tram rail_urban rail rail_electric rail_fast ship" speed="36.11" length="19.85" width="3.50" customShape="1" shape="368.97,-78.55 378.82,-77.34 388.67,-76.13"/>
    </edge>
    <edge id="60956" from="38" to="54" priority="3" type="highway.residential" spreadType="center" length="70.05" shape="292.17,-96.26 245.88,-27.50">
        <lane id="60956_0" index="0" disallow="pedestrian tram rail_urban rail rail_electric rail_fast ship" speed="36.11" length="70.05" width="3.50" customShape="1" shape="292.17,-96.26 291.03,-94.72 282.64,-82.74 267.11,-60.97 258.46,-48.55 252.11,-38.81"/>
    </edge>
    <edge id="60957" from="54" to="43" priority="3" type="highway.residential" spreadType="center" length="70.00" shape="242.98,-29.46 289.21,-98.13">
        <lane id="60957_0" index="0" disallow="pedestrian tram rail_urban rail rail_electric rail_fast ship" speed="36.11" length="70.00" width="3.50" customShape="1" shape="249.18,-40.72 255.49,-50.41 264.12,-62.79 279.57,-84.44 287.92,-96.39 289.21,-98.13"/>
    </edge>
    <edge id="60962" from="51" to="8" priority="3" type="highway.residential" spreadType="center" length="27.97" shape="318.00,-27.43 282.15,-47.36">
        <lane id="60962_0" index="0" disallow="pedestrian tram rail_urban rail rail_electric rail_fast ship" speed="36.11" length="27.97" width="3.50" customShape="1" shape="306.80,-34.14 294.49,-40.74 282.15,-47.36"/>
    </edge>
    <edge id="60963" from="9" to="51" priority="3" type="highway.residential" spreadType="center" length="27.98" shape="283.80,-50.44 319.70,-30.48">
        <lane id="60963_0" index="0" disallow="pedestrian tram rail_urban rail rail_electric rail_fast ship" speed="36.11" length="27.98" width="3.50" customShape="1" shape="283.80,-50.44 296.14,-43.82 308.46,-37.22"/>
    </edge>

    <junction id="23" type="dead_end" x="388.78" y="36.15" incLanes="60737_0" intLanes="" shape="390.16,35.07 387.40,37.23" rightOfWay="edgePriority"/>
    <junction id="27" type="dead_end" x="295.05" y="-83.69" incLanes="60855_0" intLanes="" shape="294.82,-81.96 295.28,-85.43" rightOfWay="edgePriority"/>
    <junction id="32" type="dead_end" x="295.51" y="-87.16" incLanes="" intLanes="" shape="295.28,-85.43 295.74,-88.89" rightOfWay="edgePriority"/>
    <junction id="34" type="dead_end" x="388.67" y="-76.13" incLanes="60862_0" intLanes="" shape="388.88,-77.87 388.45,-74.39" rightOfWay="edgePriority"/>
    <junction id="38" type="dead_end" x="292.17" y="-96.26" incLanes="" intLanes="" shape="290.77,-97.30 293.58,-95.21" rightOfWay="edgePriority"/>
    <junction id="43" type="dead_end" x="289.21" y="-98.13" incLanes="60957_0" intLanes="" shape="287.81,-99.18 290.62,-97.09" rightOfWay="edgePriority"/>
    <junction id="44" type="dead_end" x="161.53" y="-63.23" incLanes="60730_0" intLanes="" shape="160.71,-61.69 162.35,-64.78" rightOfWay="edgePriority"/>
    <junction id="46" type="dead_end" x="386.93" y="39.84" incLanes="" intLanes="" shape="388.42,38.92 385.44,40.75" rightOfWay="edgePriority"/>
    <junction id="47" type="dead_end" x="388.24" y="-72.66" incLanes="" intLanes="" shape="388.45,-74.39 388.02,-70.92" rightOfWay="edgePriority"/>
    <junction id="48" type="dead_end" x="163.15" y="-66.33" incLanes="" intLanes="" shape="162.33,-64.79 163.97,-67.88" rightOfWay="edgePriority"/>
    <junction id="49" type="priority" x="308.10" y="4.91" incLanes="60736_0 60681_0 60734_0" intLanes=":49_0_0 :49_1_0 :49_2_0 :49_3_0 :49_4_0 :49_5_0" shape="321.30,22.70 323.75,16.15 319.50,14.05 316.50,11.39 314.77,8.19 314.30,4.44 315.09,0.14 317.14,-4.71 310.94,-7.95 308.31,-3.88 305.30,-1.01 301.91,0.68 298.13,1.17 293.98,0.47 289.45,-1.43 286.18,4.76 293.56,8.80 298.94,11.96 303.36,14.58 307.87,17.01 313.50,19.60">
        <request index="0" response="000000" foes="001000" cont="0"/>
        <request index="1" response="110000" foes="111000" cont="0"/>
        <request index="2" response="100000" foes="100000" cont="0"/>
        <request index="3" response="100011" foes="100011" cont="0"/>
        <request index="4" response="000000" foes="000010" cont="0"/>