<routes>
	<vehicle depart="0.1" departLane="0" departPos="46.295355441940806" departSpeed="1.7814697" id="36" type="passenger">
		<route edges="4669 4837"/>
	</vehicle>
	<vehicle depart="0.1" departLane="0" departPos="47.36946239142874" departSpeed="0.0" id="321" type="passenger">
		<route edges="4726 4844"/>
	</vehicle>
	<vehicle depart="0.1" departLane="0" departPos="40.22352935562277" departSpeed="0.0" id="327" type="passenger">
		<route edges="4726 4844"/>
	</vehicle>
	<vehicle depart="0.1" departLane="0" departPos="33.077565656326534" departSpeed="0.0" id="336" type="passenger">
		<route edges="4726 4844"/>
	</vehicle>
	<vehicle depart="0.1" departLane="0" departPos="30.01955953694385" departSpeed="3.5184455" id="342" type="passenger">
		<route edges="4669 4841"/>
	</vehicle>
	<vehicle depart="0.1" departLane="0" departPos="6.397402718531413" departSpeed="17.846181" id="343" type="passenger">
		<route edges=":109_3 4844 4745"/>
	</vehicle>
	<vehicle depart="0.1" departLane="0" departPos="20.418432789517855" departSpeed="2.6578584" id="356" type="passenger">
		<route edges="4669 4841"/>
	</vehicle>
	<vehicle depart="0.1" departLane="0" departPos="11.557172111061895" departSpeed="1.0756084" id="377" type="passenger">
		<route edges="4669 4841"/>
	</vehicle>
	<vehicle depart="0.1" departLane="0" departPos="4.604747499119053" departSpeed="0.0792664" id="397" type="passenger">
		<route edges="4669 4841"/>
	</vehicle>
	<vehicle depart="0.1" departLane="0" departPos="32.37541662864602" departSpeed="19.950167" id="334" type="motorcycle">
		<route edges=":107_3 4838 4841 4844"/>
	</vehicle>
</routes>
