<routes>
	<vehicle depart="0.1" departLane="0" departPos="62.40032802554934" departSpeed="0.0" id="35" type="passenger">
		<route edges="77026 77551"/>
	</vehicle>
	<vehicle depart="0.1" departLane="0" departPos="33.021397617350544" departSpeed="0.0" id="318" type="passenger">
		<route edges="77549 77552"/>
	</vehicle>
	<vehicle depart="0.1" departLane="0" departPos="25.520316786248298" departSpeed="1.7517732e-05" id="319" type="passenger">
		<route edges="77549 77552"/>
	</vehicle>
	<vehicle depart="0.1" departLane="0" departPos="69.90167605707693" departSpeed="0.0" id="326" type="passenger">
		<route edges="77026 77551"/>
	</vehicle>
	<vehicle depart="0.1" departLane="0" departPos="7.362200042803981" departSpeed="10.496778" id="360" type="passenger">
		<route edges=":47_0 76992 77459"/>
	</vehicle>
	<vehicle depart="0.1" departLane="0" departPos="26.96393769360001" departSpeed="8.8643072" id="366" type="passenger">
		<route edges=":48_0 77551 76992"/>
	</vehicle>
	<vehicle depart="0.1" departLane="0" departPos="9.75325256364603" departSpeed="10.137373" id="370" type="passenger">
		<route edges=":48_1 77027"/>
	</vehicle>
	<vehicle depart="0.1" departLane="0" departPos="24.743095166307274" departSpeed="7.2279087" id="377" type="passenger">
		<route edges="77554 77551"/>
	</vehicle>
	<vehicle depart="0.1" departLane="0" departPos="7.135300638875057" departSpeed="2.3981562" id="379" type="passenger">
		<route edges="77554 77027"/>
	</vehicle>
</routes>
