<routes>
	<vehicle depart="0.1" departLane="1" departPos="18.471760744195304" departSpeed="1.378252" id="314" type="bicycle">
		<route edges="2045 1697"/>
	</vehicle>
	<vehicle depart="0.1" departLane="0" departPos="25.182792508331467" departSpeed="6.9019369" id="333" type="bicycle">
		<route edges=":20_0 2698 2053"/>
	</vehicle>
	<vehicle depart="0.1" departLane="0" departPos="13.984889407419086" departSpeed="6.8312883" id="335" type="bus">
		<route edges=":20_0 2698"/>
	</vehicle>
	<vehicle depart="0.1" departLane="0" departPos="2.5" departSpeed="2.0424528" id="37" type="passenger">
		<route edges=":20_1 1697"/>
	</vehicle>
	<vehicle depart="0.1" departLane="1" departPos="2.5" departSpeed="0.0050309834" id="326" type="passenger">
		<route edges="2045 1697"/>
	</vehicle>
	<vehicle depart="0.1" departLane="0" departPos="11.447414058520465" departSpeed="10.980447" id="336" type="passenger">
		<route edges=":20_4 1697"/>
	</vehicle>
	<vehicle depart="0.1" departLane="0" departPos="29.82731358173851" departSpeed="10.742426" id="340" type="passenger">
		<route edges="3876 2045 2698"/>
	</vehicle>
	<vehicle depart="0.1" departLane="1" departPos="13.383580264003541" departSpeed="0.27893656" id="322" type="truck">
		<route edges="2045 1697"/>
	</vehicle>
</routes>
