<routes>
	<vehicle depart="0.1" departLane="0" departPos="49.87498851337571" departSpeed="2.3895354" id="350" type="bus">
		<route edges="62174 62171"/>
	</vehicle>
	<vehicle depart="0.1" departLane="0" departPos="2.5" departSpeed="1.9088179" id="35" type="passenger">
		<route edges=":38_3 62460"/>
	</vehicle>
	<vehicle depart="0.1" departLane="0" departPos="36.68881540421395" departSpeed="2.4301828" id="312" type="passenger">
		<route edges="62172 62175"/>
	</vehicle>
	<vehicle depart="0.1" departLane="0" departPos="15.235184114020088" departSpeed="2.1477634" id="323" type="passenger">
		<route edges="62459 62175"/>
	</vehicle>
	<vehicle depart="0.1" departLane="0" departPos="32.66375439731159" departSpeed="0.11351503" id="336" type="passenger">
		<route edges=":38_3 62460"/>
	</vehicle>
	<vehicle depart="0.1" departLane="0" departPos="14.148891971520223" departSpeed="1.7070184" id="338" type="passenger">
		<route edges="62460 62063"/>
	</vehicle>
	<vehicle depart="0.1" departLane="0" departPos="6.373637732574508" departSpeed="14.0072" id="343" type="passenger">
		<route edges="62171"/>
	</vehicle>
	<vehicle depart="0.1" departLane="0" departPos="35.82204700636583" departSpeed="1.5972652" id="354" type="passenger">
		<route edges="62174 62171"/>
	</vehicle>
	<vehicle depart="0.1" departLane="0" departPos="18.86568160607832" departSpeed="1.3701795" id="34" type="motorcycle">
		<route edges=":38_2 62175"/>
	</vehicle>
	<vehicle depart="0.1" departLane="0" departPos="6.727133381270891" departSpeed="1.7487254" id="30" type="truck">
		<route edges="62175"/>
	</vehicle>
</routes>
