<!-- generated on 2020-12-18 16:49:59.188586 by ipykernel_launcher.py v1_2_0+5214-53edc58fcd
-->
<connections>
	<connection contPos="-4.0" from="854" fromLane="1" keepClear="true" to="886" toLane="1"/>
	<connection contPos="-4.0" from="854" fromLane="0" keepClear="true" to="887" toLane="0"/>
	<connection contPos="-4.0" from="854" fromLane="0" keepClear="true" to="886" toLane="0"/>
	<connection contPos="-4.0" from="856" fromLane="1" keepClear="true" to="885" toLane="1"/>
	<connection contPos="-4.0" from="856" fromLane="0" keepClear="true" to="885" toLane="0"/>
	<connection contPos="-4.0" from="858" fromLane="0" keepClear="true" to="897" toLane="0"/>
	<connection contPos="-4.0" from="858" fromLane="0" keepClear="true" to="879" toLane="0"/>
	<connection contPos="-4.0" from="860" fromLane="0" keepClear="true" to="884" toLane="0"/>
	<connection contPos="-4.0" from="861" fromLane="0" keepClear="true" to="901" toLane="0"/>
	<connection contPos="-4.0" from="862" fromLane="0" keepClear="true" to="900" toLane="0"/>
	<connection contPos="-4.0" from="862" fromLane="0" keepClear="true" to="882" toLane="0"/>
	<connection contPos="-4.0" from="864" fromLane="1" keepClear="true" to="895" toLane="0"/>
	<connection contPos="-4.0" from="864" fromLane="0" keepClear="true" to="903" toLane="0"/>
	<connection contPos="-4.0" from="866" fromLane="1" keepClear="true" to="883" toLane="0"/>
	<connection contPos="-4.0" from="866" fromLane="1" keepClear="true" to="896" toLane="1"/>
	<connection contPos="-4.0" from="866" fromLane="0" keepClear="true" to="896" toLane="0"/>
	<connection contPos="-4.0" from="868" fromLane="0" keepClear="true" to="902" toLane="0"/>
	<connection contPos="-4.0" from="869" fromLane="0" keepClear="true" to="906" toLane="0"/>
	<connection contPos="-4.0" from="872" fromLane="0" keepClear="true" to="898" toLane="0"/>
	<connection contPos="-4.0" from="874" fromLane="1" keepClear="true" to="892" toLane="1"/>
	<connection contPos="-4.0" from="874" fromLane="0" keepClear="true" to="892" toLane="0"/>
	<connection contPos="-4.0" from="874" fromLane="0" keepClear="true" to="894" toLane="0"/>
	<connection contPos="-4.0" from="876" fromLane="1" keepClear="true" to="888" toLane="1"/>
	<connection contPos="-4.0" from="876" fromLane="0" keepClear="true" to="890" toLane="0"/>
	<connection contPos="-4.0" from="876" fromLane="0" keepClear="true" to="888" toLane="0"/>
	<connection contPos="-4.0" from="877" fromLane="0" keepClear="true" to="905" toLane="0"/>
	<connection contPos="-4.0" from="877" fromLane="0" keepClear="true" to="881" toLane="0"/>
	<connection contPos="-4.0" from="878" fromLane="0" keepClear="true" to="893" toLane="0"/>
	<connection contPos="-4.0" from="879" fromLane="0" keepClear="true" to="861" toLane="0"/>
	<connection contPos="-4.0" from="885" fromLane="1" keepClear="true" to="864" toLane="1"/>
	<connection contPos="-4.0" from="881" fromLane="0" keepClear="true" to="861" toLane="0"/>
	<connection contPos="-4.0" from="882" fromLane="0" keepClear="true" to="857" toLane="0"/>
	<connection contPos="-4.0" from="883" fromLane="0" keepClear="true" to="867" toLane="0"/>
	<connection contPos="-4.0" from="884" fromLane="0" keepClear="true" to="862" toLane="0"/>
	<connection contPos="-4.0" from="885" fromLane="0" keepClear="true" to="864" toLane="0"/>
	<connection contPos="-4.0" from="886" fromLane="0" keepClear="true" to="856" toLane="0"/>
	<connection contPos="-4.0" from="887" fromLane="0" keepClear="true" to="871" toLane="0"/>
	<connection contPos="-4.0" from="888" fromLane="0" keepClear="true" to="852" toLane="0"/>
	<connection contPos="-4.0" from="896" fromLane="1" keepClear="true" to="874" toLane="1"/>
	<connection contPos="-4.0" from="890" fromLane="0" keepClear="true" to="877" toLane="0"/>
	<connection contPos="-4.0" from="892" fromLane="1" keepClear="true" to="876" toLane="1"/>
	<connection contPos="-4.0" from="892" fromLane="0" keepClear="true" to="876" toLane="0"/>
	<connection contPos="-4.0" from="893" fromLane="0" keepClear="true" to="852" toLane="0"/>
	<connection contPos="-4.0" from="894" fromLane="0" keepClear="true" to="870" toLane="0"/>
	<connection contPos="-4.0" from="895" fromLane="0" keepClear="true" to="868" toLane="0"/>
	<connection contPos="-4.0" from="896" fromLane="0" keepClear="true" to="874" toLane="0"/>
	<connection contPos="-4.0" from="897" fromLane="0" keepClear="true" to="878" toLane="0"/>
	<connection contPos="-4.0" from="898" fromLane="0" keepClear="true" to="856" toLane="0"/>
	<connection contPos="-4.0" from="888" fromLane="1" keepClear="true" to="852" toLane="1"/>
	<connection contPos="-4.0" from="900" fromLane="0" keepClear="true" to="878" toLane="0"/>
	<connection contPos="-4.0" from="901" fromLane="0" keepClear="true" to="859" toLane="0"/>
	<connection contPos="-4.0" from="902" fromLane="0" keepClear="true" to="874" toLane="1"/>
	<connection contPos="-4.0" from="903" fromLane="0" keepClear="true" to="868" toLane="0"/>
	<connection contPos="-4.0" from="886" fromLane="1" keepClear="true" to="856" toLane="1"/>
	<connection contPos="-4.0" from="905" fromLane="0" keepClear="true" to="857" toLane="0"/>
	<connection contPos="-4.0" from="906" fromLane="0" keepClear="true" to="876" toLane="0"/>
</connections>
