<routes>
	<vehicle depart="0.1" departLane="0" departPos="0" departSpeed="8.784" id="30" type="passenger">
		<route edges="905 857"/>
	</vehicle>
	<vehicle depart="0.1" departLane="0" departPos="74.80761847169956" departSpeed="7.3345" id="31" type="passenger">
		<route edges="861 901 859"/>
	</vehicle>
	<vehicle depart="0.1" departLane="0" departPos="0" departSpeed="8.129" id="32" type="passenger">
		<route edges="888 852"/>
	</vehicle>
	<vehicle depart="0.1" departLane="0" departPos="70.36758183756551" departSpeed="11.8517" id="33" type="passenger">
		<route edges="876 890 877 905 857"/>
	</vehicle>
	<vehicle depart="0.1" departLane="0" departPos="210.52542087374627" departSpeed="7.7757" id="35" type="passenger">
		<route edges="860 884 862 900 878"/>
	</vehicle>
	<vehicle depart="0.1" departLane="0" departPos="39.1171138958512" departSpeed="8.4001" id="36" type="passenger">
		<route edges="877 905 857"/>
	</vehicle>
	<vehicle depart="0.1" departLane="0" departPos="195.06685031074363" departSpeed="7.7345" id="37" type="passenger">
		<route edges="860 884 862 900 878"/>
	</vehicle>
	<vehicle depart="0.1" departLane="0" departPos="0" departSpeed="8.4895" id="38" type="passenger">
		<route edges="859"/>
	</vehicle>
	<vehicle depart="0.1" departLane="0" departPos="11.600974258407811" departSpeed="7.3662" id="310" type="passenger">
		<route edges="896 874 892 876 888 852"/>
	</vehicle>
	<vehicle depart="0.1" departLane="0" departPos="50.53853965443876" departSpeed="11.9402" id="311" type="passenger">
		<route edges="876 890 877 881 861 901 859"/>
	</vehicle>
	<vehicle depart="0.1" departLane="0" departPos="0" departSpeed="12.1265" id="312" type="passenger">
		<route edges="876 890 877 905 857"/>
	</vehicle>
	<vehicle depart="0.1" departLane="0" departPos="128.43090294770502" departSpeed="8.2502" id="313" type="passenger">
		<route edges="860 884 862 900 878"/>
	</vehicle>
	<vehicle depart="0.1" departLane="0" departPos="0" departSpeed="12.7535" id="314" type="passenger">
		<route edges="892 876 890 877 905 857"/>
	</vehicle>
	<vehicle depart="0.1" departLane="1" departPos="0" departSpeed="5.9273" id="315" type="passenger">
		<route edges="896 896 874 892 876 888 852"/>
	</vehicle>
	<vehicle depart="0.1" departLane="0" departPos="116.36849441913088" departSpeed="12.0969" id="316" type="passenger">
		<route edges="874 892 876 888 852"/>
	</vehicle>
	<vehicle depart="0.1" departLane="0" departPos="36.76494272506465" departSpeed="13.4818" id="321" type="passenger">
		<route edges="874 892 876 888 852"/>
	</vehicle>
</routes>
