<?xml version="1.0" encoding="UTF-8"?>

<!-- generated on Fri Dec 18 16:49:59 2020 by Eclipse SUMO netconvert Version 1.8.0
<configuration xmlns:xsi="http://www.w3.org/2001/XMLSchema-instance" xsi:noNamespaceSchemaLocation="http://sumo.dlr.de/xsd/netconvertConfiguration.xsd">

    <input>
        <node-files value="./converted_scenarios/SUMO/DEU_Muc-19_1_I-1-1/nodes.net.xml"/>
        <edge-files value="./converted_scenarios/SUMO/DEU_Muc-19_1_I-1-1/edges.net.xml"/>
        <connection-files value="./converted_scenarios/SUMO/DEU_Muc-19_1_I-1-1/_connections.net.xml"/>
        <tllogic-files value="./converted_scenarios/SUMO/DEU_Muc-19_1_I-1-1/_tll.net.xml"/>
    </input>

    <output>
        <output-file value="./converted_scenarios/SUMO/DEU_Muc-19_1_I-1-1/DEU_Muc-19_1_I-1-1.net.xml"/>
    </output>

    <processing>
        <plain.extend-edge-shape value="true"/>
        <geometry.remove.keep-edges.explicit value="true"/>
        <geometry.avoid-overlap value="true"/>
        <offset.disable-normalization value="true"/>
    </processing>

    <junctions>
        <no-turnarounds value="true"/>
        <junctions.internal-link-detail value="20"/>
    </junctions>

    <report>
        <aggregate-warnings value="5"/>
    </report>

    <random_number>
        <seed value="1234"/>
    </random_number>

</configuration>
-->

<net version="1.6" junctionCornerDetail="5" junctionLinkDetail="20" limitTurnSpeed="5.50" xmlns:xsi="http://www.w3.org/2001/XMLSchema-instance" xsi:noNamespaceSchemaLocation="http://sumo.dlr.de/xsd/net_file.xsd">

    <location netOffset="0.00,0.00" convBoundary="-209.26,-378.28,101.27,159.80" origBoundary="-209.26,-378.28,102.35,160.52" projParameter="!"/>

    <edge id=":1_0" function="internal">
        <lane id=":1_0_0" index="0" disallow="bus truck rail_fast" speed="6.81" length="10.18" width="2.50" shape="44.14,-76.14 44.57,-75.91 45.01,-75.74 45.44,-75.61 45.87,-75.54 46.30,-75.51 46.72,-75.53 47.15,-75.61 47.57,-75.73 47.99,-75.90 48.41,-76.12 48.83,-76.39 49.24,-76.72 49.66,-77.09 50.07,-77.51 50.48,-77.98 50.89,-78.50 51.30,-79.07 51.70,-79.69 52.11,-80.36"/>
    </edge>
    <edge id=":1_1" function="internal">
        <lane id=":1_1_0" index="0" disallow="rail_fast" speed="36.11" length="9.26" width="2.50" shape="47.42,-72.37 52.11,-80.36"/>
        <lane id=":1_1_1" index="1" disallow="rail_fast" speed="36.11" length="9.26" width="2.50" shape="49.57,-71.10 54.26,-79.09"/>
    </edge>
    <edge id=":10_0" function="internal">
        <lane id=":10_0_0" index="0" disallow="rail_fast" speed="36.11" length="8.96" width="2.50" shape="-23.87,-122.96 -16.56,-117.79"/>
    </edge>
    <edge id=":10_1" function="internal">
        <lane id=":10_1_0" index="0" disallow="bus truck rail_fast" speed="8.53" length="9.97" width="2.50" shape="-23.87,-122.96 -23.27,-122.52 -22.70,-122.08 -22.17,-121.64 -21.67,-121.21 -21.21,-120.78 -20.78,-120.36 -20.39,-119.94 -20.03,-119.52 -19.71,-119.10 -19.42,-118.69 -19.16,-118.28 -18.94,-117.88 -18.76,-117.48 -18.60,-117.08 -18.49,-116.69 -18.41,-116.30 -18.36,-115.91 -18.35,-115.53 -18.37,-115.15"/>
    </edge>
    <edge id=":11_0" function="internal">
        <lane id=":11_0_0" index="0" disallow="bus truck rail_fast" speed="28.74" length="7.02" width="2.50" shape="-79.61,-15.65 -80.11,-15.79 -80.56,-15.93 -80.96,-16.06 -81.32,-16.19 -81.64,-16.32 -81.94,-16.46 -82.21,-16.60 -82.46,-16.74 -82.70,-16.89 -82.93,-17.04 -83.17,-17.21 -83.40,-17.38 -83.65,-17.57 -83.92,-17.77 -84.20,-17.98 -84.52,-18.21 -84.87,-18.46 -85.26,-18.72 -85.70,-19.01"/>
    </edge>
    <edge id=":14_0" function="internal">
        <lane id=":14_0_0" index="0" disallow="bus truck rail_fast" speed="12.86" length="7.05" width="2.50" shape="-84.35,-21.11 -83.92,-20.83 -83.53,-20.55 -83.19,-20.29 -82.88,-20.04 -82.59,-19.81 -82.33,-19.58 -82.09,-19.37 -81.85,-19.18 -81.62,-18.99 -81.39,-18.82 -81.15,-18.67 -80.90,-18.53 -80.63,-18.40 -80.33,-18.28 -80.00,-18.18 -79.64,-18.09 -79.23,-18.02 -78.77,-17.96 -78.26,-17.92"/>
    </edge>
    <edge id=":15_0" function="internal">
        <lane id=":15_0_0" index="0" disallow="bus truck rail_fast" speed="36.11" length="5.92" width="2.50" shape="-17.59,-112.71 -17.86,-112.37 -18.11,-112.06 -18.34,-111.78 -18.55,-111.52 -18.73,-111.29 -18.90,-111.07 -19.06,-110.87 -19.21,-110.67 -19.35,-110.48 -19.49,-110.29 -19.62,-110.10 -19.76,-109.89 -19.89,-109.67 -20.04,-109.44 -20.19,-109.19 -20.36,-108.90 -20.54,-108.59 -20.74,-108.25 -20.96,-107.86"/>
    </edge>
    <edge id=":15_1" function="internal">
        <lane id=":15_1_0" index="0" disallow="bus truck rail_fast" speed="16.91" length="7.64" width="2.50" shape="-18.39,-114.95 -18.45,-114.39 -18.51,-113.88 -18.58,-113.42 -18.64,-113.01 -18.71,-112.63 -18.79,-112.28 -18.87,-111.96 -18.97,-111.66 -19.07,-111.37 -19.18,-111.09 -19.31,-110.81 -19.45,-110.52 -19.61,-110.22 -19.78,-109.91 -19.97,-109.57 -20.19,-109.20 -20.42,-108.80 -20.68,-108.35 -20.96,-107.86"/>
    </edge>
    <edge id=":16_0" function="internal">
        <lane id=":16_0_0" index="0" disallow="bus truck rail_fast" speed="36.11" length="3.39" width="2.50" shape="-69.98,-21.24 -70.10,-21.02 -70.21,-20.82 -70.31,-20.64 -70.40,-20.47 -70.47,-20.32 -70.54,-20.18 -70.61,-20.04 -70.68,-19.92 -70.74,-19.80 -70.80,-19.68 -70.87,-19.56 -70.94,-19.44 -71.02,-19.32 -71.11,-19.19 -71.21,-19.05 -71.32,-18.90 -71.45,-18.74 -71.59,-18.56 -71.76,-18.37"/>
    </edge>
    <edge id=":17_0" function="internal">
        <lane id=":17_0_0" index="0" disallow="bus truck rail_fast" speed="36.11" length="0.10" width="2.50" shape="-72.97,-21.03 -72.97,-21.03"/>
    </edge>
    <edge id=":18_0" function="internal">
        <lane id=":18_0_0" index="0" disallow="bus truck rail_fast" speed="7.42" length="6.72" width="2.50" shape="-23.04,-109.26 -22.74,-109.79 -22.46,-110.30 -22.20,-110.79 -21.96,-111.25 -21.74,-111.69 -21.53,-112.10 -21.35,-112.50 -21.18,-112.87 -21.04,-113.21 -20.91,-113.54 -20.80,-113.84 -20.71,-114.12 -20.64,-114.37 -20.59,-114.60 -20.56,-114.81 -20.54,-115.00 -20.55,-115.16 -20.57,-115.30 -20.62,-115.42"/>
    </edge>
    <edge id=":18_1" function="internal">
        <lane id=":18_1_0" index="0" disallow="bus truck rail_fast" speed="9.00" length="7.54" width="2.50" shape="-23.04,-109.26 -22.74,-109.78 -22.45,-110.27 -22.16,-110.74 -21.87,-111.18 -21.59,-111.60 -21.32,-111.99 -21.05,-112.36 -20.78,-112.70 -20.52,-113.02 -20.27,-113.31 -20.02,-113.58 -19.77,-113.82 -19.53,-114.04 -19.29,-114.24 -19.05,-114.40 -18.83,-114.55 -18.60,-114.67 -18.38,-114.76 -18.17,-114.83"/>
    </edge>
    <edge id=":19_0" function="internal">
        <lane id=":19_0_0" index="0" disallow="bus truck rail_fast" speed="36.11" length="1.91" width="2.50" shape="-67.75,139.29 -69.29,141.02"/>
        <lane id=":19_0_1" index="1" disallow="bus truck rail_fast" speed="36.11" length="1.91" width="2.50" shape="-69.62,137.63 -70.61,138.78"/>
    </edge>
    <edge id=":20_0" function="internal">
        <lane id=":20_0_0" index="0" disallow="bus truck rail_fast" speed="36.11" length="0.87" width="2.50" shape="-69.43,141.16 -69.48,141.21 -69.52,141.25 -69.56,141.28 -69.59,141.31 -69.63,141.34 -69.66,141.36 -69.69,141.38 -69.72,141.40 -69.76,141.41 -69.79,141.43 -69.82,141.44 -69.86,141.45 -69.89,141.47 -69.93,141.48 -69.97,141.50 -70.02,141.51 -70.07,141.53 -70.12,141.55 -70.18,141.58"/>
    </edge>
    <edge id=":20_1" function="internal">
        <lane id=":20_1_0" index="0" disallow="bus truck rail_fast" speed="36.11" length="1.28" width="2.50" shape="-70.74,138.92 -70.81,138.99 -70.87,139.06 -70.92,139.11 -70.97,139.16 -71.02,139.21 -71.06,139.25 -71.10,139.28 -71.15,139.32 -71.19,139.35 -71.22,139.38 -71.27,139.41 -71.31,139.44 -71.35,139.48 -71.40,139.52 -71.45,139.56 -71.50,139.60 -71.56,139.65 -71.63,139.71 -71.70,139.77"/>
    </edge>
    <edge id=":22_0" function="internal">
        <lane id=":22_0_0" index="0" disallow="bus truck rail_fast" speed="36.11" length="9.02" width="2.50" shape="-88.27,141.17 -82.83,133.95"/>
        <lane id=":22_0_1" index="1" disallow="bus truck rail_fast" speed="36.11" length="9.02" width="2.50" shape="-86.26,142.65 -80.84,135.47"/>
    </edge>
    <edge id=":22_2" function="internal">
        <lane id=":22_2_0" index="0" disallow="bus truck rail_fast" speed="7.92" length="11.66" width="2.50" shape="-86.26,142.65 -85.73,141.91 -85.21,141.23 -84.70,140.59 -84.19,140.00 -83.68,139.46 -83.17,138.97 -82.67,138.53 -82.18,138.14 -81.69,137.80 -81.20,137.51 -80.71,137.26 -80.23,137.07 -79.76,136.93 -79.28,136.83 -78.81,136.79 -78.35,136.80 -77.89,136.85 -77.43,136.95 -76.98,137.11"/>
    </edge>
    <edge id=":23_0" function="internal">
        <lane id=":23_0_0" index="0" disallow="bus truck rail_fast" speed="36.11" length="2.59" width="2.50" shape="-76.81,137.18 -76.63,137.25 -76.47,137.31 -76.32,137.38 -76.19,137.44 -76.07,137.49 -75.97,137.55 -75.87,137.60 -75.78,137.66 -75.69,137.71 -75.60,137.77 -75.52,137.83 -75.43,137.90 -75.34,137.97 -75.25,138.04 -75.14,138.12 -75.03,138.21 -74.91,138.31 -74.77,138.42 -74.61,138.53"/>
    </edge>
    <edge id=":25_0" function="internal">
        <lane id=":25_0_0" index="0" disallow="bus truck rail_fast" speed="5.25" length="2.21" width="2.50" shape="-74.30,140.95 -74.46,140.96 -74.61,140.98 -74.74,140.99 -74.86,140.99 -74.97,141.00 -75.08,140.99 -75.17,140.99 -75.27,140.97 -75.36,140.95 -75.44,140.93 -75.53,140.90 -75.61,140.86 -75.70,140.81 -75.79,140.76 -75.88,140.70 -75.98,140.63 -76.09,140.55 -76.21,140.46 -76.34,140.37"/>
    </edge>
    <edge id=":25_1" function="internal">
        <lane id=":25_1_0" index="0" disallow="bus truck rail_fast" speed="36.11" length="2.20" width="2.50" shape="-74.43,141.44 -74.58,141.37 -74.72,141.32 -74.84,141.26 -74.95,141.22 -75.06,141.17 -75.15,141.13 -75.24,141.09 -75.32,141.05 -75.40,141.01 -75.47,140.97 -75.55,140.93 -75.63,140.88 -75.71,140.83 -75.79,140.77 -75.88,140.71 -75.98,140.64 -76.09,140.56 -76.21,140.47 -76.34,140.37"/>
    </edge>
    <edge id=":26_0" function="internal">
        <lane id=":26_0_0" index="0" disallow="bus truck rail_fast" speed="36.11" length="2.11" width="2.50" shape="-76.50,140.25 -76.62,140.15 -76.73,140.07 -76.84,139.99 -76.93,139.92 -77.02,139.86 -77.09,139.80 -77.17,139.74 -77.24,139.68 -77.30,139.63 -77.36,139.57 -77.42,139.52 -77.49,139.45 -77.55,139.39 -77.61,139.32 -77.68,139.23 -77.76,139.15 -77.84,139.05 -77.92,138.93 -78.02,138.81"/>
    </edge>
    <edge id=":28_0" function="internal">
        <lane id=":28_0_0" index="0" disallow="bus truck rail_fast" speed="8.74" length="6.16" width="2.50" shape="-15.54,20.62 -15.15,20.84 -14.79,21.04 -14.47,21.24 -14.17,21.42 -13.89,21.59 -13.63,21.75 -13.38,21.89 -13.14,22.02 -12.91,22.13 -12.68,22.22 -12.44,22.30 -12.19,22.35 -11.93,22.39 -11.65,22.41 -11.35,22.41 -11.02,22.38 -10.67,22.34 -10.27,22.26 -9.84,22.17"/>
    </edge>
    <edge id=":29_0" function="internal">
        <lane id=":29_0_0" index="0" disallow="bus truck rail_fast" speed="36.11" length="2.46" width="2.50" shape="-14.62,24.10 -14.77,23.99 -14.91,23.90 -15.03,23.81 -15.14,23.74 -15.25,23.67 -15.34,23.61 -15.43,23.55 -15.52,23.49 -15.60,23.44 -15.69,23.39 -15.77,23.34 -15.86,23.29 -15.95,23.24 -16.05,23.18 -16.16,23.12 -16.28,23.06 -16.41,22.99 -16.56,22.91 -16.72,22.82"/>
    </edge>
    <edge id=":31_0" function="internal">
        <lane id=":31_0_0" index="0" disallow="bus truck rail_fast" speed="36.11" length="2.03" width="2.50" shape="-40.38,110.71 -38.82,112.01"/>
    </edge>
    <edge id=":34_0" function="internal">
        <lane id=":34_0_0" index="0" disallow="bus truck rail_fast" speed="36.11" length="1.99" width="2.50" shape="-40.35,113.99 -40.47,113.90 -40.57,113.82 -40.67,113.75 -40.76,113.68 -40.84,113.62 -40.91,113.57 -40.98,113.52 -41.05,113.47 -41.12,113.43 -41.18,113.38 -41.25,113.34 -41.32,113.29 -41.39,113.25 -41.47,113.20 -41.55,113.15 -41.65,113.09 -41.75,113.02 -41.86,112.95 -41.99,112.88"/>
    </edge>
    <edge id=":35_0" function="internal">
        <lane id=":35_0_0" index="0" disallow="bus truck rail_fast" speed="7.82" length="10.94" width="2.50" shape="-78.18,138.60 -78.42,138.25 -78.62,137.88 -78.78,137.49 -78.89,137.08 -78.96,136.66 -78.99,136.21 -78.98,135.75 -78.93,135.26 -78.83,134.76 -78.69,134.24 -78.51,133.70 -78.29,133.15 -78.03,132.57 -77.73,131.97 -77.38,131.36 -76.99,130.73 -76.56,130.08 -76.09,129.40 -75.58,128.71"/>
    </edge>
    <edge id=":35_1" function="internal">
        <lane id=":35_1_0" index="0" disallow="bus truck rail_fast" speed="36.11" length="8.37" width="2.50" shape="-82.71,133.80 -77.56,127.20"/>
        <lane id=":35_1_1" index="1" disallow="bus truck rail_fast" speed="36.11" length="8.37" width="2.50" shape="-80.72,135.31 -75.58,128.71"/>
    </edge>
    <edge id=":36_0" function="internal">
        <lane id=":36_0_0" index="0" disallow="bus truck rail_fast" speed="6.94" length="10.29" width="2.50" shape="-14.85,33.42 -14.44,32.73 -14.07,32.06 -13.74,31.42 -13.46,30.80 -13.22,30.21 -13.03,29.63 -12.88,29.08 -12.77,28.55 -12.70,28.04 -12.68,27.56 -12.71,27.10 -12.77,26.66 -12.88,26.24 -13.04,25.84 -13.24,25.47 -13.48,25.12 -13.76,24.79 -14.09,24.48 -14.47,24.20"/>
    </edge>
    <edge id=":36_1" function="internal">
        <lane id=":36_1_0" index="0" disallow="bus truck rail_fast" speed="36.11" length="9.46" width="2.50" shape="-14.85,33.42 -9.92,25.37"/>
        <lane id=":36_1_1" index="1" disallow="bus truck rail_fast" speed="36.11" length="9.46" width="2.50" shape="-12.73,34.73 -7.78,26.66"/>
    </edge>
    <edge id=":37_0" function="internal">
        <lane id=":37_0_0" index="0" disallow="bus truck rail_fast" speed="8.35" length="6.60" width="2.50" shape="-9.65,22.12 -9.43,22.06 -9.21,21.98 -9.00,21.88 -8.77,21.75 -8.55,21.61 -8.33,21.45 -8.10,21.26 -7.87,21.06 -7.64,20.83 -7.40,20.59 -7.16,20.32 -6.92,20.04 -6.68,19.73 -6.44,19.40 -6.19,19.05 -5.94,18.69 -5.69,18.30 -5.44,17.89 -5.19,17.46"/>
    </edge>
    <edge id=":37_1" function="internal">
        <lane id=":37_1_0" index="0" disallow="bus truck rail_fast" speed="36.11" length="9.03" width="2.50" shape="-9.81,25.20 -5.19,17.46"/>
        <lane id=":37_1_1" index="1" disallow="bus truck rail_fast" speed="36.11" length="9.03" width="2.50" shape="-7.67,26.49 -3.03,18.72"/>
    </edge>
    <edge id=":38_0" function="internal">
        <lane id=":38_0_0" index="0" disallow="bus truck rail_fast" speed="7.25" length="10.13" width="2.50" shape="42.64,-64.28 43.02,-64.93 43.35,-65.56 43.64,-66.17 43.90,-66.77 44.11,-67.34 44.28,-67.90 44.42,-68.44 44.51,-68.97 44.57,-69.47 44.58,-69.96 44.55,-70.42 44.49,-70.87 44.38,-71.31 44.24,-71.72 44.05,-72.12 43.83,-72.49 43.56,-72.85 43.26,-73.20 42.91,-73.52"/>
    </edge>
    <edge id=":38_1" function="internal">
        <lane id=":38_1_0" index="0" disallow="rail_fast" speed="36.11" length="9.20" width="2.50" shape="42.64,-64.28 47.32,-72.20"/>
        <lane id=":38_1_1" index="1" disallow="rail_fast" speed="36.11" length="9.20" width="2.50" shape="44.79,-63.01 49.47,-70.93"/>
    </edge>
    <edge id=":39_0" function="internal">
        <lane id=":39_0_0" index="0" disallow="bus truck rail_fast" speed="36.11" length="2.98" width="2.50" shape="42.28,-74.07 42.11,-74.21 41.96,-74.34 41.82,-74.46 41.69,-74.56 41.57,-74.66 41.47,-74.74 41.36,-74.82 41.27,-74.90 41.17,-74.97 41.07,-75.04 40.98,-75.11 40.87,-75.18 40.77,-75.25 40.65,-75.33 40.53,-75.41 40.39,-75.50 40.24,-75.60 40.07,-75.72 39.89,-75.84"/>
    </edge>
    <edge id=":4_0" function="internal">
        <lane id=":4_0_0" index="0" disallow="bus truck rail_fast" speed="7.63" length="9.79" width="2.50" shape="-40.16,101.06 -40.52,101.62 -40.85,102.17 -41.14,102.71 -41.39,103.25 -41.61,103.77 -41.80,104.28 -41.94,104.79 -42.06,105.28 -42.13,105.77 -42.17,106.25 -42.18,106.71 -42.15,107.17 -42.08,107.62 -41.98,108.06 -41.84,108.49 -41.67,108.92 -41.46,109.33 -41.22,109.73 -40.94,110.13"/>
    </edge>
    <edge id=":4_1" function="internal">
        <lane id=":4_1_0" index="0" disallow="bus truck rail_fast" speed="36.11" length="9.08" width="2.50" shape="-40.16,101.06 -45.34,108.56"/>
        <lane id=":4_1_1" index="1" disallow="bus truck rail_fast" speed="36.11" length="9.08" width="2.50" shape="-42.24,99.67 -47.38,107.12"/>
    </edge>
    <edge id=":40_0" function="internal">
        <lane id=":40_0_0" index="0" disallow="bus truck rail_fast" speed="6.22" length="7.94" width="2.50" shape="-10.38,-110.42 -10.98,-110.82 -11.56,-111.20 -12.11,-111.55 -12.63,-111.86 -13.13,-112.14 -13.61,-112.40 -14.06,-112.62 -14.48,-112.81 -14.88,-112.97 -15.25,-113.10 -15.60,-113.20 -15.92,-113.26 -16.22,-113.30 -16.49,-113.31 -16.73,-113.28 -16.95,-113.22 -17.15,-113.14 -17.32,-113.02 -17.46,-112.87"/>
    </edge>
    <edge id=":40_1" function="internal">
        <lane id=":40_1_0" index="0" disallow="rail_fast" speed="36.11" length="9.03" width="2.50" shape="-10.38,-110.42 -17.78,-115.60"/>
    </edge>
    <edge id=":41_0" function="internal">
        <lane id=":41_0_0" index="0" disallow="rail_fast" speed="36.11" length="9.06" width="2.50" shape="-16.39,-117.68 -8.97,-112.48"/>
    </edge>
    <edge id=":41_1" function="internal">
        <lane id=":41_1_0" index="0" disallow="bus truck rail_fast" speed="9.57" length="9.61" width="2.50" shape="-17.97,-114.88 -17.55,-114.98 -17.12,-115.05 -16.69,-115.10 -16.25,-115.13 -15.81,-115.12 -15.36,-115.10 -14.90,-115.05 -14.44,-114.97 -13.97,-114.87 -13.50,-114.74 -13.02,-114.59 -12.53,-114.42 -12.04,-114.21 -11.54,-113.99 -11.04,-113.74 -10.53,-113.46 -10.02,-113.16 -9.50,-112.83 -8.97,-112.48"/>
    </edge>
    <edge id=":42_0" function="internal">
        <lane id=":42_0_0" index="0" disallow="bus truck rail_fast" speed="36.11" length="2.67" width="2.50" shape="41.41,-77.83 43.67,-76.41"/>
    </edge>
    <edge id=":5_0" function="internal">
        <lane id=":5_0_0" index="0" disallow="bus truck rail_fast" speed="6.93" length="10.00" width="2.50" shape="-42.52,112.55 -42.93,112.32 -43.34,112.14 -43.75,112.00 -44.17,111.92 -44.59,111.88 -45.01,111.88 -45.43,111.93 -45.86,112.03 -46.29,112.18 -46.72,112.37 -47.16,112.61 -47.59,112.89 -48.04,113.22 -48.48,113.60 -48.93,114.03 -49.38,114.50 -49.83,115.01 -50.29,115.58 -50.74,116.19"/>
    </edge>
    <edge id=":5_1" function="internal">
        <lane id=":5_1_0" index="0" disallow="bus truck rail_fast" speed="36.11" length="9.13" width="2.50" shape="-45.45,108.73 -50.74,116.19"/>
        <lane id=":5_1_1" index="1" disallow="bus truck rail_fast" speed="36.11" length="9.13" width="2.50" shape="-47.50,107.28 -52.76,114.71"/>
    </edge>
    <edge id=":6_0" function="internal">
        <lane id=":6_0_0" index="0" disallow="bus truck rail_fast" speed="36.11" length="3.01" width="2.50" shape="-63.10,133.19 -64.90,135.61"/>
        <lane id=":6_0_1" index="1" disallow="bus truck rail_fast" speed="36.11" length="3.01" width="2.50" shape="-65.12,131.72 -66.90,134.12"/>
    </edge>
    <edge id=":7_0" function="internal">
        <lane id=":7_0_0" index="0" disallow="bus truck rail_fast" speed="13.48" length="7.23" width="2.50" shape="-20.71,-115.60 -20.95,-116.07 -21.17,-116.50 -21.37,-116.89 -21.56,-117.24 -21.74,-117.56 -21.92,-117.85 -22.10,-118.11 -22.27,-118.36 -22.46,-118.58 -22.65,-118.80 -22.85,-119.01 -23.07,-119.21 -23.31,-119.42 -23.57,-119.64 -23.87,-119.86 -24.19,-120.10 -24.54,-120.36 -24.93,-120.65 -25.37,-120.96"/>
    </edge>
    <edge id=":7_1" function="internal">
        <lane id=":7_1_0" index="0" disallow="rail_fast" speed="36.11" length="9.09" width="2.50" shape="-17.94,-115.71 -25.37,-120.96"/>
    </edge>

    <edge id="852" from="1" to="2" priority="1" spreadType="center" length="97.95">
        <lane id="852_0" index="0" disallow="rail_fast" speed="36.11" length="97.95" width="2.50" customShape="1" shape="52.11,-80.36 75.61,-120.85 100.19,-163.22"/>
        <lane id="852_1" index="1" disallow="rail_fast" speed="36.11" length="97.95" width="2.50" customShape="1" shape="54.26,-79.09 77.77,-119.60 102.35,-161.96"/>
    </edge>
    <edge id="854" from="3" to="4" priority="1" spreadType="center" length="6.35">
        <lane id="854_0" index="0" disallow="rail_fast" speed="36.11" length="6.35" width="2.50" customShape="1" shape="-37.70,97.42 -39.48,100.06 -40.16,101.06"/>
        <lane id="854_1" index="1" disallow="rail_fast" speed="36.11" length="6.35" width="2.50" customShape="1" shape="-39.78,96.02 -41.56,98.66 -42.24,99.67"/>
    </edge>
    <edge id="856" from="5" to="6" priority="1" spreadType="center" length="24.56">
        <lane id="856_0" index="0" disallow="rail_fast" speed="36.11" length="24.56" width="2.50" customShape="1" shape="-50.74,116.19 -56.75,124.46 -63.10,133.19"/>
        <lane id="856_1" index="1" disallow="rail_fast" speed="36.11" length="24.56" width="2.50" customShape="1" shape="-52.76,114.71 -58.78,122.99 -65.12,131.72"/>
    </edge>
    <edge id="857" from="7" to="8" priority="1" spreadType="center" length="67.63">
        <lane id="857_0" index="0" disallow="rail_fast" speed="36.11" length="67.63" width="2.50" customShape="1" shape="-25.37,-120.96 -51.07,-139.41 -79.25,-159.02"/>
    </edge>
    <edge id="858" from="9" to="10" priority="1" spreadType="center" length="67.68">
        <lane id="858_0" index="0" disallow="rail_fast" speed="36.11" length="67.68" width="2.50" customShape="1" shape="-77.82,-161.07 -49.63,-141.45 -23.87,-122.96"/>
    </edge>
    <edge id="859" from="11" to="12" priority="1" spreadType="center" length="403.02">
        <lane id="859_0" index="0" disallow="bus truck rail_fast" speed="36.11" length="403.02" width="2.50" customShape="1" shape="-85.70,-19.01 -87.10,-19.91 -91.96,-22.77 -95.64,-24.58 -98.99,-25.88 -100.49,-26.19 -102.54,-26.29 -106.64,-26.24 -108.68,-26.43 -110.17,-26.81 -111.56,-27.45 -112.41,-28.03 -116.56,-31.85 -122.37,-37.64 -127.92,-43.68 -133.20,-49.96 -138.19,-56.47 -142.89,-63.19 -147.56,-70.55 -151.90,-78.11 -155.91,-85.85 -159.80,-94.22 -163.34,-102.74 -166.73,-111.87 -169.92,-121.62 -172.90,-131.97 -175.63,-142.91 -178.23,-154.94 -180.64,-168.05 -182.92,-182.74 -185.10,-199.52 -187.31,-219.91 -191.51,-265.35 -194.04,-290.86 -196.25,-309.70 -198.53,-325.95 -200.96,-340.62 -203.50,-353.71 -206.31,-366.21 -209.26,-377.63"/>
    </edge>
    <edge id="860" from="13" to="14" priority="1" spreadType="center" length="401.14">
        <lane id="860_0" index="0" disallow="bus truck rail_fast" speed="36.11" length="401.14" width="2.49" customShape="1" shape="-206.85,-378.28 -203.90,-366.86 -201.08,-354.35 -198.53,-341.26 -196.09,-326.59 -193.82,-310.35 -191.60,-291.53 -189.07,-266.06 -184.88,-220.73 -182.69,-200.40 -180.53,-183.69 -178.28,-169.06 -175.89,-156.01 -173.33,-144.05 -170.63,-133.16 -167.69,-122.88 -164.54,-113.19 -161.20,-104.12 -157.70,-95.65 -153.85,-87.35 -149.89,-79.66 -145.61,-72.16 -140.99,-64.86 -136.34,-58.19 -131.41,-51.73 -126.19,-45.50 -120.69,-39.51 -114.94,-33.76 -110.90,-30.02 -110.26,-29.57 -109.06,-29.08 -107.74,-28.83 -105.81,-28.74 -101.69,-28.76 -99.53,-28.55 -97.89,-28.15 -94.42,-26.77 -90.67,-24.92 -85.76,-22.02 -84.35,-21.11"/>
    </edge>
    <edge id="861" from="15" to="16" priority="1" spreadType="center" length="102.96">
        <lane id="861_0" index="0" disallow="rail_fast" speed="36.11" length="102.96" width="2.50" customShape="1" shape="-20.96,-107.86 -45.45,-64.59 -69.98,-21.24"/>
    </edge>
    <edge id="862" from="17" to="18" priority="1" spreadType="center" length="102.92">
        <lane id="862_0" index="0" disallow="rail_fast" speed="36.11" length="102.92" width="2.50" customShape="1" shape="-72.97,-21.03 -47.62,-65.82 -23.04,-109.26"/>
    </edge>
    <edge id="864" from="19" to="20" priority="1" spreadType="center" length="0.23">
        <lane id="864_0" index="0" disallow="bus truck rail_fast" speed="36.11" length="0.23" width="2.50" customShape="1" shape="-69.29,141.02 -69.43,141.16"/>
        <lane id="864_1" index="1" disallow="bus truck rail_fast" speed="36.11" length="0.23" width="2.50" customShape="1" shape="-70.61,138.78 -70.74,138.92"/>
    </edge>
    <edge id="866" from="21" to="22" priority="1" spreadType="center" length="23.26">
        <lane id="866_0" index="0" disallow="bus truck rail_fast" speed="36.11" length="23.26" width="2.50" customShape="1" shape="-100.63,159.09 -88.27,141.17"/>
        <lane id="866_1" index="1" disallow="bus truck rail_fast" speed="36.11" length="23.26" width="2.50" customShape="1" shape="-98.58,160.52 -86.26,142.65"/>
    </edge>
    <edge id="867" from="23" to="24" priority="1" spreadType="center" length="0.22">
        <lane id="867_0" index="0" disallow="bus truck rail_fast" speed="36.11" length="0.22" width="2.50" customShape="1" shape="-74.61,138.53 -74.46,138.66"/>
    </edge>
    <edge id="868" from="25" to="26" priority="1" spreadType="center" length="0.27">
        <lane id="868_0" index="0" disallow="bus truck rail_fast" speed="36.11" length="0.27" width="2.50" customShape="1" shape="-76.34,140.37 -76.50,140.25"/>
    </edge>
    <edge id="869" from="27" to="28" priority="1" spreadType="center" length="18.19">
        <lane id="869_0" index="0" disallow="rail_fast" speed="36.11" length="18.19" width="2.50" customShape="1" shape="-30.39,12.65 -22.38,16.95 -15.54,20.62"/>
    </edge>
    <edge id="870" from="29" to="30" priority="1" spreadType="center" length="18.17">
        <lane id="870_0" index="0" disallow="rail_fast" speed="36.11" length="18.17" width="2.50" customShape="1" shape="-16.72,22.82 -23.56,19.15 -31.57,14.86"/>
    </edge>
    <edge id="871" from="31" to="32" priority="1" spreadType="center" length="0.26">
        <lane id="871_0" index="0" disallow="bus truck rail_fast" speed="36.11" length="0.26" width="2.50" customShape="1" shape="-38.82,112.01 -38.66,112.13"/>
    </edge>
    <edge id="872" from="33" to="34" priority="1" spreadType="center" length="0.26">
        <lane id="872_0" index="0" disallow="bus truck rail_fast" speed="36.11" length="0.26" width="2.50" customShape="1" shape="-40.19,114.11 -40.35,113.99"/>
    </edge>
    <edge id="874" from="35" to="36" priority="1" spreadType="center" length="116.37">
        <lane id="874_0" index="0" disallow="bus truck rail_fast" speed="36.11" length="116.37" width="2.50" acceleration="1" customShape="1" shape="-77.56,127.20 -66.00,112.08 -58.08,101.13 -50.79,90.33 -39.09,72.20 -14.85,33.42"/>
        <lane id="874_1" index="1" disallow="bus truck rail_fast" speed="36.11" length="116.37" width="2.50" customShape="1" shape="-75.58,128.71 -63.99,113.56 -56.03,102.56 -48.72,91.73 -36.99,73.57 -12.73,34.73"/>
    </edge>
    <edge id="876" from="37" to="38" priority="1" spreadType="center" length="98.60">
        <lane id="876_0" index="0" disallow="rail_fast" speed="36.11" length="98.60" width="2.50" customShape="1" shape="-5.19,17.46 32.82,-47.82 42.64,-64.28"/>
        <lane id="876_1" index="1" disallow="rail_fast" speed="36.11" length="98.60" width="2.50" customShape="1" shape="-3.03,18.72 34.97,-46.54 44.79,-63.01"/>
    </edge>
    <edge id="877" from="39" to="40" priority="1" spreadType="center" length="64.34">
        <lane id="877_0" index="0" disallow="rail_fast" speed="36.11" length="64.34" width="2.50" customShape="1" shape="39.89,-75.84 14.61,-93.23 -10.38,-110.42"/>
    </edge>
    <edge id="878" from="41" to="42" priority="1" spreadType="center" length="64.33">
        <lane id="878_0" index="0" disallow="rail_fast" speed="36.11" length="64.33" width="2.50" customShape="1" shape="-8.97,-112.48 16.02,-95.29 41.41,-77.83"/>
    </edge>
    <edge id="879" from="10" to="15" priority="1" spreadType="center" length="14.40">
        <lane id="879_0" index="0" disallow="bus truck rail_fast" speed="36.11" length="14.40" width="2.50" customShape="1" shape="-18.37,-115.15 -18.39,-114.95"/>
    </edge>
    <edge id="881" from="40" to="15" priority="1" spreadType="center" length="9.90">
        <lane id="881_0" index="0" disallow="bus truck rail_fast" speed="36.11" length="9.90" width="2.50" customShape="1" shape="-17.46,-112.87 -17.59,-112.71"/>
    </edge>
    <edge id="882" from="18" to="7" priority="1" spreadType="center" length="10.73">
        <lane id="882_0" index="0" disallow="bus truck rail_fast" speed="36.11" length="10.73" width="2.50" customShape="1" shape="-20.62,-115.42 -20.71,-115.60"/>
    </edge>
    <edge id="883" from="22" to="23" priority="1" spreadType="center" length="12.06">
        <lane id="883_0" index="0" disallow="bus truck rail_fast" speed="36.11" length="12.06" width="2.50" customShape="1" shape="-76.98,137.11 -76.81,137.18"/>
    </edge>
    <edge id="884" from="14" to="17" priority="1" spreadType="center" length="10.04">
        <lane id="884_0" index="0" disallow="bus truck rail_fast" speed="36.11" length="10.04" width="2.50" customShape="1" shape="-78.26,-17.92 -77.26,-17.84 -76.16,-18.05 -75.16,-18.54 -74.30,-19.24 -73.57,-20.10 -72.97,-21.03"/>
    </edge>
    <edge id="885" from="6" to="19" priority="1" spreadType="center" length="7.42">
        <lane id="885_0" index="0" disallow="bus truck rail_fast" speed="36.11" length="7.42" width="2.50" customShape="1" shape="-64.90,135.61 -67.08,138.50 -67.75,139.29"/>
        <lane id="885_1" index="1" disallow="bus truck rail_fast" speed="36.11" length="7.42" width="2.50" customShape="1" shape="-66.90,134.12 -68.98,136.87 -69.62,137.63"/>
    </edge>
    <edge id="886" from="4" to="5" priority="1" spreadType="center" length="14.34">
        <lane id="886_0" index="0" disallow="bus truck rail_fast" speed="36.11" length="14.34" width="2.50" customShape="1" shape="-45.34,108.56 -45.45,108.73"/>
        <lane id="886_1" index="1" disallow="bus truck rail_fast" speed="36.11" length="14.34" width="2.50" customShape="1" shape="-47.38,107.12 -47.50,107.28"/>
    </edge>
    <edge id="887" from="4" to="31" priority="1" spreadType="center" length="10.28">