<!-- generated on 2020-12-18 16:49:59.000007 by ipykernel_launcher.py v1_2_0+5214-53edc58fcd
-->
<edges>
	<edge from="1" function="normal" id="852" length="97.95368737813433" numLanes="2" priority="1" speed="36.11111111111111" spreadType="center" to="2">
		<lane allow="moped bicycle pedestrian custom1 trailer evehicle rail_urban ship private truck vip custom2 authority delivery rail_electric taxi tram army hov coach motorcycle passenger bus rail emergency" index="0" length="97.95368737813433" shape="51.02535,-78.4966 75.605,-120.85294999999999 100.19030000000001,-163.2181" speed="36.11111111111111" width="2.497476464353569"/>
		<lane allow="moped bicycle pedestrian custom1 trailer evehicle rail_urban ship private truck vip custom2 authority delivery rail_electric taxi tram army hov coach motorcycle passenger bus rail emergency" index="1" length="97.95368737813433" shape="53.1739,-77.2205 77.7671,-119.59790000000001 102.35225,-161.96265" speed="36.11111111111111" width="2.4999263749158698"/>
	</edge>
	<edge from="3" function="normal" id="854" length="6.354666895930636" numLanes="2" priority="1" speed="36.11111111111111" spreadType="center" to="4">
		<lane allow="moped bicycle pedestrian custom1 trailer evehicle rail_urban ship private truck vip custom2 authority delivery rail_electric taxi tram army hov coach motorcycle passenger bus rail emergency" index="0" length="6.354666895930636" shape="-37.7047,97.41525 -39.48205,100.05615 -41.253150000000005,102.6869" speed="36.11111111111111" width="2.497252099808907"/>
		<lane allow="moped bicycle pedestrian custom1 trailer evehicle rail_urban ship private truck vip custom2 authority delivery rail_electric taxi tram army hov coach motorcycle passenger bus rail emergency" index="1" length="6.354666895930636" shape="-39.77875,96.01939999999999 -41.5561,98.6603 -43.3333,101.30205" speed="36.11111111111111" width="2.499946727432402"/>
	</edge>
	<edge from="5" function="normal" id="856" length="24.557722240500112" numLanes="2" priority="1" speed="36.11111111111111" spreadType="center" to="6">
		<lane allow="moped bicycle pedestrian custom1 trailer evehicle rail_urban ship private truck vip custom2 authority delivery rail_electric taxi tram army hov coach motorcycle passenger bus rail emergency" index="0" length="24.557722240500112" shape="-49.5445,114.53635 -56.75475,124.46045000000001 -63.9796,134.40365" speed="36.11111111111111" width="2.4974844403919727"/>
		<lane allow="moped bicycle pedestrian custom1 trailer evehicle rail_urban ship private truck vip custom2 authority delivery rail_electric taxi tram army hov coach motorcycle passenger bus rail emergency" index="1" length="24.557722240500112" shape="-51.554500000000004,113.0515 -58.7772,122.99095 -65.9949,132.9244" speed="36.11111111111111" width="2.499868228527256"/>
	</edge>
	<edge from="7" function="normal" id="857" length="67.62600851040395" numLanes="1" priority="1" speed="36.11111111111111" spreadType="center" to="8">
		<lane allow="moped bicycle pedestrian custom1 trailer evehicle rail_urban ship private truck vip custom2 authority delivery rail_electric taxi tram army hov coach motorcycle passenger bus rail emergency" index="0" length="67.62600851040395" shape="-24.02065,-119.99019999999999 -51.071349999999995,-139.40935 -79.2473,-159.01645" speed="36.11111111111111" width="2.5000000499999997"/>
	</edge>
	<edge from="9" function="normal" id="858" length="67.68406386348595" numLanes="1" priority="1" speed="36.11111111111111" spreadType="center" to="10">
		<lane allow="moped bicycle pedestrian custom1 trailer evehicle rail_urban ship private truck vip custom2 authority delivery rail_electric taxi tram army hov coach motorcycle passenger bus rail emergency" index="0" length="67.68406386348595" shape="-77.81985,-161.06889999999999 -49.6276,-141.4503 -22.54625,-122.0085" speed="36.11111111111111" width="2.4990933976144274"/>
	</edge>
	<edge from="11" function="normal" id="859" length="403.01722204094494" numLanes="1" priority="1" speed="36.11111111111111" spreadType="center" to="12">
		<lane allow="moped bicycle pedestrian custom1 trailer evehicle rail_urban ship private vip custom2 authority delivery rail_electric taxi tram army hov coach motorcycle passenger rail emergency" index="0" length="403.01722204094494" shape="-82.7618,-17.1208 -87.10275,-19.912 -91.96095,-22.775 -95.64225,-24.5819 -98.9856,-25.883 -100.4919,-26.1856 -102.53880000000001,-26.2924 -106.64,-26.2421 -108.68045000000001,-26.431150000000002 -110.16964999999999,-26.8092 -111.56465,-27.450850000000003 -112.40825000000001,-28.032249999999998 -116.5572,-31.85175 -122.3688,-37.6412 -127.9194,-43.6813 -133.19600000000003,-49.96215 -138.18830000000003,-56.4713 -142.88905,-63.194 -147.56005,-70.55245 -151.89735,-78.11255 -155.905,-85.8524 -159.79805,-94.2197 -163.34404999999998,-102.73995 -166.72949999999997,-111.8742 -169.9216,-121.6189 -172.8951,-131.96705 -175.63335,-142.9094 -178.22944999999999,-154.93765000000002 -180.64260000000002,-168.0482 -182.9239,-182.7411 -185.10180000000003,-199.5204 -187.3133,-219.91015 -191.5134,-265.35005 -194.03955000000002,-290.86199999999997 -196.25225,-309.70355 -198.52550000000002,-325.95259999999996 -200.95690000000002,-340.6214 -203.49735,-353.7079 -206.31125,-366.21320000000003 -209.26069999999999,-377.6309" speed="36.11111111111111" width="2.4999313430572263"/>
	</edge>
	<edge from="13" function="normal" id="860" length="401.1409198166009" numLanes="1" priority="1" speed="36.11111111111111" spreadType="center" to="14">
		<lane allow="moped bicycle pedestrian custom1 trailer evehicle rail_urban ship private vip custom2 authority delivery rail_electric taxi tram army hov coach motorcycle passenger rail emergency" index="0" length="401.1409198166009" shape="-206.84525,-378.2754 -203.89695,-366.8648 -201.078,-354.35135 -198.5319,-341.26035 -196.0945,-326.59315 -193.81525,-310.3524 -191.5972,-291.52909999999997 -189.06844999999998,-266.05960000000005 -184.8823,-220.72715 -182.6889,-200.4049 -180.53315,-183.6899 -178.2778,-169.0601 -175.8938,-156.01170000000002 -173.33010000000002,-144.04505 -170.6268,-133.1634 -167.69145,-122.8758 -164.54035,-113.1914 -161.1981,-104.11645 -157.6972,-95.65455 -153.8524,-87.34535 -149.89409999999998,-79.66229999999999 -145.6088,-72.15854999999999 -140.9919,-64.8555 -136.3449,-58.1857 -131.40745,-51.727850000000004 -126.18684999999999,-45.49705 -120.6931,-39.505449999999996 -114.93594999999999,-33.760099999999994 -110.8985,-30.0206 -110.25855,-29.570700000000002 -109.0618,-29.0774 -107.7425,-28.8296 -105.806,-28.7391 -101.69335000000001,-28.762050000000002 -99.5273,-28.5473 -97.8934,-28.1462 -94.4201,-26.772750000000002 -90.6651,-24.915149999999997 -85.75845000000001,-22.0195 -81.43105,-19.2366" speed="36.11111111111111" width="2.486378026366868"/>
	</edge>
	<edge from="15" function="normal" id="861" length="102.95682769789143" numLanes="1" priority="1" speed="36.11111111111111" spreadType="center" to="16">
		<lane allow="moped bicycle pedestrian custom1 trailer evehicle rail_urban ship private truck vip custom2 authority delivery rail_electric taxi tram army hov coach motorcycle passenger bus rail emergency" index="0" length="102.95682769789143" shape="-20.1023,-109.37225000000001 -45.447950000000006,-64.58794999999999 -70.8135,-19.77045" speed="36.11111111111111" width="2.4980653814502065"/>
	</edge>
	<edge from="17" function="normal" id="862" length="102.92384086380851" numLanes="1" priority="1" speed="36.11111111111111" spreadType="center" to="18">
		<lane allow="moped bicycle pedestrian custom1 trailer evehicle rail_urban ship private truck vip custom2 authority delivery rail_electric taxi tram army hov coach motorcycle passenger bus rail emergency" index="0" length="102.92384086380851" shape="-72.971,-21.032 -47.62365,-65.8193 -22.27615,-110.60515" speed="36.11111111111111" width="2.4989913005050703"/>
	</edge>
	<edge from="19" function="normal" id="864" length="0.2290304634280773" numLanes="2" priority="1" speed="36.11111111111111" spreadType="center" to="20">
		<lane allow="moped bicycle pedestrian custom1 trailer evehicle rail_urban ship private vip custom2 authority delivery rail_electric taxi tram army hov coach motorcycle passenger rail emergency" index="0" length="0.2290304634280773" shape="-68.74119999999999,140.44375000000002 -68.8523,140.563 -68.965,140.68005" speed="36.11111111111111" width="2.4963030445040197"/>
		<lane allow="moped bicycle pedestrian custom1 trailer evehicle rail_urban ship private vip custom2 authority delivery rail_electric taxi tram army hov coach motorcycle passenger rail emergency" index="1" length="0.2290304634280773" shape="-70.58160000000001,138.7526 -70.67245,138.8492 -70.73725,138.92059999999998" speed="36.11111111111111" width="2.4983807976367345"/>
	</edge>
	<edge from="21" function="normal" id="866" length="23.264681667174607" numLanes="2" priority="1" speed="36.11111111111111" spreadType="center" to="22">
		<lane allow="moped bicycle pedestrian custom1 trailer evehicle rail_urban ship private vip custom2 authority delivery rail_electric taxi tram army hov coach motorcycle passenger rail emergency" index="0" length="23.264681667174607" shape="-100.62934999999999,159.08855 -88.25305,141.14425 -87.3493,139.895" speed="36.11111111111111" width="2.500043075628897"/>
		<lane allow="moped bicycle pedestrian custom1 trailer evehicle rail_urban ship private vip custom2 authority delivery rail_electric taxi tram army hov coach motorcycle passenger rail emergency" index="1" length="23.264681667174607" shape="-98.577,160.51605 -86.22835,142.61075 -85.34135,141.3837" speed="36.11111111111111" width="2.499372819328869"/>
	</edge>
	<edge from="23" function="normal" id="867" length="0.22338000022874444" numLanes="1" priority="1" speed="36.11111111111111" spreadType="center" to="24">
		<lane allow="moped bicycle pedestrian custom1 trailer evehicle rail_urban ship private vip custom2 authority delivery rail_electric taxi tram army hov coach motorcycle passenger rail emergency" index="0" length="0.22338000022874444" shape="-75.3101,138.00985 -75.2078,138.0853 -75.13185,138.14445" speed="36.11111111111111" width="2.5"/>
	</edge>
	<edge from="25" function="normal" id="868" length="0.2653049845517742" numLanes="1" priority="1" speed="36.11111111111111" spreadType="center" to="26">
		<lane allow="moped bicycle pedestrian custom1 trailer evehicle rail_urban ship private vip custom2 authority delivery rail_electric taxi tram army hov coach motorcycle passenger rail emergency" index="0" length="0.2653049845517742" shape="-76.59725,140.1675 -76.70775,140.08535 -76.80924999999999,140.008" speed="36.11111111111111" width="2.496049192223587"/>
	</edge>
	<edge from="27" function="normal" id="869" length="18.19444576586577" numLanes="1" priority="1" speed="36.11111111111111" spreadType="center" to="28">
		<lane allow="moped bicycle pedestrian custom1 trailer evehicle rail_urban ship private truck vip custom2 authority delivery rail_electric taxi tram army hov coach motorcycle passenger bus rail emergency" index="0" length="18.19444576586577" shape="-30.390050000000002,12.6524 -22.3756,16.9538 -14.359300000000001,21.2578" speed="36.11111111111111" width="2.499984935954614"/>
	</edge>
	<edge from="29" function="normal" id="870" length="18.174273375350417" numLanes="1" priority="1" speed="36.11111111111111" spreadType="center" to="30">
		<lane allow="moped bicycle pedestrian custom1 trailer evehicle rail_urban ship private truck vip custom2 authority delivery rail_electric taxi tram army hov coach motorcycle passenger bus rail emergency" index="0" length="18.174273375350417" shape="-15.556450000000002,23.4493 -23.5608,19.15495 -31.570800000000002,14.856" speed="36.11111111111111" width="2.4990776478533054"/>
	</edge>
	<edge from="31" function="normal" id="871" length="0.2582925129860637" numLanes="1" priority="1" speed="36.11111111111111" spreadType="center" to="32">
		<lane allow="moped bicycle pedestrian custom1 trailer evehicle rail_urban ship private vip custom2 authority delivery rail_electric taxi tram army hov coach motorcycle passenger rail emergency" index="0" length="0.2582925129860637" shape="-39.3793,111.58985 -39.275499999999994,111.6676 -39.173100000000005,111.74539999999999" speed="36.11111111111111" width="2.500013007966159"/>
	</edge>
	<edge from="33" function="normal" id="872" length="0.2561144975501986" numLanes="1" priority="1" speed="36.11111111111111" spreadType="center" to="34">
		<lane allow="moped bicycle pedestrian custom1 trailer evehicle rail_urban ship private vip custom2 authority delivery rail_electric taxi tram army hov coach motorcycle passenger rail emergency" index="0" length="0.2561144975501986" shape="-40.68605,113.7356 -40.78845,113.65780000000001 -40.889399999999995,113.5799" speed="36.11111111111111" width="2.4997879030029737"/>
	</edge>
	<edge from="35" function="normal" id="874" length="116.36849441913088" numLanes="2" priority="1" speed="36.11111111111111" spreadType="center" to="36">
		<lane allow="moped bicycle pedestrian custom1 trailer evehicle rail_urban ship private vip custom2 authority delivery rail_electric taxi tram army hov coach motorcycle passenger rail emergency" index="0" length="116.36849441913088" shape="-78.48845,128.4067 -66.00415,112.0797 -58.07875,101.1297 -50.7891,90.32894999999999 -39.08625,72.2045 -13.8176,31.75515" speed="36.11111111111111" width="2.4985496853174647"/>
		<lane allow="moped bicycle pedestrian custom1 trailer evehicle rail_urban ship private vip custom2 authority delivery rail_electric taxi tram army hov coach motorcycle passenger rail emergency" index="1" length="116.36849441913088" shape="-76.5042,129.92714999999998 -63.9889,113.55905 -56.031549999999996,102.56425 -48.7195,91.73165 -36.99385,73.5731 -11.68815,33.0638" speed="36.11111111111111" width="2.4994772273417545"/>
	</edge>
	<edge from="37" function="normal" id="876" length="98.60067559854467" numLanes="2" priority="1" speed="36.11111111111111" spreadType="center" to="38">
		<lane allow="moped bicycle pedestrian custom1 trailer evehicle rail_urban ship private truck vip custom2 authority delivery rail_electric taxi tram army hov coach motorcycle passenger bus rail emergency" index="0" length="98.60067559854467" shape="-6.164300000000001,19.137549999999997 32.8176,-47.821200000000005 43.6449,-65.95615000000001" speed="36.11111111111111" width="2.4978274740261788"/>
		<lane allow="moped bicycle pedestrian custom1 trailer evehicle rail_urban ship private truck vip custom2 authority delivery rail_electric taxi tram army hov coach motorcycle passenger bus rail emergency" index="1" length="98.60067559854467" shape="-4.01415,20.411299999999997 34.965599999999995,-46.54205 45.802099999999996,-64.69435" speed="36.11111111111111" width="2.500026761856761"/>
	</edge>
	<edge from="39" function="normal" id="877" length="64.34224008381051" numLanes="1" priority="1" speed="36.11111111111111" spreadType="center" to="40">
		<lane allow="moped bicycle pedestrian custom1 trailer evehicle rail_urban ship private truck vip custom2 authority delivery rail_electric taxi tram army hov coach motorcycle passenger bus rail emergency" index="0" length="64.34224008381051" shape="41.117149999999995,-74.99815000000001 14.60895,-93.22955 -11.8967,-111.45984999999999" speed="36.11111111111111" width="2.499090988739701"/>
	</edge>
	<edge from="41" function="normal" id="878" length="64.33122119958821" numLanes="1" priority="1" speed="36.11111111111111" spreadType="center" to="42">
		<lane allow="moped bicycle pedestrian custom1 trailer evehicle rail_urban ship private truck vip custom2 authority delivery rail_electric taxi tram army hov coach motorcycle passenger bus rail emergency" index="0" length="64.33122119958821" shape="-10.494,-113.52855 16.0232,-95.2911 42.5105,-77.0727" speed="36.11111111111111" width="2.4986046105776696"/>
	</edge>
	<edge from="10" function="normal" id="879" length="14.403407539141" numLanes="1" priority="1" speed="36.11111111111111" spreadType="center" to="15">
		<lane allow="moped bicycle pedestrian custom1 trailer evehicle rail_urban ship private vip custom2 authority delivery rail_electric taxi tram army hov coach motorcycle passenger rail emergency" index="0" length="14.403407539141" shape="-22.54625,-122.0085 -21.41975,-121.10650000000001 -20.40445,-120.08405 -19.54585,-118.92795000000001 -18.898449999999997,-117.64265 -18.51245,-116.25694999999999 -18.403799999999997,-114.82215 -18.55395,-113.39035 -18.91695,-111.99625 -19.4471,-110.6562 -20.1023,-109.37225000000001" speed="36.11111111111111" width="2.4980653814502065"/>
	</edge>
	<edge from="6" function="normal" id="885" length="7.419418690832826" numLanes="2" priority="1" speed="36.11111111111111" spreadType="center" to="19">
		<lane allow="moped bicycle pedestrian custom1 trailer evehicle rail_urban ship private vip custom2 authority delivery rail_electric taxi tram army hov coach motorcycle passenger rail emergency" index="0" length="7.419418690832826" shape="-63.9796,134.40365 -67.082,138.5015 -68.74119999999999,140.44375000000002" speed="36.11111111111111" width="2.500054913396901"/>
		<lane allow="moped bicycle pedestrian custom1 trailer evehicle rail_urban ship private vip custom2 authority delivery rail_electric taxi tram army hov coach motorcycle passenger rail emergency" index="1" length="7.419418690832826" shape="-65.9949,132.9244 -68.97855,136.87189999999998 -70.58160000000001,138.7526" speed="36.11111111111111" width="2.4991901488282338"/>
	</edge>
	<edge from="40" function="normal" id="881" length="9.901545684323079" numLanes="1" priority="1" speed="36.11111111111111" spreadType="center" to="15">
		<lane allow="moped bicycle pedestrian custom1 trailer evehicle rail_urban ship private vip custom2 authority delivery rail_electric taxi tram army hov coach motorcycle passenger rail emergency" index="0" length="9.901545684323079" shape="-11.8967,-111.45984999999999 -12.83335,-112.03095 -13.8383,-112.48285 -14.90695,-112.74595 -16.0056,-112.75630000000001 -17.0641,-112.46395 -18.013150000000003,-111.90915 -18.82495,-111.16515000000001 -19.5132,-110.3043 -20.1023,-109.37225000000001" speed="36.11111111111111" width="2.4980653814502065"/>
	</edge>
	<edge from="18" function="normal" id="882" length="10.729804125443724" numLanes="1" priority="1" speed="36.11111111111111" spreadType="center" to="7">
		<lane allow="moped bicycle pedestrian custom1 trailer evehicle rail_urban ship private vip custom2 authority delivery rail_electric taxi tram army hov coach motorcycle passenger rail emergency" index="0" length="10.729804125443724" shape="-22.27615,-110.60515 -21.75655,-111.62190000000001 -21.34085,-112.66265000000001 -21.0619,-113.7123 -20.945349999999998,-114.75569999999999 -21.01425,-115.77154999999999 -21.27915,-116.7444 -21.735599999999998,-117.6584 -22.3628,-118.5057 -23.132649999999998,-119.28095 -24.02065,-119.99019999999999" speed="36.11111111111111" width="2.5000000499999997"/>
	</edge>
	<edge from="22" function="normal" id="883" length="12.055385705902916" numLanes="1" priority="1" speed="36.11111111111111" spreadType="center" to="23">
		<lane allow="moped bicycle pedestrian custom1 trailer evehicle rail_urban ship private vip custom2 authority delivery rail_electric taxi tram army hov coach motorcycle passenger rail emergency" index="0" length="12.055385705902916" shape="-85.34135,141.3837 -83.81075,139.51395 -82.48905,138.27845000000002 -80.9691,137.3013 -79.83619999999999,136.89075 -78.6406,136.75240000000002 -77.449,136.92115 -76.3285,137.36385 -75.3101,138.00985" speed="36.11111111111111" width="2.499372819328869"/>
	</edge>
	<edge from="14" function="normal" id="884" length="10.040594785532328" numLanes="1" priority="1" speed="36.11111111111111" spreadType="center" to="17">
		<lane allow="moped bicycle pedestrian custom1 trailer evehicle rail_urban ship private vip custom2 authority delivery rail_electric taxi tram army hov coach motorcycle passenger rail emergency" index="0" length="10.040594785532328" shape="-81.43105,-19.2366 -80.46565,-18.6762 -79.4451,-18.2217 -78.3694,-17.922649999999997 -77.25685,-17.844250000000002 -76.16095,-18.04675 -75.15955,-18.5362 -74.2981,-19.244950000000003 -73.5749,-20.0959 -72.971,-21.032" speed="36.11111111111111" width="2.4989913005050703"/>
	</edge>
	<edge from="4" function="normal" id="886" length="14.340359120011607" numLanes="2" priority="1" speed="36.11111111111111" spreadType="center" to="5">
		<lane allow="moped bicycle pedestrian custom1 trailer evehicle rail_urban ship private vip custom2 authority delivery rail_electric taxi tram army hov coach motorcycle passenger rail emergency" index="0" length="14.340359120011607" shape="-41.253150000000005,102.6869 -48.23675,112.72710000000001 -49.5445,114.53635" speed="36.11111111111111" width="2.497252099808907"/>
		<lane allow="moped bicycle pedestrian custom1 trailer evehicle rail_urban ship private vip custom2 authority delivery rail_electric taxi tram army hov coach motorcycle passenger rail emergency" index="1" length="14.340359120011607" shape="-43.3333,101.30205 -50.265299999999996,111.26595 -51.554500000000004,113.0515" speed="36.11111111111111" width="2.499995049995096"/>
	</edge>
	<edge from="4" function="normal" id="887" length="10.281780074208662" numLanes="1" priority="1" speed="36.11111111111111" spreadType="center" to="31">
		<lane allow="moped bicycle pedestrian custom1 trailer evehicle rail_urban ship private vip custom2 authority delivery rail_electric taxi tram army hov coach motorcycle passenger rail emergency" index="0" length="10.281780074208662" shape="-41.253150000000005,102.6869 -42.1182,104.2935 -42.46155,105.4524 -42.54565,106.65715 -42.32755,107.8449 -41.837950000000006,108.9494 -40.7378,110.38865000000001 -39.3793,111.58985" speed="36.11111111111111" width="2.497252099808907"/>
	</edge>
	<edge from="38" function="normal" id="888" length="14.534368572624686" numLanes="2" priority="1" speed="36.11111111111111" spreadType="center" to="1">
		<lane allow="moped bicycle pedestrian custom1 trailer evehicle rail_urban ship private truck vip custom2 authority delivery rail_electric taxi tram army hov coach motorcycle passenger bus rail emergency" index="0" length="14.534368572624686" shape="43.6449,-65.95615000000001 47.334450000000004,-72.2262 51.02535,-78.4966" speed="36.11111111111111" width="2.497476464353569"/>
		<lane allow="moped bicycle pedestrian custom1 trailer evehicle rail_urban ship private truck vip custom2 authority delivery rail_electric taxi tram army hov coach motorcycle passenger bus rail emergency" index="1" length="14.534368572624686" shape="45.802099999999996,-64.69435 49.48875,-70.95785000000001 53.1739,-77.2205" speed="36.11111111111111" width="2.499949299485896"/>
	</edge>
	<edge from="22" function="normal" id="896" length="14.469071590566779" numLanes="2" priority="1" speed="36.11111111111111" spreadType="center" to="35">
		<lane allow="moped bicycle pedestrian custom1 trailer evehicle rail_urban ship private vip custom2 authority delivery rail_electric taxi tram army hov coach motorcycle passenger rail emergency" index="0" length="14.469071590566779" shape="-87.3493,139.895 -81.9174,132.78875 -78.48845,128.4067" speed="36.11111111111111" width="2.4999888179750034"/>
		<lane allow="moped bicycle pedestrian custom1 trailer evehicle rail_urban ship private vip custom2 authority delivery rail_electric taxi tram army hov coach motorcycle passenger rail emergency" index="1" length="14.469071590566779" shape="-85.34135,141.3837 -79.93495,134.3117 -76.5042,129.92714999999998" speed="36.11111111111111" width="2.499372819328869"/>
	</edge>
	<edge from="38" function="normal" id="890" length="10.606789077425281" numLanes="1" priority="1" speed="36.11111111111111" spreadType="center" to="39">
		<lane allow="moped bicycle pedestrian custom1 trailer evehicle rail_urban ship private vip custom2 authority delivery rail_electric taxi tram army hov coach motorcycle passenger rail emergency" index="0" length="10.606789077425281" shape="43.6449,-65.95615000000001 44.4066,-67.562 44.69195,-68.70564999999999 44.7344,-69.88255000000001 44.501149999999996,-71.03675000000001 44.0132,-72.10900000000001 42.93055,-73.50489999999999 41.59085,-74.66025 41.117149999999995,-74.99815000000001" speed="36.11111111111111" width="2.4980501456135755"/>
	</edge>
	<edge from="36" function="normal" id="892" length="14.757594519419229" numLanes="2" priority="1" speed="36.11111111111111" spreadType="center" to="37">
		<lane allow="moped bicycle pedestrian custom1 trailer evehicle rail_urban ship private vip custom2 authority delivery rail_electric taxi tram army hov coach motorcycle passenger rail emergency" index="0" length="14.757594519419229" shape="-13.8176,31.75515 -7.3165,21.106 -6.164300000000001,19.137549999999997" speed="36.11111111111111" width="2.4978274740261788"/>
		<lane allow="moped bicycle pedestrian custom1 trailer evehicle rail_urban ship private vip custom2 authority delivery rail_electric taxi tram army hov coach motorcycle passenger rail emergency" index="1" length="14.757594519419229" shape="-11.68815,33.0638 -5.1597,22.3702 -4.01415,20.411299999999997" speed="36.11111111111111" width="2.499950919518221"/>
	</edge>
	<edge from="42" function="normal" id="893" length="10.04664147596403" numLanes="1" priority="1" speed="36.11111111111111" spreadType="center" to="1">
		<lane allow="moped bicycle pedestrian custom1 trailer evehicle rail_urban ship private vip custom2 authority delivery rail_electric taxi tram army hov coach motorcycle passenger rail emergency" index="0" length="10.04664147596403" shape="42.5105,-77.0727 44.1481,-76.1328 45.32515,-75.69635 46.5638,-75.5004 47.8069,-75.6478 48.9473,-76.16390000000001 49.9067,-76.97104999999999 51.02535,-78.4966" speed="36.11111111111111" width="2.497476464353569"/>
	</edge>
	<edge from="36" function="normal" id="894" length="9.853123663400266" numLanes="1" priority="1" speed="36.11111111111111" spreadType="center" to="29">
		<lane allow="moped bicycle pedestrian custom1 trailer evehicle rail_urban ship private vip custom2 authority delivery rail_electric taxi tram army hov coach motorcycle passenger rail emergency" index="0" length="9.853123663400266" shape="-13.8176,31.75515 -12.95225,30.105800000000002 -12.5764,28.933349999999997 -12.44615,27.7108 -12.65345,26.500700000000002 -13.2113,25.4069 -14.0382,24.49625 -15.556450000000002,23.4493" speed="36.11111111111111" width="2.4985496853174647"/>
	</edge>
	<edge from="20" function="normal" id="895" length="6.6667788490704325" numLanes="1" priority="1" speed="36.11111111111111" spreadType="center" to="25">
		<lane allow="moped bicycle pedestrian custom1 trailer evehicle rail_urban ship private vip custom2 authority delivery rail_electric taxi tram army hov coach motorcycle passenger rail emergency" index="0" length="6.6667788490704325" shape="-70.73725,138.92059999999998 -72.12360000000001,140.13934999999998 -73.1867,140.71235000000001 -73.7658,140.88555 -74.36605,140.9536 -74.96834999999999,140.9067 -75.55160000000001,140.74845 -76.59725,140.1675" speed="36.11111111111111" width="2.496049192223587"/>
	</edge>
	<edge from="10" function="normal" id="897" length="14.736562797501877" numLanes="1" priority="1" speed="36.11111111111111" spreadType="center" to="41">
		<lane allow="moped bicycle pedestrian custom1 trailer evehicle rail_urban ship private truck vip custom2 authority delivery rail_electric taxi tram army hov coach motorcycle passenger bus rail emergency" index="0" length="14.736562797501877" shape="-22.54625,-122.0085 -16.509050000000002,-117.76135 -10.494,-113.52855" speed="36.11111111111111" width="2.4990933976144274"/>
	</edge>
	<edge from="34" function="normal" id="898" length="10.018002391488611" numLanes="1" priority="1" speed="36.11111111111111" spreadType="center" to="5">
		<lane allow="moped bicycle pedestrian custom1 trailer evehicle rail_urban ship private vip custom2 authority delivery rail_electric taxi tram army hov coach motorcycle passenger rail emergency" index="0" length="10.018002391488611" shape="-40.889399999999995,113.5799 -42.4725,112.56739999999999 -43.62885,112.08775 -44.85705,111.8529 -46.1021,111.9539 -47.267250000000004,112.40405000000001 -48.28615,113.12965 -49.5445,114.53635" speed="36.11111111111111" width="2.4974844403919727"/>
	</edge>
	<edge from="18" function="normal" id="900" length="14.096795417707918" numLanes="1" priority="1" speed="36.11111111111111" spreadType="center" to="41">
		<lane allow="moped bicycle pedestrian custom1 trailer evehicle rail_urban ship private vip custom2 authority delivery rail_electric taxi tram army hov coach motorcycle passenger rail emergency" index="0" length="14.096795417707918" shape="-22.27615,-110.60515 -21.48805,-111.84944999999999 -20.5397,-113.0239 -19.37325,-114.0749 -17.954050000000002,-114.88615 -16.34365,-115.3142 -14.690000000000001,-115.29745 -13.1436,-114.91575 -11.74475,-114.28980000000001 -10.494,-113.52855" speed="36.11111111111111" width="2.5001386461554524"/>
	</edge>
	<edge from="16" function="normal" id="901" length="14.111926542939937" numLanes="1" priority="1" speed="36.11111111111111" spreadType="center" to="11">
		<lane allow="moped bicycle pedestrian custom1 trailer evehicle rail_urban ship private vip custom2 authority delivery rail_electric taxi tram army hov coach motorcycle passenger rail emergency" index="0" length="14.111926542939937" shape="-70.8135,-19.77045 -71.60865,-18.5409 -72.60645,-17.36435 -73.84195,-16.3446 -75.33035,-15.606449999999999 -76.97575,-15.28335 -78.6063,-15.37995 -80.12315,-15.787849999999999 -81.5089,-16.39725 -82.7618,-17.1208" speed="36.11111111111111" width="2.500122780984965"/>
	</edge>
	<edge from="26" function="normal" id="902" length="11.496077885579815" numLanes="1" priority="1" speed="36.11111111111111" spreadType="center" to="35">