<!-- generated on 2020-12-18 16:49:59.106462 by ipykernel_launcher.py v1_2_0+5214-53edc58fcd
-->
<nodes>
	<node id="1" type="from" x="52.099625" y="-77.85855000000001"/>
	<node id="2" type="to" x="101.271275" y="-162.590375"/>
	<node id="3" type="from" x="-38.741725" y="96.71732499999999"/>
	<node id="4" type="to" x="-42.29322500000001" y="101.994475"/>
	<node id="5" type="from" x="-50.5495" y="113.793925"/>
	<node id="6" type="to" x="-64.98725" y="133.66402499999998"/>
	<node id="7" type="from" x="-24.02065" y="-119.99019999999999"/>
	<node id="8" type="to" x="-79.2473" y="-159.01645"/>
	<node id="9" type="from" x="-77.81985" y="-161.06889999999999"/>
	<node id="10" type="to" x="-22.54625" y="-122.0085"/>
	<node id="11" type="from" x="-82.7618" y="-17.1208"/>
	<node id="12" type="to" x="-209.26069999999999" y="-377.6309"/>
	<node id="13" type="from" x="-206.84525" y="-378.2754"/>
	<node id="14" type="to" x="-81.43105" y="-19.2366"/>
	<node id="15" type="from" x="-20.1023" y="-109.37225000000001"/>
	<node id="16" type="to" x="-70.8135" y="-19.77045"/>
	<node id="17" type="from" x="-72.971" y="-21.032"/>
	<node id="18" type="to" x="-22.27615" y="-110.60515"/>
	<node id="19" type="from" x="-69.6614" y="139.59817500000003"/>
	<node id="20" type="to" x="-69.851125" y="139.800325"/>
	<node id="21" type="from" x="-99.603175" y="159.8023"/>
	<node id="22" type="to" x="-86.345325" y="140.63935"/>
	<node id="23" type="from" x="-75.3101" y="138.00985"/>
	<node id="24" type="to" x="-75.13185" y="138.14445"/>
	<node id="25" type="from" x="-76.59725" y="140.1675"/>
	<node id="26" type="to" x="-76.80924999999999" y="140.008"/>
	<node id="27" type="from" x="-30.390050000000002" y="12.6524"/>
	<node id="28" type="to" x="-14.359300000000001" y="21.2578"/>
	<node id="29" type="from" x="-15.556450000000002" y="23.4493"/>
	<node id="30" type="to" x="-31.570800000000002" y="14.856"/>
	<node id="31" type="from" x="-39.3793" y="111.58985"/>
	<node id="32" type="to" x="-39.173100000000005" y="111.74539999999999"/>
	<node id="33" type="from" x="-40.68605" y="113.7356"/>
	<node id="34" type="to" x="-40.889399999999995" y="113.5799"/>
	<node id="35" type="from" x="-77.496325" y="129.166925"/>
	<node id="36" type="to" x="-12.752875" y="32.409475"/>
	<node id="37" type="from" x="-5.089225000000001" y="19.774424999999997"/>
	<node id="38" type="to" x="44.7235" y="-65.32525000000001"/>
	<node id="39" type="from" x="41.117149999999995" y="-74.99815000000001"/>
	<node id="40" type="to" x="-11.8967" y="-111.45984999999999"/>
	<node id="41" type="from" x="-10.494" y="-113.52855"/>
	<node id="42" type="to" x="42.5105" y="-77.0727"/>
</nodes>
