<routes>
	<vehicle depart="0.1" departLane="0" departPos="15.510202052817295" departSpeed="0.092065599" id="342" type="bus">
		<route edges="130902 125233"/>
	</vehicle>
	<vehicle depart="0.1" departLane="0" departPos="17.844652551298587" departSpeed="8.8129864" id="33" type="passenger">
		<route edges=":51_1 130898"/>
	</vehicle>
	<vehicle depart="0.1" departLane="0" departPos="20.677726645954817" departSpeed="8.4256175" id="36" type="passenger">
		<route edges=":51_3 130221 125969 127819"/>
	</vehicle>
	<vehicle depart="0.1" departLane="0" departPos="37.99196493208326" departSpeed="6.1241168" id="39" type="passenger">
		<route edges="126113 130898"/>
	</vehicle>
	<vehicle depart="0.1" departLane="0" departPos="21.466081752520154" departSpeed="7.7236864" id="310" type="passenger">
		<route edges="126113 130898"/>
	</vehicle>
	<vehicle depart="0.1" departLane="0" departPos="8.202704703586098" departSpeed="10.642462" id="317" type="passenger">
		<route edges="130221 125969 127819"/>
	</vehicle>
	<vehicle depart="0.1" departLane="0" departPos="17.15074742099385" departSpeed="13.014471" id="345" type="passenger">
		<route edges=":51_4 130221 125969 127800"/>
	</vehicle>
	<vehicle depart="0.1" departLane="0" departPos="10.327358640061043" departSpeed="0.080259567" id="318" type="truck">
		<route edges=":51_5 130898"/>
	</vehicle>
</routes>
