<routes>
	<vehicle depart="0.1" departLane="0" departPos="23.037159491571057" departSpeed="10.850605" id="1" type="passenger">
		<route edges="50201 50213 50197"/>
	</vehicle>
	<vehicle depart="0.1" departLane="0" departPos="99.85234279335472" departSpeed="1.8062975" id="2" type="passenger">
		<route edges="50195 50211 50199"/>
	</vehicle>
	<vehicle depart="0.1" departLane="0" departPos="147.39860632604586" departSpeed="1.4355764" id="4" type="passenger">
		<route edges="50205 50207 50197"/>
	</vehicle>
	<vehicle depart="0.1" departLane="0" departPos="155.39876791623706" departSpeed="2.8618904" id="5" type="passenger">
		<route edges="50205 50217 50199"/>
	</vehicle>
	<vehicle depart="0.1" departLane="0" departPos="12.029682439920608" departSpeed="3.9357586" id="7" type="passenger">
		<route edges="50201 50213 50197"/>
	</vehicle>
</routes>
