<routes>
	<vehicle depart="0.1" departLane="0" departPos="10.186771740698633" departSpeed="5.4919142" id="37" type="bicycle">
		<route edges=":62_2 19838"/>
	</vehicle>
	<vehicle depart="0.1" departLane="0" departPos="21.757225027104308" departSpeed="7.5437399" id="35" type="passenger">
		<route edges="19730 19838"/>
	</vehicle>
	<vehicle depart="0.1" departLane="0" departPos="32.58875539321236" departSpeed="15.029582" id="310" type="passenger">
		<route edges=":60_4 19730 19834"/>
	</vehicle>
	<vehicle depart="0.1" departLane="0" departPos="28.484189188275053" departSpeed="15.031564" id="340" type="passenger">
		<route edges="19835 19729"/>
	</vehicle>
	<vehicle depart="0.1" departLane="0" departPos="64.28249605394436" departSpeed="1.5051227" id="341" type="passenger">
		<route edges="19837 19834 19939"/>
	</vehicle>
	<vehicle depart="0.1" departLane="0" departPos="53.20260249292129" departSpeed="0.82058128" id="347" type="passenger">
		<route edges="19837 19834"/>
	</vehicle>
	<vehicle depart="0.1" departLane="0" departPos="13.816301799855234" departSpeed="0.9872666" id="327" type="motorcycle">
		<route edges=":62_1 19729"/>
	</vehicle>
</routes>
