<routes>
	<vehicle depart="0.1" departLane="0" departPos="7.664643929833154" departSpeed="7.5065184" id="37" type="bicycle">
		<route edges=":96_4 9002"/>
	</vehicle>
	<vehicle depart="0.1" departLane="0" departPos="64.70351511047258" departSpeed="6.6464979" id="34" type="passenger">
		<route edges="8999 9805"/>
	</vehicle>
	<vehicle depart="0.1" departLane="0" departPos="5.0910278794272" departSpeed="0.98271888" id="315" type="passenger">
		<route edges=":96_2 9805"/>
	</vehicle>
	<vehicle depart="0.1" departLane="0" departPos="54.97744357586641" departSpeed="7.2261572" id="318" type="passenger">
		<route edges="8999 9002"/>
	</vehicle>
	<vehicle depart="0.1" departLane="0" departPos="40.29748842524019" departSpeed="1.6431896" id="325" type="passenger">
		<route edges="9001 8998"/>
	</vehicle>
	<vehicle depart="0.1" departLane="0" departPos="30.776105831603783" departSpeed="0.57261373" id="329" type="passenger">
		<route edges="9001 8998"/>
	</vehicle>
	<vehicle depart="0.1" departLane="0" departPos="21.476886821140255" departSpeed="1.5271256" id="332" type="passenger">
		<route edges="9001 8998"/>
	</vehicle>
	<vehicle depart="0.1" departLane="0" departPos="12.362227101073618" departSpeed="0.35002865" id="334" type="passenger">
		<route edges="9001 8998"/>
	</vehicle>
	<vehicle depart="0.1" departLane="0" departPos="65.66610795082315" departSpeed="0.14883768" id="314" type="truck">
		<route edges="9001 8998"/>
	</vehicle>
	<vehicle depart="0.1" departLane="0" departPos="32.10265454042093" departSpeed="6.650641" id="321" type="truck">
		<route edges="9002"/>
	</vehicle>
</routes>
