<!-- generated on Tue Feb  9 22:08:42 2021 by Eclipse SUMO netconvert Version 1.8.0
<configuration xmlns:xsi="http://www.w3.org/2001/XMLSchema-instance" xsi:noNamespaceSchemaLocation="http://sumo.dlr.de/xsd/netconvertConfiguration.xsd">

    <input>
        <node-files value="./converted_scenarios/scenario-factory/ARG_Carcarana-12_6_I-1-1/ARG_Carcarana-12_6_I-1-1.nod.xml"/>
        <edge-files value="./converted_scenarios/scenario-factory/ARG_Carcarana-12_6_I-1-1/ARG_Carcarana-12_6_I-1-1.edg.xml"/>
        <connection-files value="./converted_scenarios/scenario-factory/ARG_Carcarana-12_6_I-1-1/ARG_Carcarana-12_6_I-1-1.con.xml"/>
        <tllogic-files value="./converted_scenarios/scenario-factory/ARG_Carcarana-12_6_I-1-1/ARG_Carcarana-12_6_I-1-1.tll.xml"/>
        <type-files value="/home/zen/commonroad-interactive-benchmarks/install/commonroad-map-tool/crmapconverter/sumo_map/templates/DEU.typ.xml"/>
    </input>

    <output>
        <output-file value="./converted_scenarios/scenario-factory/ARG_Carcarana-12_6_I-1-1/ARG_Carcarana-12_6_I-1-1.net.xml"/>
    </output>

    <processing>
        <geometry.remove.keep-edges.explicit value="true"/>
        <geometry.avoid-overlap value="true"/>
        <offset.disable-normalization value="true"/>
    </processing>

    <junctions>
        <no-turnarounds value="true"/>
        <junctions.internal-link-detail value="20"/>
    </junctions>

    <report>
        <aggregate-warnings value="5"/>
    </report>

    <random_number>
        <seed value="1234"/>
    </random_number>

</configuration>
--><net xmlns:xsi="http://www.w3.org/2001/XMLSchema-instance" version="1.6" junctionCornerDetail="5" junctionLinkDetail="20" limitTurnSpeed="5.50" xsi:noNamespaceSchemaLocation="http://sumo.dlr.de/xsd/net_file.xsd">

    <location netOffset="0.00,0.00" convBoundary="-560.59,-655.08,-75.05,-285.50" origBoundary="-560.59,-655.08,-75.05,-285.50" projParameter="!"/>

    <type id="highway.bridleway" priority="1" speed="2.78" allow="pedestrian" oneway="1" width="2.00"/>
    <type id="highway.bus_guideway" priority="1" speed="27.78" allow="bus" oneway="1"/>
    <type id="highway.cycleway" priority="1" speed="8.33" allow="bicycle" oneway="0" width="1.00"/>
    <type id="highway.footway" priority="1" speed="2.78" allow="pedestrian" oneway="1" width="2.00"/>
    <type id="highway.ford" priority="1" speed="2.78" allow="army" oneway="0"/>
    <type id="highway.living_street" priority="2" speed="2.78" disallow="tram rail_urban rail rail_electric rail_fast ship" oneway="0"/>
    <type id="highway.motorway" priority="14" speed="39.44" allow="private emergency authority army vip passenger hov taxi bus coach delivery truck trailer motorcycle evehicle custom1 custom2" oneway="1"/>
    <type id="highway.motorway_link" priority="9" speed="22.22" allow="private emergency authority army vip passenger hov taxi bus coach delivery truck trailer motorcycle evehicle custom1 custom2" oneway="1"/>
    <type id="highway.path" priority="1" speed="2.78" allow="pedestrian bicycle" oneway="0" width="2.00"/>
    <type id="highway.pedestrian" priority="1" speed="2.78" allow="pedestrian" oneway="1" width="2.00"/>
    <type id="highway.primary" priority="12" speed="27.78" disallow="pedestrian tram rail_urban rail rail_electric rail_fast ship" oneway="0"/>
    <type id="highway.primary_link" priority="7" speed="22.22" disallow="pedestrian tram rail_urban rail rail_electric rail_fast ship" oneway="0"/>
    <type id="highway.raceway" priority="15" speed="83.33" allow="vip" oneway="0"/>
    <type id="highway.residential" priority="3" speed="13.89" disallow="pedestrian tram rail_urban rail rail_electric rail_fast ship" oneway="0"/>
    <type id="highway.secondary" priority="11" speed="27.78" disallow="pedestrian tram rail_urban rail rail_electric rail_fast ship" oneway="0"/>
    <type id="highway.secondary_link" priority="6" speed="22.22" disallow="pedestrian tram rail_urban rail rail_electric rail_fast ship" oneway="0"/>
    <type id="highway.service" priority="1" speed="5.56" allow="pedestrian delivery bicycle" oneway="0"/>
    <type id="highway.stairs" priority="1" speed="1.39" allow="pedestrian" oneway="1" width="2.00"/>
    <type id="highway.step" priority="1" speed="1.39" allow="pedestrian" oneway="1" width="2.00"/>
    <type id="highway.steps" priority="1" speed="1.39" allow="pedestrian" oneway="1" width="2.00"/>
    <type id="highway.tertiary" priority="10" speed="22.22" disallow="pedestrian tram rail_urban rail rail_electric rail_fast ship" oneway="0"/>
    <type id="highway.tertiary_link" priority="5" speed="22.22" disallow="pedestrian tram rail_urban rail rail_electric rail_fast ship" oneway="0"/>
    <type id="highway.track" priority="1" speed="5.56" allow="pedestrian motorcycle moped bicycle" oneway="0"/>
    <type id="highway.trunk" priority="13" speed="27.78" disallow="pedestrian bicycle tram rail_urban rail rail_electric rail_fast ship" oneway="0"/>
    <type id="highway.trunk_link" priority="8" speed="22.22" disallow="pedestrian bicycle tram rail_urban rail rail_electric rail_fast ship" oneway="0"/>
    <type id="highway.unclassified" priority="4" speed="13.89" disallow="pedestrian tram rail_urban rail rail_electric rail_fast ship" oneway="0"/>
    <type id="highway.unsurfaced" priority="1" speed="8.33" disallow="tram rail_urban rail rail_electric rail_fast ship" oneway="0"/>
    <type id="railway.highspeed" priority="21" speed="69.44" allow="rail_fast" oneway="1"/>
    <type id="railway.light_rail" priority="19" speed="27.78" allow="rail_urban" oneway="1"/>
    <type id="railway.preserved" priority="16" speed="27.78" allow="rail" oneway="1"/>
    <type id="railway.rail" priority="20" speed="44.44" allow="rail" oneway="1"/>
    <type id="railway.subway" priority="18" speed="27.78" allow="rail_urban" oneway="1"/>
    <type id="railway.tram" priority="17" speed="13.89" allow="tram" oneway="1"/>

    <edge id=":109_0" function="internal">
        <lane id=":109_0_0" index="0" disallow="pedestrian tram rail_urban rail rail_electric rail_fast ship" speed="11.22" length="28.82" width="3.50" shape="-314.95,-459.92 -315.80,-463.14 -316.58,-465.21 -317.57,-467.20 -318.80,-469.04 -319.51,-469.89 -320.28,-470.69 -321.12,-471.41 -322.02,-472.06 -322.98,-472.62 -323.97,-473.10 -325.01,-473.50 -327.16,-474.04 -329.36,-474.28 -331.58,-474.27 -333.79,-474.06 -335.97,-473.67"/>
    </edge>
    <edge id=":109_1" function="internal">
        <lane id=":109_1_0" index="0" disallow="pedestrian tram rail_urban rail rail_electric rail_fast ship" speed="36.11" length="38.82" width="3.50" shape="-314.95,-459.92 -318.93,-478.92 -322.91,-497.92"/>
    </edge>
    <edge id=":109_2" function="internal">
        <lane id=":109_2_0" index="0" disallow="pedestrian tram rail_urban rail rail_electric rail_fast ship" speed="12.21" length="34.33" width="3.50" shape="-314.95,-459.92 -315.56,-463.84 -315.71,-466.47 -315.59,-469.11 -315.15,-471.71 -314.79,-472.98 -314.34,-474.22 -313.78,-475.42 -313.12,-476.56 -312.36,-477.64 -311.51,-478.65 -310.58,-479.59 -308.51,-481.22 -306.23,-482.56 -303.81,-483.62 -301.31,-484.45 -298.74,-485.08"/>
    </edge>
    <edge id=":109_3" function="internal">
        <lane id=":109_3_0" index="0" disallow="pedestrian tram rail_urban rail rail_electric rail_fast ship" speed="11.21" length="28.75" width="3.50" shape="-298.02,-481.66 -300.25,-481.11 -302.41,-480.40 -304.46,-479.50 -306.35,-478.39 -308.07,-477.02 -308.80,-476.29 -309.48,-475.48 -310.09,-474.61 -310.62,-473.69 -311.06,-472.73 -311.43,-471.72 -311.72,-470.72 -312.09,-468.52 -312.19,-466.30 -312.06,-464.06 -311.52,-460.64"/>
    </edge>
    <edge id=":109_4" function="internal">
        <lane id=":109_4_0" index="0" disallow="pedestrian tram rail_urban rail rail_electric rail_fast ship" speed="36.11" length="38.78" width="3.50" shape="-298.02,-481.66 -317.00,-477.66 -335.97,-473.67"/>
    </edge>
    <edge id=":109_5" function="internal">
        <lane id=":109_5_0" index="0" disallow="pedestrian tram rail_urban rail rail_electric rail_fast ship" speed="12.15" length="34.02" width="3.50" shape="-298.02,-481.66 -300.52,-481.22 -303.06,-480.97 -305.65,-480.96 -308.25,-481.25 -310.80,-481.89 -312.09,-482.38 -313.31,-482.96 -314.48,-483.66 -315.58,-484.45 -316.60,-485.33 -317.54,-486.29 -318.42,-487.34 -319.87,-489.51 -321.03,-491.84 -321.94,-494.26 -322.91,-497.92"/>
    </edge>
    <edge id=":109_6" function="internal">
        <lane id=":109_6_0" index="0" disallow="pedestrian tram rail_urban rail rail_electric rail_fast ship" speed="11.14" length="28.44" width="3.50" shape="-319.48,-498.64 -318.65,-495.47 -317.88,-493.42 -316.90,-491.46 -315.69,-489.64 -314.99,-488.81 -314.22,-488.02 -313.39,-487.31 -312.50,-486.67 -311.56,-486.12 -310.58,-485.64 -309.56,-485.25 -307.44,-484.72 -305.26,-484.48 -303.08,-484.49 -300.90,-484.70 -298.74,-485.08"/>
    </edge>
    <edge id=":109_7" function="internal">
        <lane id=":109_7_0" index="0" disallow="pedestrian tram rail_urban rail rail_electric rail_fast ship" speed="36.11" length="38.82" width="3.50" shape="-319.48,-498.64 -315.50,-479.64 -311.52,-460.64"/>
    </edge>
    <edge id=":109_8" function="internal">
        <lane id=":109_8_0" index="0" disallow="pedestrian tram rail_urban rail rail_electric rail_fast ship" speed="12.21" length="34.32" width="3.50" shape="-319.48,-498.64 -318.88,-494.73 -318.75,-492.09 -318.89,-489.46 -319.36,-486.86 -319.74,-485.60 -320.22,-484.37 -320.80,-483.18 -321.48,-482.05 -322.26,-480.98 -323.13,-479.99 -324.08,-479.07 -326.18,-477.47 -328.47,-476.16 -330.90,-475.12 -333.41,-474.30 -335.97,-473.67"/>
    </edge>
    <edge id=":109_9" function="internal">
        <lane id=":109_9_0" index="0" disallow="pedestrian tram rail_urban rail rail_electric rail_fast ship" speed="11.21" length="28.73" width="3.50" shape="-336.69,-477.10 -334.46,-477.65 -332.29,-478.35 -330.23,-479.23 -328.31,-480.32 -326.56,-481.66 -325.82,-482.39 -325.12,-483.18 -324.49,-484.04 -323.95,-484.94 -323.48,-485.89 -323.09,-486.89 -322.79,-487.89 -322.39,-490.06 -322.27,-492.28 -322.38,-494.51 -322.91,-497.92"/>
    </edge>
    <edge id=":109_10" function="internal">
        <lane id=":109_10_0" index="0" disallow="pedestrian tram rail_urban rail rail_electric rail_fast ship" speed="36.11" length="38.78" width="3.50" shape="-336.69,-477.10 -317.72,-481.09 -298.74,-485.08"/>
    </edge>
    <edge id=":109_11" function="internal">
        <lane id=":109_11_0" index="0" disallow="pedestrian tram rail_urban rail rail_electric rail_fast ship" speed="12.22" length="34.41" width="3.50" shape="-336.69,-477.10 -334.17,-477.54 -331.60,-477.79 -328.98,-477.80 -326.34,-477.51 -323.77,-476.86 -322.46,-476.37 -321.23,-475.78 -320.05,-475.08 -318.94,-474.27 -317.90,-473.38 -316.95,-472.41 -316.06,-471.35 -314.60,-469.15 -313.43,-466.79 -312.50,-464.35 -311.52,-460.64"/>
    </edge>
    <edge id=":110_0" function="internal">
        <lane id=":110_0_0" index="0" disallow="pedestrian tram rail_urban rail rail_electric rail_fast ship" speed="11.20" length="28.72" width="3.50" shape="-300.11,-389.12 -300.66,-391.35 -301.36,-393.52 -302.24,-395.58 -303.33,-397.49 -304.66,-399.24 -305.38,-399.99 -306.18,-400.69 -307.03,-401.31 -307.93,-401.86 -308.88,-402.33 -309.87,-402.71 -310.87,-403.02 -313.04,-403.42 -315.25,-403.53 -317.49,-403.42 -320.91,-402.88"/>
    </edge>
    <edge id=":110_1" function="internal">
        <lane id=":110_1_0" index="0" disallow="pedestrian tram rail_urban rail rail_electric rail_fast ship" speed="36.11" length="38.81" width="3.50" shape="-300.11,-389.12 -304.09,-408.10 -308.07,-427.11"/>
    </edge>
    <edge id=":110_2" function="internal">
        <lane id=":110_2_0" index="0" disallow="pedestrian tram rail_urban rail rail_electric rail_fast ship" speed="12.23" length="34.39" width="3.50" shape="-300.11,-389.12 -300.55,-391.65 -300.80,-394.22 -300.81,-396.83 -300.52,-399.47 -299.87,-402.04 -299.38,-403.35 -298.79,-404.58 -298.09,-405.76 -297.29,-406.87 -296.40,-407.91 -295.43,-408.86 -294.37,-409.75 -292.18,-411.21 -289.82,-412.39 -287.38,-413.32 -283.68,-414.30"/>
    </edge>
    <edge id=":110_3" function="internal">
        <lane id=":110_3_0" index="0" disallow="pedestrian tram rail_urban rail rail_electric rail_fast ship" speed="11.22" length="28.81" width="3.50" shape="-282.96,-410.88 -286.17,-410.02 -288.24,-409.24 -290.22,-408.25 -292.07,-407.02 -292.92,-406.31 -293.71,-405.53 -294.43,-404.69 -295.08,-403.79 -295.64,-402.83 -296.12,-401.84 -296.51,-400.80 -297.05,-398.65 -297.29,-396.45 -297.28,-394.23 -297.07,-392.03 -296.69,-389.84"/>
    </edge>
    <edge id=":110_4" function="internal">
        <lane id=":110_4_0" index="0" disallow="pedestrian tram rail_urban rail rail_electric rail_fast ship" speed="36.11" length="38.78" width="3.50" shape="-282.96,-410.88 -301.92,-406.88 -320.91,-402.88"/>
    </edge>
    <edge id=":110_5" function="internal">
        <lane id=":110_5_0" index="0" disallow="pedestrian tram rail_urban rail rail_electric rail_fast ship" speed="12.20" length="34.32" width="3.50" shape="-282.96,-410.88 -286.86,-410.26 -289.50,-410.11 -292.13,-410.23 -294.73,-410.67 -296.00,-411.03 -297.24,-411.49 -298.44,-412.04 -299.58,-412.70 -300.66,-413.46 -301.66,-414.31 -302.60,-415.25 -304.23,-417.32 -305.56,-419.60 -306.61,-422.01 -307.44,-424.52 -308.07,-427.11"/>
    </edge>
    <edge id=":110_6" function="internal">
        <lane id=":110_6_0" index="0" disallow="pedestrian tram rail_urban rail rail_electric rail_fast ship" speed="11.20" length="28.72" width="3.50" shape="-304.65,-427.82 -304.10,-425.57 -303.39,-423.42 -302.49,-421.37 -301.39,-419.47 -300.03,-417.75 -299.30,-417.02 -298.49,-416.34 -297.62,-415.73 -296.71,-415.20 -295.75,-414.76 -294.74,-414.39 -293.74,-414.10 -291.55,-413.73 -289.33,-413.64 -287.09,-413.76 -283.68,-414.30"/>
    </edge>
    <edge id=":110_7" function="internal">
        <lane id=":110_7_0" index="0" disallow="pedestrian tram rail_urban rail rail_electric rail_fast ship" speed="36.11" length="38.81" width="3.50" shape="-304.65,-427.82 -300.67,-408.82 -296.69,-389.84"/>
    </edge>
    <edge id=":110_8" function="internal">
        <lane id=":110_8_0" index="0" disallow="pedestrian tram rail_urban rail rail_electric rail_fast ship" speed="12.18" length="34.15" width="3.50" shape="-304.65,-427.82 -304.04,-423.91 -303.90,-421.29 -304.03,-418.67 -304.48,-416.09 -304.85,-414.83 -305.31,-413.60 -305.88,-412.42 -306.55,-411.29 -307.31,-410.22 -308.16,-409.22 -309.10,-408.30 -311.17,-406.69 -313.44,-405.38 -315.85,-404.33 -318.34,-403.51 -320.91,-402.88"/>
    </edge>
    <edge id=":110_9" function="internal">
        <lane id=":110_9_0" index="0" disallow="pedestrian tram rail_urban rail rail_electric rail_fast ship" speed="11.18" length="28.58" width="3.50" shape="-321.63,-406.31 -319.39,-406.86 -317.25,-407.56 -315.21,-408.45 -313.31,-409.54 -311.59,-410.88 -310.86,-411.60 -310.18,-412.40 -309.57,-413.26 -309.03,-414.16 -308.58,-415.11 -308.20,-416.10 -307.91,-417.10 -307.53,-419.27 -307.42,-421.47 -307.54,-423.69 -308.07,-427.11"/>
    </edge>
    <edge id=":110_10" function="internal">
        <lane id=":110_10_0" index="0" disallow="pedestrian tram rail_urban rail rail_electric rail_fast ship" speed="36.11" length="38.78" width="3.50" shape="-321.63,-406.31 -302.64,-410.31 -283.68,-414.30"/>
    </edge>
    <edge id=":110_11" function="internal">
        <lane id=":110_11_0" index="0" disallow="pedestrian tram rail_urban rail rail_electric rail_fast ship" speed="12.20" length="34.30" width="3.50" shape="-321.63,-406.31 -317.70,-406.92 -315.07,-407.06 -312.44,-406.91 -309.84,-406.44 -308.58,-406.06 -307.35,-405.58 -306.17,-405.00 -305.04,-404.32 -303.98,-403.54 -302.99,-402.67 -302.07,-401.72 -300.47,-399.63 -299.17,-397.33 -298.13,-394.91 -297.32,-392.40 -296.69,-389.84"/>
    </edge>
    <edge id=":111_0" function="internal">
        <lane id=":111_0_0" index="0" disallow="pedestrian tram rail_urban rail rail_electric rail_fast ship" speed="11.22" length="28.77" width="3.50" shape="-175.27,-415.34 -175.82,-417.60 -176.53,-419.77 -177.42,-421.83 -178.51,-423.75 -179.84,-425.51 -180.56,-426.25 -181.36,-426.96 -182.21,-427.59 -183.12,-428.14 -184.07,-428.61 -185.06,-429.00 -186.06,-429.30 -188.23,-429.71 -190.45,-429.83 -192.69,-429.72 -196.09,-429.19"/>
    </edge>
    <edge id=":111_1" function="internal">
        <lane id=":111_1_0" index="0" disallow="pedestrian tram rail_urban rail rail_electric rail_fast ship" speed="36.11" length="38.86" width="3.50" shape="-175.27,-415.34 -179.30,-434.36 -183.32,-453.36"/>
    </edge>
    <edge id=":111_2" function="internal">
        <lane id=":111_2_0" index="0" disallow="pedestrian tram rail_urban rail rail_electric rail_fast ship" speed="12.25" length="34.59" width="3.50" shape="-175.27,-415.34 -175.90,-419.30 -176.04,-421.95 -175.92,-424.61 -175.47,-427.22 -175.10,-428.50 -174.63,-429.74 -174.06,-430.94 -173.39,-432.09 -172.62,-433.17 -171.75,-434.18 -170.81,-435.11 -169.79,-435.97 -167.59,-437.45 -165.21,-438.64 -162.73,-439.58 -158.85,-440.61"/>
    </edge>
    <edge id=":111_3" function="internal">
        <lane id=":111_3_0" index="0" disallow="pedestrian tram rail_urban rail rail_electric rail_fast ship" speed="11.25" length="28.99" width="3.50" shape="-158.13,-437.18 -161.51,-436.29 -163.63,-435.49 -165.63,-434.49 -167.48,-433.24 -168.29,-432.56 -169.05,-431.80 -169.75,-430.99 -170.37,-430.13 -170.90,-429.21 -171.36,-428.24 -171.74,-427.23 -172.04,-426.22 -172.42,-424.02 -172.52,-421.78 -172.40,-419.52 -171.85,-416.07"/>
    </edge>
    <edge id=":111_4" function="internal">
        <lane id=":111_4_0" index="0" disallow="pedestrian tram rail_urban rail rail_electric rail_fast ship" speed="36.11" length="38.79" width="3.50" shape="-158.13,-437.18 -177.12,-433.18 -196.09,-429.19"/>
    </edge>
    <edge id=":111_5" function="internal">
        <lane id=":111_5_0" index="0" disallow="pedestrian tram rail_urban rail rail_electric rail_fast ship" speed="12.21" length="34.34" width="3.50" shape="-158.13,-437.18 -162.06,-436.56 -164.70,-436.41 -167.34,-436.53 -169.94,-436.97 -171.21,-437.32 -172.45,-437.78 -173.64,-438.33 -174.79,-438.99 -175.87,-439.75 -176.88,-440.60 -177.81,-441.53 -179.45,-443.60 -180.79,-445.87 -181.85,-448.29 -182.68,-450.79 -183.32,-453.36"/>
    </edge>
    <edge id=":111_6" function="internal">
        <lane id=":111_6_0" index="0" disallow="pedestrian tram rail_urban rail rail_electric rail_fast ship" speed="11.21" length="28.76" width="3.50" shape="-179.89,-454.08 -179.34,-451.85 -178.63,-449.70 -177.73,-447.65 -176.62,-445.75 -175.25,-444.04 -174.52,-443.31 -173.70,-442.63 -172.84,-442.02 -171.92,-441.50 -170.96,-441.05 -169.95,-440.68 -168.94,-440.40 -166.75,-440.03 -164.53,-439.93 -162.29,-440.06 -158.85,-440.61"/>
    </edge>
    <edge id=":111_7" function="internal">
        <lane id=":111_7_0" index="0" disallow="pedestrian tram rail_urban rail rail_electric rail_fast ship" speed="36.11" length="38.85" width="3.50" shape="-179.89,-454.08 -175.87,-435.09 -171.85,-416.07"/>
    </edge>
    <edge id=":111_8" function="internal">
        <lane id=":111_8_0" index="0" disallow="pedestrian tram rail_urban rail rail_electric rail_fast ship" speed="12.15" length="33.98" width="3.50" shape="-179.89,-454.08 -179.45,-451.59 -179.20,-449.05 -179.19,-446.47 -179.47,-443.86 -180.10,-441.32 -180.59,-440.03 -181.17,-438.81 -181.86,-437.64 -182.64,-436.54 -183.52,-435.51 -184.48,-434.57 -185.53,-433.69 -187.70,-432.24 -190.02,-431.07 -192.44,-430.16 -196.09,-429.19"/>
    </edge>
    <edge id=":111_9" function="internal">
        <lane id=":111_9_0" index="0" disallow="pedestrian tram rail_urban rail rail_electric rail_fast ship" speed="11.14" length="28.41" width="3.50" shape="-196.82,-432.61 -193.65,-433.45 -191.61,-434.22 -189.65,-435.20 -187.84,-436.42 -187.00,-437.12 -186.22,-437.89 -185.51,-438.72 -184.88,-439.61 -184.32,-440.55 -183.85,-441.53 -183.47,-442.55 -182.94,-444.67 -182.71,-446.85 -182.72,-449.03 -182.94,-451.20 -183.32,-453.36"/>
    </edge>
    <edge id=":111_10" function="internal">
        <lane id=":111_10_0" index="0" disallow="pedestrian tram rail_urban rail rail_electric rail_fast ship" speed="36.11" length="38.80" width="3.50" shape="-196.82,-432.61 -177.85,-436.61 -158.85,-440.61"/>
    </edge>
    <edge id=":111_11" function="internal">
        <lane id=":111_11_0" index="0" disallow="pedestrian tram rail_urban rail rail_electric rail_fast ship" speed="12.22" length="34.36" width="3.50" shape="-196.82,-432.61 -192.90,-433.22 -190.26,-433.35 -187.63,-433.21 -185.03,-432.73 -183.77,-432.35 -182.54,-431.86 -181.35,-431.28 -180.22,-430.59 -179.16,-429.81 -178.17,-428.94 -177.25,-427.99 -175.65,-425.89 -174.35,-423.59 -173.30,-421.17 -172.48,-418.65 -171.85,-416.07"/>
    </edge>
    <edge id=":112_0" function="internal">
        <lane id=":112_0_0" index="0" disallow="pedestrian tram rail_urban rail rail_electric rail_fast ship" speed="12.22" length="34.31" width="3.50" shape="-455.38,-356.66 -455.98,-360.58 -456.11,-363.21 -455.96,-365.85 -455.48,-368.44 -455.09,-369.70 -454.61,-370.93 -454.03,-372.12 -453.34,-373.24 -452.56,-374.31 -451.69,-375.30 -450.74,-376.21 -448.64,-377.82 -446.35,-379.12 -443.92,-380.16 -441.41,-380.98 -438.85,-381.61"/>
    </edge>
    <edge id=":112_1" function="internal">
        <lane id=":112_1_0" index="0" disallow="pedestrian tram rail_urban rail rail_electric rail_fast ship" speed="11.22" length="28.74" width="3.50" shape="-438.13,-378.19 -440.36,-377.64 -442.53,-376.94 -444.59,-376.05 -446.51,-374.96 -448.26,-373.62 -449.01,-372.90 -449.71,-372.11 -450.34,-371.25 -450.89,-370.35 -451.36,-369.40 -451.75,-368.41 -452.05,-367.41 -452.46,-365.23 -452.59,-363.02 -452.48,-360.78 -451.96,-357.37"/>
    </edge>
    <edge id=":112_2" function="internal">
        <lane id=":112_2_0" index="0" disallow="pedestrian tram rail_urban rail rail_electric rail_fast ship" speed="36.11" length="38.74" width="3.50" shape="-438.13,-378.19 -457.10,-374.19 -476.04,-370.20"/>
    </edge>
    <edge id=":112_3" function="internal">
        <lane id=":112_3_0" index="0" disallow="pedestrian tram rail_urban rail rail_electric rail_fast ship" speed="12.23" length="34.42" width="3.50" shape="-438.13,-378.19 -440.66,-377.75 -443.23,-377.49 -445.85,-377.48 -448.49,-377.78 -451.07,-378.42 -452.37,-378.92 -453.61,-379.51 -454.79,-380.21 -455.91,-381.01 -456.94,-381.90 -457.90,-382.87 -458.79,-383.93 -460.25,-386.13 -461.44,-388.48 -462.37,-390.93 -463.36,-394.61"/>
    </edge>
    <edge id=":112_4" function="internal">
        <lane id=":112_4_0" index="0" disallow="pedestrian tram rail_urban rail rail_electric rail_fast ship" speed="11.23" length="28.85" width="3.50" shape="-459.93,-395.35 -459.08,-392.15 -458.29,-390.07 -457.29,-388.08 -456.06,-386.24 -455.35,-385.39 -454.57,-384.60 -453.72,-383.87 -452.82,-383.23 -451.87,-382.66 -450.87,-382.18 -449.83,-381.79 -447.68,-381.24 -445.47,-381.00 -443.25,-381.01 -441.04,-381.23 -438.85,-381.61"/>
    </edge>
    <edge id=":112_5" function="internal">
        <lane id=":112_5_0" index="0" disallow="pedestrian tram rail_urban rail rail_electric rail_fast ship" speed="36.11" length="38.75" width="3.50" shape="-476.77,-373.62 -457.82,-377.62 -438.85,-381.61"/>
    </edge>
    <edge id=":113_0" function="internal">
        <lane id=":113_0_0" index="0" disallow="pedestrian tram rail_urban rail rail_electric rail_fast ship" speed="11.17" length="28.59" width="3.50" shape="-285.65,-320.10 -286.49,-323.28 -287.26,-325.34 -288.23,-327.32 -289.44,-329.16 -290.14,-330.01 -290.90,-330.81 -291.72,-331.54 -292.61,-332.19 -293.55,-332.76 -294.54,-333.25 -295.56,-333.65 -296.62,-333.97 -298.78,-334.37 -300.98,-334.49 -303.18,-334.38 -306.42,-333.88"/>
    </edge>
    <edge id=":113_1" function="internal">
        <lane id=":113_1_0" index="0" disallow="pedestrian tram rail_urban rail rail_electric rail_fast ship" speed="36.11" length="38.77" width="3.50" shape="-285.65,-320.10 -289.63,-339.06 -293.60,-358.05"/>
    </edge>
    <edge id=":113_2" function="internal">
        <lane id=":113_2_0" index="0" disallow="pedestrian tram rail_urban rail rail_electric rail_fast ship" speed="12.23" length="34.42" width="3.50" shape="-285.65,-320.10 -286.09,-322.61 -286.34,-325.18 -286.35,-327.80 -286.06,-330.44 -285.41,-333.02 -284.92,-334.33 -284.33,-335.56 -283.63,-336.74 -282.83,-337.86 -281.94,-338.90 -280.97,-339.85 -279.91,-340.74 -277.71,-342.21 -275.35,-343.39 -272.91,-344.32 -269.20,-345.30"/>
    </edge>
    <edge id=":113_3" function="internal">
        <lane id=":113_3_0" index="0" disallow="pedestrian tram rail_urban rail rail_electric rail_fast ship" speed="11.23" length="28.84" width="3.50" shape="-268.48,-341.88 -271.69,-341.02 -273.77,-340.24 -275.76,-339.24 -277.60,-338.01 -278.45,-337.30 -279.24,-336.52 -279.96,-335.67 -280.61,-334.77 -281.18,-333.82 -281.66,-332.82 -282.05,-331.78 -282.59,-329.63 -282.83,-327.42 -282.82,-325.20 -282.61,-322.99 -282.23,-320.82"/>
    </edge>
    <edge id=":113_4" function="internal">
        <lane id=":113_4_0" index="0" disallow="pedestrian tram rail_urban rail rail_electric rail_fast ship" speed="36.11" length="38.77" width="3.50" shape="-268.48,-341.88 -287.46,-337.88 -306.42,-333.88"/>
    </edge>
    <edge id=":113_5" function="internal">
        <lane id=":113_5_0" index="0" disallow="pedestrian tram rail_urban rail rail_electric rail_fast ship" speed="12.19" length="34.29" width="3.50" shape="-268.48,-341.88 -272.38,-341.26 -275.02,-341.11 -277.65,-341.22 -280.25,-341.66 -281.52,-342.02 -282.76,-342.47 -283.96,-343.03 -285.10,-343.68 -286.18,-344.44 -287.19,-345.29 -288.13,-346.22 -289.76,-348.29 -291.09,-350.56 -292.15,-352.98 -292.98,-355.48 -293.60,-358.05"/>
    </edge>
    <edge id=":113_6" function="internal">
        <lane id=":113_6_0" index="0" disallow="pedestrian tram rail_urban rail rail_electric rail_fast ship" speed="11.19" length="28.69" width="3.50" shape="-290.18,-358.76 -289.63,-356.54 -288.92,-354.38 -288.03,-352.34 -286.92,-350.44 -285.56,-348.72 -284.83,-348.00 -284.01,-347.32 -283.15,-346.71 -282.23,-346.19 -281.27,-345.74 -280.27,-345.38 -279.26,-345.09 -277.07,-344.73 -274.85,-344.63 -272.61,-344.76 -269.20,-345.30"/>
    </edge>
    <edge id=":113_7" function="internal">
        <lane id=":113_7_0" index="0" disallow="pedestrian tram rail_urban rail rail_electric rail_fast ship" speed="36.11" length="38.76" width="3.50" shape="-290.18,-358.76 -286.20,-339.78 -282.23,-320.82"/>
    </edge>
    <edge id=":113_8" function="internal">
        <lane id=":113_8_0" index="0" disallow="pedestrian tram rail_urban rail rail_electric rail_fast ship" speed="12.15" length="33.98" width="3.50" shape="-290.18,-358.76 -289.75,-356.27 -289.50,-353.73 -289.49,-351.14 -289.78,-348.53 -290.42,-345.99 -290.91,-344.70 -291.50,-343.48 -292.19,-342.32 -292.98,-341.22 -293.86,-340.19 -294.82,-339.25 -295.87,-338.37 -298.04,-336.93 -300.37,-335.76 -302.79,-334.85 -306.42,-333.88"/>
    </edge>
    <edge id=":113_9" function="internal">
        <lane id=":113_9_0" index="0" disallow="pedestrian tram rail_urban rail rail_electric rail_fast ship" speed="11.15" length="28.40" width="3.50" shape="-307.14,-337.30 -304.00,-338.14 -301.95,-338.91 -300.00,-339.89 -298.18,-341.10 -297.34,-341.80 -296.56,-342.57 -295.85,-343.40 -295.21,-344.29 -294.65,-345.23 -294.18,-346.21 -293.79,-347.23 -293.25,-349.35 -293.01,-351.53 -293.02,-353.71 -293.23,-355.89 -293.60,-358.05"/>
    </edge>
    <edge id=":113_10" function="internal">
        <lane id=":113_10_0" index="0" disallow="pedestrian tram rail_urban rail rail_electric rail_fast ship" speed="36.11" length="38.77" width="3.50" shape="-307.14,-337.30 -288.18,-341.30 -269.20,-345.30"/>
    </edge>
    <edge id=":113_11" function="internal">
        <lane id=":113_11_0" index="0" disallow="pedestrian tram rail_urban rail rail_electric rail_fast ship" speed="12.18" length="34.17" width="3.50" shape="-307.14,-337.30 -303.40,-337.88 -300.80,-338.01 -298.18,-337.87 -295.59,-337.40 -294.27,-337.00 -293.01,-336.51 -291.79,-335.91 -290.62,-335.20 -289.52,-334.39 -288.50,-333.49 -287.57,-332.52 -286.70,-331.45 -285.26,-329.26 -284.10,-326.92 -283.20,-324.48 -282.23,-320.82"/>
    </edge>
    <edge id=":114_0" function="internal">
        <lane id=":114_0_0" index="0" disallow="pedestrian tram rail_urban rail rail_electric rail_fast ship" speed="11.22" length="28.81" width="3.50" shape="-327.95,-521.95 -328.80,-525.17 -329.58,-527.24 -330.57,-529.23 -331.79,-531.07 -332.50,-531.93 -333.28,-532.72 -334.12,-533.44 -335.02,-534.09 -335.97,-534.66 -336.97,-535.14 -338.01,-535.53 -340.16,-536.08 -342.36,-536.32 -344.58,-536.31 -346.79,-536.10 -348.95,-535.72"/>
    </edge>
    <edge id=":114_1" function="internal">
        <lane id=":114_1_0" index="0" disallow="pedestrian tram rail_urban rail rail_electric rail_fast ship" speed="36.11" length="38.78" width="3.50" shape="-327.95,-521.95 -331.92,-540.94 -335.90,-559.91"/>
    </edge>
    <edge id=":114_2" function="internal">
        <lane id=":114_2_0" index="0" disallow="pedestrian tram rail_urban rail rail_electric rail_fast ship" speed="12.21" length="34.33" width="3.50" shape="-327.95,-521.95 -328.56,-525.87 -328.71,-528.50 -328.59,-531.14 -328.15,-533.74 -327.79,-535.02 -327.33,-536.26 -326.77,-537.45 -326.11,-538.60 -325.36,-539.68 -324.50,-540.69 -323.57,-541.62 -321.50,-543.26 -319.22,-544.59 -316.80,-545.65 -314.29,-546.48 -311.73,-547.11"/>
    </edge>
    <edge id=":114_3" function="internal">