<routes>
	<vehicle depart="0.1" departLane="0" departPos="37.18396116936941" departSpeed="1.2529309" id="341" type="bus">
		<route edges=":109_5 5969"/>
	</vehicle>
	<vehicle depart="0.1" departLane="0" departPos="98.40197572350532" departSpeed="0.15106954" id="33" type="passenger">
		<route edges="5535 5965"/>
	</vehicle>
	<vehicle depart="0.1" departLane="0" departPos="106.4239199251701" departSpeed="0.6481361" id="311" type="passenger">
		<route edges="5535 5965"/>
	</vehicle>
	<vehicle depart="0.1" departLane="0" departPos="79.77219496173196" departSpeed="0.5553756" id="315" type="passenger">
		<route edges="5535 5965"/>
	</vehicle>
	<vehicle depart="0.1" departLane="0" departPos="24.451632749319824" departSpeed="0.0" id="327" type="passenger">
		<route edges="5968 5538"/>
	</vehicle>
	<vehicle depart="0.1" departLane="0" departPos="21.806909179007132" departSpeed="6.8710456" id="332" type="passenger">
		<route edges="5969 5972"/>
	</vehicle>
	<vehicle depart="0.1" departLane="0" departPos="113.69109889742938" departSpeed="0.1738936" id="372" type="passenger">
		<route edges="5535 5965"/>
	</vehicle>
	<vehicle depart="0.1" departLane="0" departPos="25.658152468745623" departSpeed="0.42260254" id="373" type="passenger">
		<route edges=":109_2 5538 5849"/>
	</vehicle>
	<vehicle depart="0.1" departLane="0" departPos="7.4158705545028925" departSpeed="9.202674" id="334" type="motorcycle">
		<route edges="5965 5624"/>
	</vehicle>
	<vehicle depart="0.1" departLane="0" departPos="17.89159100916193" departSpeed="0.002250773" id="330" type="truck">
		<route edges="5968 5538"/>
	</vehicle>
</routes>
