<routes>
	<vehicle depart="0.1" departLane="0" departPos="2.5" departSpeed="0.84726366" id="31" type="passenger">
		<route edges=":25_5 107264"/>
	</vehicle>
	<vehicle depart="0.1" departLane="0" departPos="65.09949782979226" departSpeed="1.462648" id="34" type="passenger">
		<route edges="107265 108605"/>
	</vehicle>
	<vehicle depart="0.1" departLane="0" departPos="57.05598725215556" departSpeed="1.0471826" id="36" type="passenger">
		<route edges="107265 108605"/>
	</vehicle>
	<vehicle depart="0.1" departLane="0" departPos="40.21969821504963" departSpeed="1.1168183" id="38" type="passenger">
		<route edges="107265 108605"/>
	</vehicle>
	<vehicle depart="0.1" departLane="0" departPos="65.53120450142623" departSpeed="1.4812341" id="314" type="passenger">
		<route edges="108608 107264"/>
	</vehicle>
	<vehicle depart="0.1" departLane="0" departPos="7.637529630337542" departSpeed="0.34179354" id="316" type="passenger">
		<route edges=":25_8 108605"/>
	</vehicle>
	<vehicle depart="0.1" departLane="0" departPos="5.797917382260364" departSpeed="10.730929" id="343" type="passenger">
		<route edges=":25_2 108609"/>
	</vehicle>
	<vehicle depart="0.1" departLane="0" departPos="23.810635894720217" departSpeed="0.26314925" id="30" type="truck">
		<route edges=":25_8 108605"/>
	</vehicle>
	<vehicle depart="0.1" departLane="0" departPos="11.371208342775757" departSpeed="2.8447748" id="319" type="truck">
		<route edges=":25_9 107264"/>
	</vehicle>
</routes>
