<!-- generated on 2020-12-18 15:54:48.456285 by ipykernel_launcher.py v1_2_0+5214-53edc58fcd
-->
<nodes>
	<node id="1" type="from" x="-47.36806" y="42.37966"/>
	<node id="2" type="to" x="113.67175" y="-93.89883"/>
</nodes>
