<!-- generated on Tue Feb  9 22:10:29 2021 by Eclipse SUMO netconvert Version 1.8.0
<configuration xmlns:xsi="http://www.w3.org/2001/XMLSchema-instance" xsi:noNamespaceSchemaLocation="http://sumo.dlr.de/xsd/netconvertConfiguration.xsd">

    <input>
        <node-files value="./converted_scenarios/scenario-factory/HRV_Pula-8_3_I-1-1/HRV_Pula-8_3_I-1-1.nod.xml"/>
        <edge-files value="./converted_scenarios/scenario-factory/HRV_Pula-8_3_I-1-1/HRV_Pula-8_3_I-1-1.edg.xml"/>
        <connection-files value="./converted_scenarios/scenario-factory/HRV_Pula-8_3_I-1-1/HRV_Pula-8_3_I-1-1.con.xml"/>
        <tllogic-files value="./converted_scenarios/scenario-factory/HRV_Pula-8_3_I-1-1/HRV_Pula-8_3_I-1-1.tll.xml"/>
        <type-files value="/home/zen/commonroad-interactive-benchmarks/install/commonroad-map-tool/crmapconverter/sumo_map/templates/DEU.typ.xml"/>
    </input>

    <output>
        <output-file value="./converted_scenarios/scenario-factory/HRV_Pula-8_3_I-1-1/HRV_Pula-8_3_I-1-1.net.xml"/>
    </output>

    <processing>
        <geometry.remove.keep-edges.explicit value="true"/>
        <geometry.avoid-overlap value="true"/>
        <offset.disable-normalization value="true"/>
    </processing>

    <junctions>
        <no-turnarounds value="true"/>
        <junctions.internal-link-detail value="20"/>
    </junctions>

    <report>
        <aggregate-warnings value="5"/>
    </report>

    <random_number>
        <seed value="1234"/>
    </random_number>

</configuration>
--><net xmlns:xsi="http://www.w3.org/2001/XMLSchema-instance" version="1.6" junctionCornerDetail="5" junctionLinkDetail="20" limitTurnSpeed="5.50" xsi:noNamespaceSchemaLocation="http://sumo.dlr.de/xsd/net_file.xsd">

    <location netOffset="0.00,0.00" convBoundary="743.64,244.83,1006.86,559.37" origBoundary="742.02,244.83,1006.86,559.37" projParameter="!"/>

    <type id="highway.bridleway" priority="1" speed="2.78" allow="pedestrian" oneway="1" width="2.00"/>
    <type id="highway.bus_guideway" priority="1" speed="27.78" allow="bus" oneway="1"/>
    <type id="highway.cycleway" priority="1" speed="8.33" allow="bicycle" oneway="0" width="1.00"/>
    <type id="highway.footway" priority="1" speed="2.78" allow="pedestrian" oneway="1" width="2.00"/>
    <type id="highway.ford" priority="1" speed="2.78" allow="army" oneway="0"/>
    <type id="highway.living_street" priority="2" speed="2.78" disallow="tram rail_urban rail rail_electric rail_fast ship" oneway="0"/>
    <type id="highway.motorway" priority="14" speed="39.44" allow="private emergency authority army vip passenger hov taxi bus coach delivery truck trailer motorcycle evehicle custom1 custom2" oneway="1"/>
    <type id="highway.motorway_link" priority="9" speed="22.22" allow="private emergency authority army vip passenger hov taxi bus coach delivery truck trailer motorcycle evehicle custom1 custom2" oneway="1"/>
    <type id="highway.path" priority="1" speed="2.78" allow="pedestrian bicycle" oneway="0" width="2.00"/>
    <type id="highway.pedestrian" priority="1" speed="2.78" allow="pedestrian" oneway="1" width="2.00"/>
    <type id="highway.primary" priority="12" speed="27.78" disallow="pedestrian tram rail_urban rail rail_electric rail_fast ship" oneway="0"/>
    <type id="highway.primary_link" priority="7" speed="22.22" disallow="pedestrian tram rail_urban rail rail_electric rail_fast ship" oneway="0"/>
    <type id="highway.raceway" priority="15" speed="83.33" allow="vip" oneway="0"/>
    <type id="highway.residential" priority="3" speed="13.89" disallow="pedestrian tram rail_urban rail rail_electric rail_fast ship" oneway="0"/>
    <type id="highway.secondary" priority="11" speed="27.78" disallow="pedestrian tram rail_urban rail rail_electric rail_fast ship" oneway="0"/>
    <type id="highway.secondary_link" priority="6" speed="22.22" disallow="pedestrian tram rail_urban rail rail_electric rail_fast ship" oneway="0"/>
    <type id="highway.service" priority="1" speed="5.56" allow="pedestrian delivery bicycle" oneway="0"/>
    <type id="highway.stairs" priority="1" speed="1.39" allow="pedestrian" oneway="1" width="2.00"/>
    <type id="highway.step" priority="1" speed="1.39" allow="pedestrian" oneway="1" width="2.00"/>
    <type id="highway.steps" priority="1" speed="1.39" allow="pedestrian" oneway="1" width="2.00"/>
    <type id="highway.tertiary" priority="10" speed="22.22" disallow="pedestrian tram rail_urban rail rail_electric rail_fast ship" oneway="0"/>
    <type id="highway.tertiary_link" priority="5" speed="22.22" disallow="pedestrian tram rail_urban rail rail_electric rail_fast ship" oneway="0"/>
    <type id="highway.track" priority="1" speed="5.56" allow="pedestrian motorcycle moped bicycle" oneway="0"/>
    <type id="highway.trunk" priority="13" speed="27.78" disallow="pedestrian bicycle tram rail_urban rail rail_electric rail_fast ship" oneway="0"/>
    <type id="highway.trunk_link" priority="8" speed="22.22" disallow="pedestrian bicycle tram rail_urban rail rail_electric rail_fast ship" oneway="0"/>
    <type id="highway.unclassified" priority="4" speed="13.89" disallow="pedestrian tram rail_urban rail rail_electric rail_fast ship" oneway="0"/>
    <type id="highway.unsurfaced" priority="1" speed="8.33" disallow="tram rail_urban rail rail_electric rail_fast ship" oneway="0"/>
    <type id="railway.highspeed" priority="21" speed="69.44" allow="rail_fast" oneway="1"/>
    <type id="railway.light_rail" priority="19" speed="27.78" allow="rail_urban" oneway="1"/>
    <type id="railway.preserved" priority="16" speed="27.78" allow="rail" oneway="1"/>
    <type id="railway.rail" priority="20" speed="44.44" allow="rail" oneway="1"/>
    <type id="railway.subway" priority="18" speed="27.78" allow="rail_urban" oneway="1"/>
    <type id="railway.tram" priority="17" speed="13.89" allow="tram" oneway="1"/>

    <edge id=":33_0" function="internal">
        <lane id=":33_0_0" index="0" disallow="pedestrian tram rail_urban rail rail_electric rail_fast ship" speed="36.11" length="4.33" width="3.50" shape="915.93,313.97 915.87,313.66 915.81,313.37 915.75,313.11 915.69,312.88 915.64,312.67 915.59,312.48 915.53,312.30 915.48,312.13 915.43,311.96 915.37,311.80 915.32,311.64 915.26,311.47 915.19,311.29 915.12,311.10 915.05,310.89 914.97,310.67 914.89,310.42 914.80,310.14 914.70,309.83"/>
    </edge>
    <edge id=":35_0" function="internal">
        <lane id=":35_0_0" index="0" disallow="pedestrian tram rail_urban rail rail_electric rail_fast ship" speed="36.11" length="5.75" width="3.50" shape="794.29,323.76 799.57,321.48"/>
    </edge>
    <edge id=":35_1" function="internal">
        <lane id=":35_1_0" index="0" disallow="pedestrian tram rail_urban rail rail_electric rail_fast ship" speed="36.11" length="5.67" width="3.50" shape="795.73,326.94 800.93,324.69"/>
    </edge>
    <edge id=":4_0" function="internal">
        <lane id=":4_0_0" index="0" disallow="pedestrian tram rail_urban rail rail_electric rail_fast ship" speed="36.11" length="3.56" width="3.50" shape="824.12,331.14 825.65,334.35"/>
    </edge>
    <edge id=":4_1" function="internal">
        <lane id=":4_1_0" index="0" disallow="pedestrian tram rail_urban rail rail_electric rail_fast ship" speed="36.11" length="3.48" width="3.50" shape="820.97,332.67 822.47,335.81"/>
    </edge>
    <edge id=":58_0" function="internal">
        <lane id=":58_0_0" index="0" disallow="pedestrian tram rail_urban rail rail_electric rail_fast ship" speed="36.11" length="4.13" width="3.50" shape="918.08,308.90 919.25,312.86"/>
    </edge>
    <edge id=":61_0" function="internal">
        <lane id=":61_0_0" index="0" disallow="pedestrian tram rail_urban rail rail_electric rail_fast ship" speed="36.11" length="38.08" width="3.50" shape="898.80,504.56 880.67,510.37 862.53,516.17"/>
    </edge>
    <edge id=":61_1" function="internal">
        <lane id=":61_1_0" index="0" disallow="pedestrian tram rail_urban rail rail_electric rail_fast ship" speed="8.17" length="15.83" width="3.50" shape="882.53,500.22 883.21,500.71 884.81,501.54 886.52,502.11 888.29,502.43 890.68,502.53 893.07,502.32 896.01,501.72 897.74,501.23"/>
    </edge>
    <edge id=":61_2" function="internal">
        <lane id=":61_2_0" index="0" disallow="pedestrian tram rail_urban rail rail_electric rail_fast ship" speed="36.11" length="15.63" width="3.50" shape="878.77,501.02 882.67,516.16"/>
        <lane id=":61_2_1" index="1" disallow="pedestrian tram rail_urban rail rail_electric rail_fast ship" speed="36.11" length="15.64" width="3.50" shape="875.35,501.76 879.25,516.91"/>
    </edge>
    <edge id=":61_4" function="internal">
        <lane id=":61_4_0" index="0" disallow="pedestrian tram rail_urban rail rail_electric rail_fast ship" speed="9.60" length="19.06" width="3.50" shape="873.61,502.13 873.35,504.06 872.77,506.27 871.92,508.39 870.77,510.35 869.32,512.11 867.61,513.61 865.69,514.84 863.61,515.79 862.53,516.17"/>
    </edge>
    <edge id=":61_5" function="internal">
        <lane id=":61_5_0" index="0" disallow="pedestrian tram rail_urban rail rail_electric rail_fast ship" speed="36.11" length="38.11" width="3.50" shape="861.44,512.85 879.60,507.04 897.74,501.23"/>
    </edge>
    <edge id=":63_0" function="internal">
        <lane id=":63_0_0" index="0" disallow="pedestrian tram rail_urban rail rail_electric rail_fast ship" speed="5.29" length="4.81" width="3.50" shape="866.58,416.19 866.21,416.74 865.22,418.75 864.61,420.56"/>
    </edge>
    <edge id=":63_1" function="internal">
        <lane id=":63_1_0" index="0" disallow="pedestrian tram rail_urban rail rail_electric rail_fast ship" speed="36.11" length="14.41" width="3.50" shape="865.41,413.22 858.06,416.16 852.03,418.57"/>
    </edge>
    <edge id=":63_2" function="internal">
        <lane id=":63_2_0" index="0" disallow="pedestrian tram rail_urban rail rail_electric rail_fast ship" speed="36.11" length="11.35" width="3.50" shape="858.02,410.40 859.16,413.77 861.35,421.25"/>
        <lane id=":63_2_1" index="1" disallow="pedestrian tram rail_urban rail rail_electric rail_fast ship" speed="36.11" length="10.73" width="3.50" shape="854.78,411.72 855.81,414.79 857.92,421.98"/>
    </edge>
    <edge id=":63_4" function="internal">
        <lane id=":63_4_0" index="0" disallow="pedestrian tram rail_urban rail rail_electric rail_fast ship" speed="3.82" length="2.34" width="3.50" shape="851.58,413.02 851.33,413.79 850.66,415.17"/>
    </edge>
    <edge id=":64_0" function="internal">
        <lane id=":64_0_0" index="0" disallow="pedestrian tram rail_urban rail rail_electric rail_fast ship" speed="4.67" length="3.99" width="3.50" shape="820.20,434.61 819.98,434.92 819.18,436.49 818.59,438.24"/>
    </edge>
    <edge id=":64_1" function="internal">
        <lane id=":64_1_0" index="0" disallow="pedestrian tram rail_urban rail rail_electric rail_fast ship" speed="36.11" length="11.35" width="3.50" shape="819.06,431.80 813.91,433.86 808.52,436.02"/>
    </edge>
    <edge id=":64_2" function="internal">
        <lane id=":64_2_0" index="0" disallow="pedestrian tram rail_urban rail rail_electric rail_fast ship" speed="36.11" length="11.38" width="3.50" shape="811.59,428.73 815.81,439.30"/>
    </edge>
    <edge id=":64_3" function="internal">
        <lane id=":64_3_0" index="0" disallow="pedestrian tram rail_urban rail rail_electric rail_fast ship" speed="4.52" length="3.75" width="3.50" shape="808.87,429.84 808.81,430.13 808.23,431.78 807.43,433.28"/>
    </edge>
    <edge id=":65_0" function="internal">
        <lane id=":65_0_0" index="0" disallow="pedestrian tram rail_urban rail rail_electric rail_fast ship" speed="15.57" length="30.32" width="3.50" shape="894.18,358.55 892.78,353.69 891.46,349.87 889.89,346.14 888.52,343.44 886.94,340.84 885.11,338.43 883.72,336.95 882.20,335.63 880.52,334.50 878.72,333.61"/>
    </edge>
    <edge id=":65_1" function="internal">
        <lane id=":65_1_0" index="0" disallow="pedestrian tram rail_urban rail rail_electric rail_fast ship" speed="12.12" length="31.56" width="3.50" shape="894.18,358.55 893.63,356.07 893.27,353.54 893.14,350.95 893.32,348.32 893.85,345.74 894.28,344.43 894.82,343.18 895.46,341.98 896.20,340.85 897.03,339.78 897.97,338.77 899.96,337.06 902.16,335.62 904.48,334.46 906.87,333.52"/>
    </edge>
    <edge id=":65_2" function="internal">
        <lane id=":65_2_0" index="0" disallow="pedestrian tram rail_urban rail rail_electric rail_fast ship" speed="11.06" length="26.30" width="3.50" shape="908.05,336.81 905.97,337.63 904.02,338.61 902.18,339.81 900.53,341.24 899.79,342.05 899.12,342.92 898.52,343.84 898.01,344.80 897.58,345.81 897.24,346.85 896.81,349.00 896.67,351.18 896.78,353.37 897.09,355.54 897.56,357.66"/>
    </edge>
    <edge id=":65_3" function="internal">
        <lane id=":65_3_0" index="0" disallow="pedestrian tram rail_urban rail rail_electric rail_fast ship" speed="19.91" length="30.12" width="3.50" shape="908.05,336.82 905.87,337.46 902.58,338.04 899.24,338.24 895.90,338.09 892.59,337.67 888.22,336.76 883.94,335.52 878.72,333.61"/>
    </edge>
    <edge id=":65_4" function="internal">
        <lane id=":65_4_0" index="0" disallow="pedestrian tram rail_urban rail rail_electric rail_fast ship" speed="18.86" length="27.69" width="3.50" shape="879.92,330.33 884.92,332.16 888.91,333.32 892.95,334.19 895.99,334.59 899.03,334.74 902.03,334.58 904.99,334.07 906.87,333.52"/>
    </edge>
    <edge id=":65_5" function="internal">
        <lane id=":65_5_0" index="0" disallow="pedestrian tram rail_urban rail rail_electric rail_fast ship" speed="16.40" length="33.68" width="3.50" shape="879.92,330.33 882.13,331.39 884.10,332.68 885.88,334.18 887.48,335.84 889.56,338.51 891.35,341.35 892.88,344.31 894.61,348.34 896.06,352.47 897.56,357.66"/>
    </edge>
    <edge id=":66_0" function="internal">
        <lane id=":66_0_0" index="0" disallow="pedestrian tram rail_urban rail rail_electric rail_fast ship" speed="36.11" length="27.29" width="3.50" shape="937.80,498.33 930.59,478.36 928.72,472.60"/>
    </edge>
    <edge id=":66_1" function="internal">
        <lane id=":66_1_0" index="0" disallow="pedestrian tram rail_urban rail rail_electric rail_fast ship" speed="36.11" length="39.08" width="3.50" shape="955.41,485.86 923.26,496.81 918.39,498.39"/>
    </edge>
    <edge id=":66_2" function="internal">
        <lane id=":66_2_0" index="0" disallow="pedestrian tram rail_urban rail rail_electric rail_fast ship" speed="12.10" length="34.47" width="3.50" shape="955.41,485.86 951.57,486.97 948.97,487.45 946.33,487.67 943.68,487.56 942.37,487.36 941.08,487.06 939.82,486.65 938.61,486.12 937.44,485.48 936.34,484.75 935.31,483.91 934.35,483.00 932.66,480.96 931.25,478.71 930.09,476.33 928.72,472.60"/>
    </edge>
    <edge id=":66_3" function="internal">
        <lane id=":66_3_0" index="0" disallow="pedestrian tram rail_urban rail rail_electric rail_fast ship" speed="11.09" length="28.77" width="3.50" shape="932.06,471.56 933.25,474.82 934.24,476.83 935.42,478.71 936.83,480.41 937.59,481.12 938.41,481.79 939.29,482.38 940.22,482.88 941.18,483.30 942.19,483.63 943.23,483.87 944.26,484.03 946.49,484.12 948.71,483.93 950.92,483.52 954.27,482.55"/>
    </edge>
    <edge id=":66_4" function="internal">
        <lane id=":66_4_0" index="0" disallow="pedestrian tram rail_urban rail rail_electric rail_fast ship" speed="12.24" length="34.39" width="3.50" shape="932.06,471.56 932.74,474.04 933.23,476.57 933.50,479.17 933.48,481.81 933.12,484.43 932.78,485.78 932.34,487.07 931.78,488.32 931.12,489.52 930.36,490.66 929.50,491.72 928.57,492.71 927.55,493.63 925.44,495.18 923.16,496.48 920.79,497.54 918.39,498.39"/>
    </edge>
    <edge id=":66_5" function="internal">
        <lane id=":66_5_0" index="0" disallow="pedestrian tram rail_urban rail rail_electric rail_fast ship" speed="11.24" length="28.84" width="3.50" shape="917.32,495.06 919.41,494.32 921.44,493.41 923.37,492.31 925.15,491.00 925.97,490.25 926.73,489.44 927.42,488.58 928.04,487.65 928.58,486.68 929.02,485.67 929.38,484.62 929.65,483.54 929.95,481.34 929.96,479.13 929.73,476.92 929.30,474.74 928.72,472.60"/>
    </edge>
    <edge id=":66_6" function="internal">
        <lane id=":66_6_0" index="0" disallow="pedestrian tram rail_urban rail rail_electric rail_fast ship" speed="36.11" length="39.01" width="3.50" shape="917.32,495.06 922.18,493.48 954.27,482.55"/>
    </edge>
    <edge id=":67_0" function="internal">
        <lane id=":67_0_0" index="0" disallow="pedestrian tram rail_urban rail rail_electric rail_fast ship" speed="8.48" length="16.78" width="3.50" shape="910.69,415.61 909.45,412.28 908.13,409.63 906.85,407.64 905.32,405.83 903.99,404.65 902.51,403.66 900.90,402.92 900.71,402.86"/>
    </edge>
    <edge id=":67_1" function="internal">
        <lane id=":67_1_0" index="0" disallow="pedestrian tram rail_urban rail rail_electric rail_fast ship" speed="36.11" length="36.26" width="3.50" shape="910.69,415.61 907.01,403.72 900.36,380.85"/>
    </edge>
    <edge id=":67_2" function="internal">
        <lane id=":67_2_0" index="0" disallow="pedestrian tram rail_urban rail rail_electric rail_fast ship" speed="36.11" length="36.13" width="3.50" shape="903.73,379.91 910.36,402.70 914.02,414.54"/>
    </edge>
    <edge id=":67_3" function="internal">
        <lane id=":67_3_0" index="0" disallow="pedestrian tram rail_urban rail rail_electric rail_fast ship" speed="9.82" length="20.10" width="3.50" shape="903.73,379.91 904.36,382.67 904.63,385.49 904.54,387.75 904.15,389.99 903.42,392.14 902.38,394.15 901.05,395.99 899.51,397.65 898.87,398.18"/>
    </edge>
    <edge id=":68_0" function="internal">
        <lane id=":68_0_0" index="0" disallow="pedestrian tram rail_urban rail rail_electric rail_fast ship" speed="36.11" length="11.67" width="3.50" shape="768.26,458.32 765.92,452.65 763.92,447.49"/>
        <lane id=":68_0_1" index="1" disallow="pedestrian tram rail_urban rail rail_electric rail_fast ship" speed="36.11" length="11.55" width="3.50" shape="771.48,456.96 769.18,451.36 767.19,446.24"/>
    </edge>
    <edge id=":68_2" function="internal">
        <lane id=":68_2_0" index="0" disallow="pedestrian tram rail_urban rail rail_electric rail_fast ship" speed="4.47" length="3.65" width="3.50" shape="773.36,446.66 771.64,446.03 770.05,445.14"/>
    </edge>
    <edge id=":69_0" function="internal">
        <lane id=":69_0_0" index="0" disallow="pedestrian tram rail_urban rail rail_electric rail_fast ship" speed="4.70" length="3.96" width="3.50" shape="846.64,511.79 847.30,512.25 848.83,513.04 850.18,513.52"/>
    </edge>
    <edge id=":69_1" function="internal">
        <lane id=":69_1_0" index="0" disallow="pedestrian tram rail_urban rail rail_electric rail_fast ship" speed="5.22" length="5.54" width="3.50" shape="841.93,513.59 841.93,513.70 841.54,516.01 841.00,517.68 840.43,518.88"/>
    </edge>
    <edge id=":70_0" function="internal">
        <lane id=":70_0_0" index="0" disallow="pedestrian tram rail_urban rail rail_electric rail_fast ship" speed="36.11" length="3.00" width="3.50" shape="755.77,426.28 754.70,423.48"/>
        <lane id=":70_0_1" index="1" disallow="pedestrian tram rail_urban rail rail_electric rail_fast ship" speed="36.11" length="3.02" width="3.50" shape="759.04,425.04 757.96,422.22"/>
    </edge>
    <edge id=":72_0" function="internal">
        <lane id=":72_0_0" index="0" disallow="pedestrian tram rail_urban rail rail_electric rail_fast ship" speed="36.11" length="11.18" width="3.50" shape="779.68,350.61 775.52,340.23"/>
    </edge>
    <edge id=":72_1" function="internal">
        <lane id=":72_1_0" index="0" disallow="pedestrian tram rail_urban rail rail_electric rail_fast ship" speed="36.11" length="7.01" width="3.50" shape="769.44,335.25 775.80,332.30"/>
    </edge>
    <edge id=":72_2" function="internal">
        <lane id=":72_2_0" index="0" disallow="pedestrian tram rail_urban rail rail_electric rail_fast ship" speed="36.11" length="7.01" width="3.50" shape="770.91,338.42 777.27,335.48"/>
    </edge>

    <edge id="12174" from="68" to="70" priority="3" type="highway.residential" spreadType="center" length="22.71">
        <lane id="12174_0" index="0" disallow="pedestrian tram rail_urban rail rail_electric rail_fast ship" speed="36.11" length="22.72" width="3.50" customShape="1" shape="763.81,447.53 757.36,430.49 755.77,426.28"/>
        <lane id="12174_1" index="1" disallow="pedestrian tram rail_urban rail rail_electric rail_fast ship" speed="36.11" length="22.71" width="3.50" customShape="1" shape="767.08,446.28 760.63,429.25 759.04,425.04"/>
    </edge>
    <edge id="12221" from="33" to="34" priority="3" type="highway.residential" spreadType="center" length="67.84">
        <lane id="12221_0" index="0" disallow="pedestrian tram rail_urban rail rail_electric rail_fast ship" speed="36.11" length="67.84" width="3.50" customShape="1" shape="914.70,309.83 911.99,301.17 906.43,284.18 903.49,276.01 896.66,258.94 893.89,251.25 892.26,245.84"/>
    </edge>
    <edge id="12222" from="59" to="58" priority="3" type="highway.residential" spreadType="center" length="67.93">
        <lane id="12222_0" index="0" disallow="pedestrian tram rail_urban rail rail_electric rail_fast ship" speed="36.11" length="67.93" width="3.50" customShape="1" shape="895.59,244.83 897.47,250.90 900.22,258.42 906.96,275.29 909.86,283.42 915.37,300.24 918.08,308.90"/>
    </edge>
    <edge id="12225" from="58" to="65" priority="3" type="highway.residential" spreadType="center" length="29.81" shape="918.70,310.87 895.60,342.84">
        <lane id="12225_0" index="0" disallow="pedestrian tram rail_urban rail rail_electric rail_fast ship" speed="36.11" length="29.81" width="3.50" customShape="1" shape="919.25,312.86 919.37,313.29 920.09,317.00 920.33,319.59 920.29,322.21 919.91,324.80 919.55,326.14 919.09,327.42 918.51,328.66 917.81,329.84 917.01,330.95 916.11,331.98 915.10,332.93 912.98,334.51 910.66,335.77 908.29,336.73 908.13,336.79 908.01,336.83"/>
    </edge>
    <edge id="12227" from="30" to="65" priority="3" type="highway.residential" spreadType="center" length="69.88" shape="823.95,290.52 895.26,340.34">
        <lane id="12227_0" index="0" disallow="pedestrian tram rail_urban rail rail_electric rail_fast ship" speed="36.11" length="69.88" width="3.50" customShape="1" shape="823.95,290.52 827.89,295.04 834.37,301.99 836.58,304.01 845.12,311.71 850.02,315.97 853.99,319.01 857.76,321.46 861.29,323.34 865.89,325.30 873.91,328.12 879.92,330.33"/>
    </edge>
    <edge id="12228" from="65" to="17" priority="3" type="highway.residential" spreadType="center" length="70.00" shape="893.26,343.21 822.39,294.06">
        <lane id="12228_0" index="0" disallow="pedestrian tram rail_urban rail rail_electric rail_fast ship" speed="36.11" length="70.00" width="3.50" customShape="1" shape="878.72,333.61 872.60,331.38 864.47,328.51 859.72,326.47 856.02,324.50 852.09,321.95 847.98,318.83 842.97,314.48 834.34,306.70 832.04,304.61 825.42,297.54 822.39,294.06"/>
    </edge>
    <edge id="12371" from="4" to="63" priority="3" type="highway.residential" spreadType="center" length="82.52">
        <lane id="12371_0" index="0" disallow="pedestrian tram rail_urban rail rail_electric rail_fast ship" speed="36.11" length="82.68" width="3.50" customShape="1" shape="825.65,334.35 838.42,362.51 846.43,380.97 858.51,410.21"/>
        <lane id="12371_1" index="1" disallow="pedestrian tram rail_urban rail rail_electric rail_fast ship" speed="36.11" length="82.52" width="3.50" customShape="1" shape="822.47,335.81 835.21,363.90 843.20,382.31 855.27,411.52"/>
    </edge>
    <edge id="12496" from="54" to="66" priority="3" type="highway.residential" spreadType="center" length="63.66">
        <lane id="12496_0" index="0" disallow="pedestrian tram rail_urban rail rail_electric rail_fast ship" speed="36.11" length="63.66" width="3.50" customShape="1" shape="955.88,559.37 947.67,530.67 938.15,498.23"/>
    </edge>
    <edge id="12627" from="66" to="48" priority="3" type="highway.residential" spreadType="center" length="54.26" shape="934.81,486.17 1005.75,465.40">
        <lane id="12627_0" index="0" disallow="pedestrian tram rail_urban rail rail_electric rail_fast ship" speed="36.11" length="54.26" width="3.50" customShape="1" shape="954.27,482.55 959.48,480.76 1005.75,465.40"/>
    </edge>
    <edge id="12628" from="53" to="66" priority="3" type="highway.residential" spreadType="center" length="54.25" shape="1006.86,468.72 935.80,489.52">
        <lane id="12628_0" index="0" disallow="pedestrian tram rail_urban rail rail_electric rail_fast ship" speed="36.11" length="54.25" width="3.50" customShape="1" shape="1006.86,468.72 960.61,484.07 955.39,485.86"/>
    </edge>
    <edge id="12630" from="61" to="66" priority="3" type="highway.residential" spreadType="center" length="20.55" shape="878.49,503.08 934.89,486.14">
        <lane id="12630_0" index="0" disallow="pedestrian tram rail_urban rail rail_electric rail_fast ship" speed="36.11" length="20.55" width="3.50" customShape="1" shape="897.74,501.23 907.53,498.14 917.34,495.05"/>
    </edge>
    <edge id="12631" from="66" to="61" priority="3" type="highway.residential" spreadType="center" length="20.55" shape="935.90,489.49 879.49,506.43">
        <lane id="12631_0" index="0" disallow="pedestrian tram rail_urban rail rail_electric rail_fast ship" speed="36.11" length="20.55" width="3.50" customShape="1" shape="918.39,498.39 908.58,501.48 898.79,504.57"/>
    </edge>
    <edge id="12633" from="72" to="64" priority="3" type="highway.residential" spreadType="center" length="95.57">
        <lane id="12633_0" index="0" disallow="pedestrian tram rail_urban rail rail_electric rail_fast ship" speed="36.11" length="95.57" width="3.50" customShape="1" shape="775.52,340.23 793.90,385.21 811.67,428.70"/>
    </edge>
    <edge id="12635" from="64" to="69" priority="3" type="highway.residential" spreadType="center" length="78.71">
        <lane id="12635_0" index="0" disallow="pedestrian tram rail_urban rail rail_electric rail_fast ship" speed="36.11" length="78.71" width="3.50" customShape="1" shape="815.86,439.29 829.85,475.95 843.92,512.83"/>
    </edge>
    <edge id="12709" from="67" to="63" priority="3" type="highway.residential" spreadType="center" length="36.64">
        <lane id="12709_0" index="0" disallow="pedestrian tram rail_urban rail rail_electric rail_fast ship" speed="36.11" length="36.64" width="3.50" customShape="1" shape="899.48,399.74 882.47,406.44 865.39,413.17"/>
    </edge>
    <edge id="12711" from="63" to="64" priority="3" type="highway.residential" spreadType="center" length="35.52">
        <lane id="12711_0" index="0" disallow="pedestrian tram rail_urban rail rail_electric rail_fast ship" speed="36.11" length="35.52" width="3.50" customShape="1" shape="852.01,418.52 835.06,425.37 819.08,431.84"/>
    </edge>
    <edge id="12713" from="64" to="68" priority="3" type="highway.residential" spreadType="center" length="36.61">
        <lane id="12713_0" index="0" disallow="pedestrian tram rail_urban rail rail_electric rail_fast ship" speed="36.11" length="36.61" width="3.50" customShape="1" shape="808.53,436.06 791.47,442.82 774.50,449.55"/>
    </edge>
    <edge id="12777" from="69" to="61" priority="3" type="highway.residential" spreadType="center" length="10.94" shape="843.55,514.04 878.55,503.07">
        <lane id="12777_0" index="0" disallow="pedestrian tram rail_urban rail rail_electric rail_fast ship" speed="36.11" length="10.94" width="3.50" customShape="1" shape="851.06,516.23 861.33,512.88 861.46,512.84"/>
    </edge>
    <edge id="12778" from="61" to="42" priority="3" type="highway.residential" spreadType="center" length="5.25" shape="879.90,506.25 857.54,517.80">
        <lane id="12778_0" index="0" disallow="pedestrian tram rail_urban rail rail_electric rail_fast ship" speed="36.11" length="5.25" width="3.50" customShape="1" shape="862.53,516.17 862.42,516.21 862.30,516.25 857.54,517.80"/>
    </edge>
    <edge id="12780" from="55" to="56" priority="3" type="highway.residential" spreadType="center" length="9.03">
        <lane id="12780_0" index="0" disallow="pedestrian tram rail_urban rail rail_electric rail_fast ship" speed="36.11" length="9.03" width="3.50" customShape="1" shape="819.86,526.45 824.14,525.04 828.44,523.63"/>
    </edge>
    <edge id="12781" from="69" to="52" priority="3" type="highway.residential" spreadType="center" length="21.93">
        <lane id="12781_0" index="0" disallow="pedestrian tram rail_urban rail rail_electric rail_fast ship" speed="36.11" length="21.93" width="3.50" customShape="1" shape="841.76,522.93 825.23,528.37 820.93,529.78"/>
    </edge>
    <edge id="12799" from="57" to="68" priority="3" type="highway.residential" spreadType="center" length="56.74">
        <lane id="12799_0" index="0" disallow="pedestrian tram rail_urban rail rail_electric rail_fast ship" speed="36.11" length="56.74" width="3.50" customShape="1" shape="790.24,510.63 781.67,490.35 768.15,458.37"/>
        <lane id="12799_1" index="1" disallow="pedestrian tram rail_urban rail rail_electric rail_fast ship" speed="36.11" length="56.74" width="3.50" customShape="1" shape="793.47,509.27 784.89,488.98 771.37,457.01"/>
    </edge>
    <edge id="12930" from="63" to="61" priority="3" type="highway.residential" spreadType="center" length="81.65">
        <lane id="12930_0" index="0" disallow="pedestrian tram rail_urban rail rail_electric rail_fast ship" speed="36.11" length="81.65" width="3.50" customShape="1" shape="861.78,421.16 870.40,461.68 878.77,501.02"/>
        <lane id="12930_1" index="1" disallow="pedestrian tram rail_urban rail rail_electric rail_fast ship" speed="36.11" length="81.66" width="3.50" customShape="1" shape="858.36,421.89 866.98,462.41 875.35,501.76"/>
    </edge>
    <edge id="13006" from="72" to="35" priority="3" type="highway.residential" spreadType="center" length="20.34">