<routes>
	<vehicle depart="0.1" departLane="0" departPos="17.67328322045998" departSpeed="8.1313402" id="34" type="passenger">
		<route edges=":50_1 1502 1609"/>
	</vehicle>
	<vehicle depart="0.1" departLane="0" departPos="41.897095647122185" departSpeed="0.0" id="35" type="passenger">
		<route edges="1901 1486"/>
	</vehicle>
	<vehicle depart="0.1" departLane="0" departPos="5.334651149628499" departSpeed="6.2243904" id="310" type="passenger">
		<route edges="1489 1900"/>
	</vehicle>
	<vehicle depart="0.1" departLane="0" departPos="34.39373474404651" departSpeed="0.0028749311" id="327" type="passenger">
		<route edges="1901 1486"/>
	</vehicle>
	<vehicle depart="0.1" departLane="0" departPos="2.5" departSpeed="7.3044209" id="336" type="passenger">
		<route edges=":50_1 1502 1609"/>
	</vehicle>
	<vehicle depart="0.1" departLane="0" departPos="52.33489974062072" departSpeed="1.4089098" id="321" type="motorcycle">
		<route edges="1492 1502"/>
	</vehicle>
</routes>
