<routes>
	<vehicle depart="0.1" departLane="0" departPos="22.167960385585438" departSpeed="0.49280109" id="37" type="passenger">
		<route edges=":55_1 66667"/>
	</vehicle>
	<vehicle depart="0.1" departLane="0" departPos="32.52075854990046" departSpeed="0.0" id="38" type="passenger">
		<route edges="66455 66458"/>
	</vehicle>
	<vehicle depart="0.1" departLane="0" departPos="25.018520733069323" departSpeed="0.0" id="313" type="passenger">
		<route edges="66455 66458"/>
	</vehicle>
	<vehicle depart="0.1" departLane="0" departPos="17.516268785574333" departSpeed="0.0" id="316" type="passenger">
		<route edges="66455 66458"/>
	</vehicle>
	<vehicle depart="0.1" departLane="0" departPos="29.22392838858628" departSpeed="0.72667667" id="317" type="passenger">
		<route edges=":55_1 66667"/>
	</vehicle>
	<vehicle depart="0.1" departLane="0" departPos="26.718385261463737" departSpeed="11.056943" id="321" type="passenger">
		<route edges=":52_4 66507 66667"/>
	</vehicle>
	<vehicle depart="0.1" departLane="0" departPos="22.896928705578375" departSpeed="2.9152985" id="326" type="passenger">
		<route edges=":51_3 66668 66510"/>
	</vehicle>
	<vehicle depart="0.1" departLane="0" departPos="6.683168800915075" departSpeed="1.4511303" id="330" type="passenger">
		<route edges="66175 66664"/>
	</vehicle>
	<vehicle depart="0.1" departLane="0" departPos="45.20993976408218" departSpeed="1.5234242" id="347" type="passenger">
		<route edges="66173 66176"/>
	</vehicle>
	<vehicle depart="0.1" departLane="0" departPos="1.25" departSpeed="4.6847111" id="35" type="motorcycle">
		<route edges=":51_11 66668"/>
	</vehicle>
</routes>
