<!-- generated on Tue Feb  9 22:06:00 2021 by Eclipse SUMO netconvert Version 1.8.0
<configuration xmlns:xsi="http://www.w3.org/2001/XMLSchema-instance" xsi:noNamespaceSchemaLocation="http://sumo.dlr.de/xsd/netconvertConfiguration.xsd">

    <input>
        <node-files value="./converted_scenarios/scenario-factory/DEU_Guetersloh-28_6_I-1-1/DEU_Guetersloh-28_6_I-1-1.nod.xml"/>
        <edge-files value="./converted_scenarios/scenario-factory/DEU_Guetersloh-28_6_I-1-1/DEU_Guetersloh-28_6_I-1-1.edg.xml"/>
        <connection-files value="./converted_scenarios/scenario-factory/DEU_Guetersloh-28_6_I-1-1/DEU_Guetersloh-28_6_I-1-1.con.xml"/>
        <tllogic-files value="./converted_scenarios/scenario-factory/DEU_Guetersloh-28_6_I-1-1/DEU_Guetersloh-28_6_I-1-1.tll.xml"/>
        <type-files value="/home/zen/commonroad-interactive-benchmarks/install/commonroad-map-tool/crmapconverter/sumo_map/templates/DEU.typ.xml"/>
    </input>

    <output>
        <output-file value="./converted_scenarios/scenario-factory/DEU_Guetersloh-28_6_I-1-1/DEU_Guetersloh-28_6_I-1-1.net.xml"/>
    </output>

    <processing>
        <geometry.remove.keep-edges.explicit value="true"/>
        <geometry.avoid-overlap value="true"/>
        <offset.disable-normalization value="true"/>
    </processing>

    <junctions>
        <no-turnarounds value="true"/>
        <junctions.internal-link-detail value="20"/>
    </junctions>

    <report>
        <aggregate-warnings value="5"/>
    </report>

    <random_number>
        <seed value="1234"/>
    </random_number>

</configuration>
--><net xmlns:xsi="http://www.w3.org/2001/XMLSchema-instance" version="1.6" junctionCornerDetail="5" junctionLinkDetail="20" limitTurnSpeed="5.50" xsi:noNamespaceSchemaLocation="http://sumo.dlr.de/xsd/net_file.xsd">

    <location netOffset="0.00,0.00" convBoundary="731.03,428.53,862.67,719.97" origBoundary="731.03,428.53,862.67,719.97" projParameter="!"/>

    <type id="highway.bridleway" priority="1" speed="2.78" allow="pedestrian" oneway="1" width="2.00"/>
    <type id="highway.bus_guideway" priority="1" speed="27.78" allow="bus" oneway="1"/>
    <type id="highway.cycleway" priority="1" speed="8.33" allow="bicycle" oneway="0" width="1.00"/>
    <type id="highway.footway" priority="1" speed="2.78" allow="pedestrian" oneway="1" width="2.00"/>
    <type id="highway.ford" priority="1" speed="2.78" allow="army" oneway="0"/>
    <type id="highway.living_street" priority="2" speed="2.78" disallow="tram rail_urban rail rail_electric rail_fast ship" oneway="0"/>
    <type id="highway.motorway" priority="14" speed="39.44" allow="private emergency authority army vip passenger hov taxi bus coach delivery truck trailer motorcycle evehicle custom1 custom2" oneway="1"/>
    <type id="highway.motorway_link" priority="9" speed="22.22" allow="private emergency authority army vip passenger hov taxi bus coach delivery truck trailer motorcycle evehicle custom1 custom2" oneway="1"/>
    <type id="highway.path" priority="1" speed="2.78" allow="pedestrian bicycle" oneway="0" width="2.00"/>
    <type id="highway.pedestrian" priority="1" speed="2.78" allow="pedestrian" oneway="1" width="2.00"/>
    <type id="highway.primary" priority="12" speed="27.78" disallow="pedestrian tram rail_urban rail rail_electric rail_fast ship" oneway="0"/>
    <type id="highway.primary_link" priority="7" speed="22.22" disallow="pedestrian tram rail_urban rail rail_electric rail_fast ship" oneway="0"/>
    <type id="highway.raceway" priority="15" speed="83.33" allow="vip" oneway="0"/>
    <type id="highway.residential" priority="3" speed="13.89" disallow="pedestrian tram rail_urban rail rail_electric rail_fast ship" oneway="0"/>
    <type id="highway.secondary" priority="11" speed="27.78" disallow="pedestrian tram rail_urban rail rail_electric rail_fast ship" oneway="0"/>
    <type id="highway.secondary_link" priority="6" speed="22.22" disallow="pedestrian tram rail_urban rail rail_electric rail_fast ship" oneway="0"/>
    <type id="highway.service" priority="1" speed="5.56" allow="pedestrian delivery bicycle" oneway="0"/>
    <type id="highway.stairs" priority="1" speed="1.39" allow="pedestrian" oneway="1" width="2.00"/>
    <type id="highway.step" priority="1" speed="1.39" allow="pedestrian" oneway="1" width="2.00"/>
    <type id="highway.steps" priority="1" speed="1.39" allow="pedestrian" oneway="1" width="2.00"/>
    <type id="highway.tertiary" priority="10" speed="22.22" disallow="pedestrian tram rail_urban rail rail_electric rail_fast ship" oneway="0"/>
    <type id="highway.tertiary_link" priority="5" speed="22.22" disallow="pedestrian tram rail_urban rail rail_electric rail_fast ship" oneway="0"/>
    <type id="highway.track" priority="1" speed="5.56" allow="pedestrian motorcycle moped bicycle" oneway="0"/>
    <type id="highway.trunk" priority="13" speed="27.78" disallow="pedestrian bicycle tram rail_urban rail rail_electric rail_fast ship" oneway="0"/>
    <type id="highway.trunk_link" priority="8" speed="22.22" disallow="pedestrian bicycle tram rail_urban rail rail_electric rail_fast ship" oneway="0"/>
    <type id="highway.unclassified" priority="4" speed="13.89" disallow="pedestrian tram rail_urban rail rail_electric rail_fast ship" oneway="0"/>
    <type id="highway.unsurfaced" priority="1" speed="8.33" disallow="tram rail_urban rail rail_electric rail_fast ship" oneway="0"/>
    <type id="railway.highspeed" priority="21" speed="69.44" allow="rail_fast" oneway="1"/>
    <type id="railway.light_rail" priority="19" speed="27.78" allow="rail_urban" oneway="1"/>
    <type id="railway.preserved" priority="16" speed="27.78" allow="rail" oneway="1"/>
    <type id="railway.rail" priority="20" speed="44.44" allow="rail" oneway="1"/>
    <type id="railway.subway" priority="18" speed="27.78" allow="rail_urban" oneway="1"/>
    <type id="railway.tram" priority="17" speed="13.89" allow="tram" oneway="1"/>

    <edge id=":17_0" function="internal">
        <lane id=":17_0_0" index="0" disallow="pedestrian tram rail_urban rail rail_electric rail_fast ship" speed="36.11" length="3.00" width="3.50" shape="829.47,671.35 831.99,672.97"/>
    </edge>
    <edge id=":26_0" function="internal">
        <lane id=":26_0_0" index="0" disallow="pedestrian tram rail_urban rail rail_electric rail_fast ship" speed="36.11" length="2.99" width="3.50" shape="830.09,675.92 827.58,674.29"/>
    </edge>
    <edge id=":31_0" function="internal">
        <lane id=":31_0_0" index="0" disallow="pedestrian tram rail_urban rail rail_electric rail_fast ship" speed="36.11" length="39.46" width="3.50" shape="822.08,495.94 818.69,503.62 811.52,518.57 805.08,531.54"/>
    </edge>
    <edge id=":31_1" function="internal">
        <lane id=":31_1_0" index="0" disallow="pedestrian tram rail_urban rail rail_electric rail_fast ship" speed="11.47" length="38.01" width="3.50" shape="822.09,495.94 820.21,500.01 818.75,502.54 817.06,504.91 816.10,506.01 815.06,507.03 813.94,507.95 812.72,508.76 811.42,509.42 810.05,509.91 808.63,510.22 807.17,510.33 805.72,510.27 804.28,510.05 802.87,509.68 801.49,509.20 798.86,507.95 796.37,506.42 794.02,504.69 792.89,503.77"/>
    </edge>
    <edge id=":31_2" function="internal">
        <lane id=":31_2_0" index="0" disallow="pedestrian tram rail_urban rail rail_electric rail_fast ship" speed="10.42" length="31.09" width="3.50" shape="795.15,501.10 796.12,501.88 798.15,503.38 800.26,504.68 802.47,505.73 803.56,506.11 804.69,506.40 805.81,506.57 806.92,506.62 808.02,506.52 809.09,506.29 810.11,505.92 811.10,505.41 812.04,504.78 812.93,504.05 813.77,503.22 814.54,502.33 815.97,500.32 817.21,498.17 818.82,494.68"/>
    </edge>
    <edge id=":31_3" function="internal">
        <lane id=":31_3_0" index="0" disallow="pedestrian tram rail_urban rail rail_electric rail_fast ship" speed="13.59" length="34.91" width="3.50" shape="795.15,501.10 796.90,502.63 799.40,505.07 801.72,507.72 803.79,510.60 804.99,512.70 805.99,514.91 806.76,517.24 807.24,519.65 807.41,522.12 807.26,524.59 806.79,527.01 806.05,529.34 805.08,531.54"/>
    </edge>
    <edge id=":31_4" function="internal">
        <lane id=":31_4_0" index="0" disallow="pedestrian tram rail_urban rail rail_electric rail_fast ship" speed="12.68" length="30.24" width="3.50" shape="801.94,529.99 802.78,528.08 803.40,526.09 803.78,524.04 803.88,521.96 803.70,519.88 803.26,517.85 802.58,515.88 801.69,513.99 800.63,512.19 798.79,509.67 796.71,507.32 794.47,505.15 792.89,503.77"/>
    </edge>
    <edge id=":31_5" function="internal">
        <lane id=":31_5_0" index="0" disallow="pedestrian tram rail_urban rail rail_electric rail_fast ship" speed="36.11" length="39.14" width="3.50" shape="801.94,529.99 808.36,517.06 815.49,502.20 818.82,494.68"/>
    </edge>
    <edge id=":32_0" function="internal">
        <lane id=":32_0_0" index="0" disallow="pedestrian tram rail_urban rail rail_electric rail_fast ship" speed="10.65" length="29.24" width="3.50" shape="771.33,641.81 768.24,640.52 766.08,639.87 763.87,639.44 762.75,639.34 761.62,639.32 760.50,639.39 759.38,639.56 758.29,639.84 757.24,640.23 756.23,640.73 755.27,641.33 754.38,642.02 753.56,642.78 752.80,643.62 751.47,645.43 750.36,647.40 749.44,649.45 748.68,651.56"/>
    </edge>
    <edge id=":32_1" function="internal">
        <lane id=":32_1_0" index="0" disallow="pedestrian tram rail_urban rail rail_electric rail_fast ship" speed="12.42" length="34.10" width="3.50" shape="771.33,641.81 768.01,640.02 765.86,638.60 763.84,636.97 761.98,635.10 760.39,633.00 759.68,631.81 759.09,630.59 758.60,629.33 758.22,628.02 757.95,626.70 757.79,625.36 757.73,623.99 757.90,621.37 758.38,618.80 759.11,616.32 760.03,613.96"/>
    </edge>
    <edge id=":32_2" function="internal">
        <lane id=":32_2_0" index="0" disallow="pedestrian tram rail_urban rail rail_electric rail_fast ship" speed="11.43" length="28.68" width="3.50" shape="763.25,615.33 762.45,617.39 761.82,619.51 761.42,621.68 761.29,623.88 761.34,624.98 761.48,626.08 761.70,627.16 762.02,628.22 762.42,629.25 762.91,630.24 763.48,631.18 764.82,632.94 766.38,634.50 768.10,635.88 769.94,637.10 772.84,638.65"/>
    </edge>
    <edge id=":32_3" function="internal">
        <lane id=":32_3_0" index="0" disallow="pedestrian tram rail_urban rail rail_electric rail_fast ship" speed="36.11" length="39.06" width="3.50" shape="763.25,615.33 755.63,633.32 751.08,644.79 748.68,651.56"/>
    </edge>
    <edge id=":32_4" function="internal">
        <lane id=":32_4_0" index="0" disallow="pedestrian tram rail_urban rail rail_electric rail_fast ship" speed="36.11" length="39.44" width="3.50" shape="745.33,650.55 747.79,643.61 752.37,632.04 760.03,613.96"/>
    </edge>
    <edge id=":32_5" function="internal">
        <lane id=":32_5_0" index="0" disallow="pedestrian tram rail_urban rail rail_electric rail_fast ship" speed="11.68" length="35.42" width="3.50" shape="745.33,650.55 746.23,648.03 747.31,645.62 748.63,643.29 750.22,641.12 751.17,640.08 752.20,639.13 753.31,638.26 754.52,637.51 755.79,636.88 757.13,636.38 758.51,636.03 759.90,635.81 761.30,635.72 762.68,635.75 764.07,635.88 766.69,636.38 769.25,637.16 772.84,638.65"/>
    </edge>
    <edge id=":33_0" function="internal">
        <lane id=":33_0_0" index="0" disallow="pedestrian tram rail_urban rail rail_electric rail_fast ship" speed="11.21" length="28.67" width="3.50" shape="798.27,584.46 795.22,583.11 793.13,582.42 790.98,581.93 788.79,581.70 787.69,581.69 786.59,581.77 785.50,581.94 784.42,582.20 783.38,582.55 782.37,582.99 781.40,583.52 780.48,584.12 778.78,585.52 777.28,587.14 775.97,588.91 774.82,590.80 774.31,591.76"/>
    </edge>
    <edge id=":33_1" function="internal">
        <lane id=":33_1_0" index="0" disallow="pedestrian tram rail_urban rail rail_electric rail_fast ship" speed="12.21" length="34.65" width="3.50" shape="798.27,584.46 794.77,582.47 792.60,580.93 790.61,579.17 788.85,577.17 788.08,576.08 787.41,574.93 786.83,573.73 786.36,572.48 786.01,571.20 785.77,569.89 785.65,568.56 785.70,565.90 786.12,563.27 786.83,560.71 787.78,558.22 788.91,555.80"/>
    </edge>
    <edge id=":33_2" function="internal">
        <lane id=":33_2_0" index="0" disallow="pedestrian tram rail_urban rail rail_electric rail_fast ship" speed="11.21" length="29.03" width="3.50" shape="792.04,557.38 791.04,559.49 790.22,561.64 789.62,563.82 789.26,566.02 789.22,568.24 789.32,569.28 789.51,570.34 789.79,571.37 790.17,572.36 790.63,573.33 791.17,574.26 791.78,575.12 793.25,576.80 794.94,578.28 796.78,579.60 799.81,581.32"/>
    </edge>
    <edge id=":33_3" function="internal">
        <lane id=":33_3_0" index="0" disallow="pedestrian tram rail_urban rail rail_electric rail_fast ship" speed="36.11" length="38.68" width="3.50" shape="792.04,557.38 783.16,574.59 774.31,591.76"/>
    </edge>
    <edge id=":33_4" function="internal">
        <lane id=":33_4_0" index="0" disallow="pedestrian tram rail_urban rail rail_electric rail_fast ship" speed="36.11" length="38.71" width="3.50" shape="771.17,590.21 780.05,572.99 788.91,555.80"/>
    </edge>
    <edge id=":33_5" function="internal">
        <lane id=":33_5_0" index="0" disallow="pedestrian tram rail_urban rail rail_electric rail_fast ship" speed="12.21" length="34.24" width="3.50" shape="771.17,590.21 771.80,589.03 773.13,586.86 774.67,584.77 776.46,582.84 778.48,581.16 779.63,580.40 780.82,579.75 782.07,579.20 783.36,578.76 784.68,578.43 786.02,578.22 787.36,578.12 788.73,578.13 791.33,578.40 793.87,578.97 796.33,579.78 799.81,581.32"/>
    </edge>

    <edge id="77134" from="33" to="8" priority="3" type="highway.residential" spreadType="center" length="70.00" shape="788.16,575.23 862.67,612.13">
        <lane id="77134_0" index="0" disallow="pedestrian tram rail_urban rail rail_electric rail_fast ship" speed="36.11" length="70.00" width="3.50" customShape="1" shape="799.81,581.32 845.98,603.95 862.67,612.13"/>
    </edge>
    <edge id="77135" from="10" to="33" priority="3" type="highway.residential" spreadType="center" length="70.00" shape="861.10,615.26 786.61,578.36">
        <lane id="77135_0" index="0" disallow="pedestrian tram rail_urban rail rail_electric rail_fast ship" speed="36.11" length="70.00" width="3.50" customShape="1" shape="861.10,615.26 844.43,607.09 798.25,584.45"/>
    </edge>
    <edge id="77219" from="31" to="24" priority="3" type="highway.residential" spreadType="center" length="70.00" shape="804.64,510.63 755.62,448.57">
        <lane id="77219_0" index="0" disallow="pedestrian tram rail_urban rail rail_electric rail_fast ship" speed="36.11" length="70.00" width="3.50" customShape="1" shape="792.89,503.77 788.96,500.39 782.08,494.08 775.09,487.14 767.30,478.81 759.42,469.86 757.92,467.74 756.97,465.90 756.08,463.47 755.46,460.95 755.07,457.87 754.99,454.24 755.25,450.62 755.62,448.57"/>
    </edge>
    <edge id="77220" from="27" to="31" priority="3" type="highway.residential" spreadType="center" length="70.03" shape="759.98,445.65 807.41,508.49">
        <lane id="77220_0" index="0" disallow="pedestrian tram rail_urban rail rail_electric rail_fast ship" speed="36.11" length="70.03" width="3.50" customShape="1" shape="759.98,445.65 759.26,448.12 758.74,450.93 758.49,454.28 758.56,457.64 758.93,460.45 759.51,462.70 760.33,464.83 761.22,466.40 762.66,468.28 770.30,476.91 777.88,484.99 784.67,491.71 791.34,497.83 795.18,501.12"/>
    </edge>
    <edge id="77406" from="26" to="32" priority="3" type="highway.residential" spreadType="center" length="65.05" shape="828.84,675.10 759.37,636.81">
        <lane id="77406_0" index="0" disallow="pedestrian tram rail_urban rail rail_electric rail_fast ship" speed="36.11" length="65.05" width="3.50" customShape="1" shape="827.58,674.29 821.64,670.49 808.80,662.52 790.95,652.14 780.36,646.34 771.28,641.78"/>
    </edge>
    <edge id="77407" from="32" to="17" priority="3" type="highway.residential" spreadType="center" length="65.43" shape="761.06,633.75 830.73,672.15">
        <lane id="77407_0" index="0" disallow="pedestrian tram rail_urban rail rail_electric rail_fast ship" speed="36.11" length="65.43" width="3.50" customShape="1" shape="772.84,638.65 781.95,643.22 792.63,649.07 810.58,659.50 823.49,667.52 829.47,671.35"/>
    </edge>
    <edge id="77637" from="31" to="23" priority="3" type="highway.residential" spreadType="center" length="70.00" shape="804.39,508.81 841.67,428.53">
        <lane id="77637_0" index="0" disallow="pedestrian tram rail_urban rail rail_electric rail_fast ship" speed="36.11" length="70.00" width="3.50" customShape="1" shape="818.82,494.68 822.79,484.44 828.43,468.90 834.54,450.87 841.67,428.53"/>
    </edge>
    <edge id="77638" from="29" to="31" priority="3" type="highway.residential" spreadType="center" length="70.00" shape="844.91,429.89 807.56,510.29">
        <lane id="77638_0" index="0" disallow="pedestrian tram rail_urban rail rail_electric rail_fast ship" speed="36.11" length="70.00" width="3.50" customShape="1" shape="844.91,429.89 837.84,452.02 831.72,470.11 826.05,485.70 822.05,496.03"/>
    </edge>
    <edge id="77640" from="33" to="31" priority="3" type="highway.residential" spreadType="center" length="28.95" shape="785.72,576.39 804.30,509.05">
        <lane id="77640_0" index="0" disallow="pedestrian tram rail_urban rail rail_electric rail_fast ship" speed="36.11" length="28.95" width="3.50" customShape="1" shape="788.91,555.80 795.43,542.90 801.96,529.96"/>
    </edge>
    <edge id="77641" from="31" to="33" priority="3" type="highway.residential" spreadType="center" length="28.94" shape="807.68,509.98 789.09,577.32">
        <lane id="77641_0" index="0" disallow="pedestrian tram rail_urban rail rail_electric rail_fast ship" speed="36.11" length="28.94" width="3.50" customShape="1" shape="805.08,531.54 798.55,544.48 792.04,557.38"/>
    </edge>
    <edge id="77643" from="32" to="33" priority="3" type="highway.residential" spreadType="center" length="26.29" shape="758.66,634.56 785.85,576.03">
        <lane id="77643_0" index="0" disallow="pedestrian tram rail_urban rail rail_electric rail_fast ship" speed="36.11" length="26.29" width="3.50" customShape="1" shape="760.03,613.96 760.86,612.05 766.17,600.32 771.19,590.16"/>
    </edge>
    <edge id="77644" from="33" to="32" priority="3" type="highway.residential" spreadType="center" length="26.08" shape="789.03,577.50 761.83,636.03">
        <lane id="77644_0" index="0" disallow="pedestrian tram rail_urban rail rail_electric rail_fast ship" speed="36.11" length="26.08" width="3.50" customShape="1" shape="774.31,591.76 769.33,601.83 764.06,613.46 763.23,615.36"/>
    </edge>
    <edge id="77646" from="28" to="32" priority="3" type="highway.residential" spreadType="center" length="70.00" shape="731.03,718.85 758.59,634.72">
        <lane id="77646_0" index="0" disallow="pedestrian tram rail_urban rail rail_electric rail_fast ship" speed="36.11" length="70.00" width="3.50" customShape="1" shape="731.03,718.85 731.62,713.15 735.01,691.33 736.44,683.94 738.83,673.68 742.59,659.62 745.36,650.46"/>
    </edge>
    <edge id="77647" from="32" to="18" priority="3" type="highway.residential" spreadType="center" length="70.00" shape="761.92,635.81 734.44,719.97">
        <lane id="77647_0" index="0" disallow="pedestrian tram rail_urban rail rail_electric rail_fast ship" speed="36.11" length="70.00" width="3.50" customShape="1" shape="748.68,651.56 745.93,660.64 742.20,674.65 739.82,684.85 738.41,692.18 735.05,713.92 734.44,719.97"/>
    </edge>
    <edge id="82433" from="30" to="26" priority="3" type="highway.residential" spreadType="center" length="26.10">
        <lane id="82433_0" index="0" disallow="pedestrian tram rail_urban rail rail_electric rail_fast ship" speed="36.11" length="26.10" width="3.50" customShape="1" shape="851.96,690.17 840.40,682.63 830.09,675.92"/>
    </edge>
    <edge id="82627" from="17" to="25" priority="3" type="highway.residential" spreadType="center" length="26.14">
        <lane id="82627_0" index="0" disallow="pedestrian tram rail_urban rail rail_electric rail_fast ship" speed="36.11" length="26.14" width="3.50" customShape="1" shape="831.99,672.97 842.31,679.70 853.89,687.25"/>
    </edge>

    <junction id="10" type="dead_end" x="861.10" y="615.26" incLanes="" intLanes="" shape="861.87,613.69 860.33,616.83" rightOfWay="edgePriority"/>
    <junction id="17" type="priority" x="830.73" y="672.15" incLanes="77407_0" intLanes=":17_0_0" shape="831.03,674.44 832.94,671.51 830.41,669.87 828.53,672.82" rightOfWay="edgePriority">
        <request index="0" response="0" foes="0" cont="0"/>
    </junction>
    <junction id="18" type="dead_end" x="734.44" y="719.97" incLanes="77647_0" intLanes="" shape="736.18,720.15 732.70,719.79" rightOfWay="edgePriority"/>
    <junction id="23" type="dead_end" x="841.67" y="428.53" incLanes="77637_0" intLanes="" shape="840.01,428.00 843.34,429.06" rightOfWay="edgePriority"/>
    <junction id="24" type="dead_end" x="755.62" y="448.57" incLanes="77219_0" intLanes="" shape="753.90,448.26 757.34,448.88" rightOfWay="edgePriority"/>
    <junction id="25" type="dead_end" x="853.89" y="687.25" incLanes="82627_0" intLanes="" shape="854.85,685.79 852.94,688.72" rightOfWay="edgePriority"/>
    <junction id="26" type="priority" x="828.84" y="675.10" incLanes="82433_0" intLanes=":26_0_0" shape="829.14,677.38 831.05,674.45 828.52,672.82 826.64,675.76" rightOfWay="edgePriority">
        <request index="0" response="0" foes="0" cont="0"/>
    </junction>
    <junction id="27" type="dead_end" x="759.98" y="445.65" incLanes="" intLanes="" shape="758.30,445.16 761.66,446.14" rightOfWay="edgePriority"/>
    <junction id="28" type="dead_end" x="731.03" y="718.85" incLanes="" intLanes="" shape="732.77,719.03 729.29,718.67" rightOfWay="edgePriority"/>
    <junction id="29" type="dead_end" x="844.91" y="429.89" incLanes="" intLanes="" shape="843.25,429.35 846.58,430.42" rightOfWay="edgePriority"/>
    <junction id="30" type="dead_end" x="851.96" y="690.17" incLanes="" intLanes="" shape="852.91,688.70 851.00,691.63" rightOfWay="edgePriority"/>
    <junction id="31" type="priority" x="805.99" y="509.52" incLanes="77638_0 77220_0 77640_0" intLanes=":31_0_0 :31_1_0 :31_2_0 :31_3_0 :31_4_0 :31_5_0" shape="823.71,496.57 817.19,494.04 814.69,499.14 811.81,502.58 808.53,504.36 804.85,504.49 800.78,502.97 796.32,499.79 791.75,505.10 796.02,509.23 799.16,513.31 801.16,517.35 802.04,521.34 801.78,525.28 800.40,529.17 806.64,532.33 810.51,524.82 813.44,519.30 815.84,514.74 818.09,510.12 820.58,504.40">
        <request index="0" response="000000" foes="001000" cont="0"/>
        <request index="1" response="110000" foes="111000" cont="0"/>
        <request index="2" response="100000" foes="100000" cont="0"/>
        <request index="3" response="100011" foes="100011" cont="0"/>
        <request index="4" response="000000" foes="000010" cont="0"/>
        <request index="5" response="000000" foes="001110" cont="0"/>
    </junction>
    <junction id="32" type="priority" x="760.25" y="635.30" incLanes="77406_0 77644_0 77646_0" intLanes=":32_0_0 :32_1_0 :32_2_0 :32_3_0 :32_4_0 :32_5_0" shape="770.49,643.35 773.63,637.09 769.29,634.46 766.11,631.47 764.07,628.14 763.18,624.46 763.43,620.43 764.84,616.05 758.42,613.27 754.98,620.98 752.36,626.66 750.23,631.36 748.28,636.12 746.19,642.00 743.66,650.04 750.35,652.07 752.29,647.29 754.79,643.84 757.86,641.72 761.50,640.93 765.71,641.47">
        <request index="0" response="001000" foes="001000" cont="0"/>
        <request index="1" response="111000" foes="111000" cont="0"/>
        <request index="2" response="000000" foes="100000" cont="0"/>
        <request index="3" response="000000" foes="100011" cont="0"/>
        <request index="4" response="000000" foes="000010" cont="0"/>
        <request index="5" response="001100" foes="001110" cont="0"/>
    </junction>
    <junction id="33" type="priority" x="787.42" y="576.81" incLanes="77135_0 77641_0 77643_0" intLanes=":33_0_0 :33_1_0 :33_2_0 :33_3_0 :33_4_0 :33_5_0" shape="797.50,586.03 800.58,579.74 796.41,577.19 793.44,574.22 791.67,570.84 791.11,567.03 791.75,562.81 793.60,558.17 787.35,555.01 769.60,589.43 775.87,592.54 778.37,588.53 781.31,585.69 784.69,584.02 788.52,583.52 792.79,584.19">
        <request index="0" response="001000" foes="001000" cont="0"/>
        <request index="1" response="111000" foes="111000" cont="0"/>
        <request index="2" response="000000" foes="100000" cont="0"/>
        <request index="3" response="000000" foes="100011" cont="0"/>
        <request index="4" response="000000" foes="000010" cont="0"/>
        <request index="5" response="001100" foes="001110" cont="0"/>
    </junction>
    <junction id="8" type="dead_end" x="862.67" y="612.13" incLanes="77134_0" intLanes="" shape="863.44,610.56 861.90,613.70" rightOfWay="edgePriority"/>

    <connection from="77135" to="77644" fromLane="0" toLane="0" contPos="-4.00" shape="798.25,584.45 795.22,583.11 793.13,582.42 790.98,581.93 788.79,581.70 787.69,581.69 786.59,581.77 785.50,581.94 784.42,582.20 783.38,582.55 782.37,582.99 781.40,583.52 780.48,584.12 778.78,585.52 777.28,587.14 775.97,588.91 774.82,590.80 774.31,591.76" via=":33_0_0" dir="r" state="m"/>
    <connection from="77135" to="77640" fromLane="0" toLane="0" contPos="-4.00" shape="798.25,584.45 794.77,582.47 792.60,580.93 790.61,579.17 788.85,577.17 788.08,576.08 787.41,574.93 786.83,573.73 786.36,572.48 786.01,571.20 785.77,569.89 785.65,568.56 785.70,565.90 786.12,563.27 786.83,560.71 787.78,558.22 788.91,555.80" via=":33_1_0" dir="l" state="m"/>
    <connection from="77220" to="77637" fromLane="0" toLane="0" contPos="-4.00" shape="795.15,501.10 796.12,501.88 798.15,503.38 800.26,504.68 802.47,505.73 803.56,506.11 804.69,506.40 805.81,506.57 806.92,506.62 808.02,506.52 809.09,506.29 810.11,505.92 811.10,505.41 812.04,504.78 812.93,504.05 813.77,503.22 814.54,502.33 815.97,500.32 817.21,498.17 818.82,494.68" via=":31_2_0" dir="r" state="m"/>
    <connection from="77220" to="77641" fromLane="0" toLane="0" contPos="-4.00" shape="795.15,501.10 796.90,502.63 799.40,505.07 801.72,507.72 803.79,510.60 804.99,512.70 805.99,514.91 806.76,517.24 807.24,519.65 807.41,522.12 807.26,524.59 806.79,527.01 806.05,529.34 805.08,531.54" via=":31_3_0" dir="l" state="m"/>
    <connection from="77406" to="77647" fromLane="0" toLane="0" contPos="-4.00" shape="771.33,641.81 768.24,640.52 766.08,639.87 763.87,639.44 762.75,639.34 761.62,639.32 760.50,639.39 759.38,639.56 758.29,639.84 757.24,640.23 756.23,640.73 755.27,641.33 754.38,642.02 753.56,642.78 752.80,643.62 751.47,645.43 750.36,647.40 749.44,649.45 748.68,651.56" via=":32_0_0" dir="r" state="m"/>
    <connection from="77406" to="77643" fromLane="0" toLane="0" contPos="-4.00" shape="771.33,641.81 768.01,640.02 765.86,638.60 763.84,636.97 761.98,635.10 760.39,633.00 759.68,631.81 759.09,630.59 758.60,629.33 758.22,628.02 757.95,626.70 757.79,625.36 757.73,623.99 757.90,621.37 758.38,618.80 759.11,616.32 760.03,613.96" via=":32_1_0" dir="l" state="m"/>
    <connection from="77407" to="82627" fromLane="0" toLane="0" contPos="-4.00" via=":17_0_0" dir="s" state="M"/>
    <connection from="77638" to="77641" fromLane="0" toLane="0" contPos="-4.00" shape="822.05,496.03 818.69,503.62 811.52,518.57 805.08,531.54" via=":31_0_0" dir="s" state="M"/>
    <connection from="77638" to="77219" fromLane="0" toLane="0" contPos="-4.00" shape="822.05,496.03 820.21,500.01 818.75,502.54 817.06,504.91 816.10,506.01 815.06,507.03 813.94,507.95 812.72,508.76 811.42,509.42 810.05,509.91 808.63,510.22 807.17,510.33 805.72,510.27 804.28,510.05 802.87,509.68 801.49,509.20 798.86,507.95 796.37,506.42 794.02,504.69 792.89,503.77" via=":31_1_0" dir="l" state="m"/>
    <connection from="77640" to="77219" fromLane="0" toLane="0" contPos="-4.00" shape="801.94,529.99 802.78,528.08 803.40,526.09 803.78,524.04 803.88,521.96 803.70,519.88 803.26,517.85 802.58,515.88 801.69,513.99 800.63,512.19 798.79,509.67 796.71,507.32 794.47,505.15 792.89,503.77" via=":31_4_0" dir="r" state="M"/>
    <connection from="77640" to="77637" fromLane="0" toLane="0" contPos="-4.00" shape="801.94,529.99 808.36,517.06 815.49,502.20 818.82,494.68" via=":31_5_0" dir="s" state="M"/>
    <connection from="77641" to="77134" fromLane="0" toLane="0" contPos="-4.00" shape="792.04,557.38 791.04,559.49 790.22,561.64 789.62,563.82 789.26,566.02 789.22,568.24 789.32,569.28 789.51,570.34 789.79,571.37 790.17,572.36 790.63,573.33 791.17,574.26 791.78,575.12 793.25,576.80 794.94,578.28 796.78,579.60 799.81,581.32" via=":33_2_0" dir="r" state="M"/>
    <connection from="77641" to="77644" fromLane="0" toLane="0" contPos="-4.00" shape="792.04,557.38 783.16,574.59 774.31,591.76" via=":33_3_0" dir="s" state="M"/>
    <connection from="77643" to="77640" fromLane="0" toLane="0" contPos="-4.00" shape="771.19,590.16 780.05,572.99 788.91,555.80" via=":33_4_0" dir="s" state="M"/>
    <connection from="77643" to="77134" fromLane="0" toLane="0" contPos="-4.00" shape="771.19,590.16 771.80,589.03 773.13,586.86 774.67,584.77 776.46,582.84 778.48,581.16 779.63,580.40 780.82,579.75 782.07,579.20 783.36,578.76 784.68,578.43 786.02,578.22 787.36,578.12 788.73,578.13 791.33,578.40 793.87,578.97 796.33,579.78 799.81,581.32" via=":33_5_0" dir="l" state="m"/>
    <connection from="77644" to="77407" fromLane="0" toLane="0" contPos="-4.00" shape="763.25,615.33 762.45,617.39 761.82,619.51 761.42,621.68 761.29,623.88 761.34,624.98 761.48,626.08 761.70,627.16 762.02,628.22 762.42,629.25 762.91,630.24 763.48,631.18 764.82,632.94 766.38,634.50 768.10,635.88 769.94,637.10 772.84,638.65" via=":32_2_0" dir="r" state="M"/>
    <connection from="77644" to="77647" fromLane="0" toLane="0" contPos="-4.00" shape="763.25,615.33 755.63,633.32 751.08,644.79 748.68,651.56" via=":32_3_0" dir="s" state="M"/>
    <connection from="77646" to="77643" fromLane="0" toLane="0" contPos="-4.00" shape="745.36,650.46 747.79,643.61 752.37,632.04 760.03,613.96" via=":32_4_0" dir="s" state="M"/>