<routes>
	<vehicle depart="0.1" departLane="0" departPos="20.03200407798102" departSpeed="8.9056921" id="1" type="passenger">
		<route edges="50201 50213 50197"/>
	</vehicle>
	<vehicle depart="0.1" departLane="0" departPos="109.19440782429362" departSpeed="1.1507792" id="2" type="passenger">
		<route edges="50195 50211 50199"/>
	</vehicle>
	<vehicle depart="0.1" departLane="0" departPos="145.97285041592596" departSpeed="1.4835743" id="4" type="passenger">
		<route edges="50205 50207 50197"/>
	</vehicle>
	<vehicle depart="0.1" departLane="0" departPos="153.97293882042354" departSpeed="6.6035643" id="5" type="passenger">
		<route edges="50205 50217 50199"/>
	</vehicle>
	<vehicle depart="0.1" departLane="0" departPos="12.029682145098992" departSpeed="3.2128615" id="7" type="passenger">
		<route edges="50201 50213 50197"/>
	</vehicle>
</routes>
