<routes>
	<vehicle depart="0.1" departLane="0" departPos="23.806089656997884" departSpeed="6.5980276" id="350" type="bicycle">
		<route edges="78026 78023"/>
	</vehicle>
	<vehicle depart="0.1" departLane="0" departPos="27.81952497917273" departSpeed="15.885019" id="354" type="bus">
		<route edges="78024 78027 78968"/>
	</vehicle>
	<vehicle depart="0.1" departLane="0" departPos="7.201695316087149" departSpeed="0.010926974" id="316" type="passenger">
		<route edges=":35_0 78023"/>
	</vehicle>
	<vehicle depart="0.1" departLane="0" departPos="27.498284088708346" departSpeed="0.074080996" id="318" type="passenger">
		<route edges="78649 78027"/>
	</vehicle>
	<vehicle depart="0.1" departLane="0" departPos="9.073035225720066" departSpeed="20.806957" id="319" type="passenger">
		<route edges="78027 78968"/>
	</vehicle>
	<vehicle depart="0.1" departLane="0" departPos="45.787087237185276" departSpeed="0.21451004" id="323" type="passenger">
		<route edges="78967 78026"/>
	</vehicle>
	<vehicle depart="0.1" departLane="0" departPos="38.531535722187606" departSpeed="0.68920045" id="329" type="passenger">
		<route edges="78967 78026"/>
	</vehicle>
	<vehicle depart="0.1" departLane="0" departPos="37.375496725779584" departSpeed="15.361349" id="355" type="passenger">
		<route edges=":34_5 78024 78027"/>
	</vehicle>
	<vehicle depart="0.1" departLane="0" departPos="7.845904309561435" departSpeed="13.679893" id="359" type="passenger">
		<route edges="78026 78023"/>
	</vehicle>
	<vehicle depart="0.1" departLane="0" departPos="17.6545044301663" departSpeed="0.0" id="30" type="truck">
		<route edges=":35_0 78023"/>
	</vehicle>
</routes>
