<routes>
	<vehicle depart="0.1" departLane="0" departPos="14.611917781859978" departSpeed="4.9057626" id="37" type="bicycle">
		<route edges=":35_2 58290"/>
	</vehicle>
	<vehicle depart="0.1" departLane="0" departPos="18.318539587736506" departSpeed="0.011284479" id="327" type="bus">
		<route edges=":34_4 58291"/>
	</vehicle>
	<vehicle depart="0.1" departLane="0" departPos="57.00536187138617" departSpeed="1.4655385" id="333" type="bus">
		<route edges="58299 58296"/>
	</vehicle>
	<vehicle depart="0.1" departLane="0" departPos="29.396217101867325" departSpeed="5.3884007" id="32" type="passenger">
		<route edges=":34_1 58291 58294"/>
	</vehicle>
	<vehicle depart="0.1" departLane="0" departPos="44.170649016025926" departSpeed="3.1641913" id="311" type="passenger">
		<route edges="58297 58291"/>
	</vehicle>
	<vehicle depart="0.1" departLane="0" departPos="16.289171237849985" departSpeed="0.10098736" id="314" type="passenger">
		<route edges=":34_3 58300"/>
	</vehicle>
	<vehicle depart="0.1" departLane="0" departPos="18.80236884432105" departSpeed="1.9116701" id="324" type="passenger">
		<route edges="58297 58291"/>
	</vehicle>
	<vehicle depart="0.1" departLane="0" departPos="68.24080733878797" departSpeed="0.27937079" id="331" type="passenger">
		<route edges="58299 58296"/>
	</vehicle>
	<vehicle depart="0.1" departLane="0" departPos="29.997923317131196" departSpeed="4.0350306" id="313" type="truck">
		<route edges="58297 58291"/>
	</vehicle>
</routes>
