<routes>
	<vehicle depart="0.1" departLane="0" departPos="71.74119424119823" departSpeed="4.3675333" id="1" type="passenger">
		<route edges="50201 50213 50197"/>
	</vehicle>
	<vehicle depart="0.1" departLane="0" departPos="107.80337975118697" departSpeed="1.2060747" id="2" type="passenger">
		<route edges="50195 50211 50199"/>
	</vehicle>
	<vehicle depart="0.1" departLane="0" departPos="95.9060029878741" departSpeed="5.048949" id="4" type="passenger">
		<route edges="50205 50207 50197"/>
	</vehicle>
	<vehicle depart="0.1" departLane="0" departPos="103.90609504116722" departSpeed="6.4129635" id="5" type="passenger">
		<route edges="50205 50217 50199"/>
	</vehicle>
	<vehicle depart="0.1" departLane="0" departPos="46.1593072840855" departSpeed="0.89953919" id="7" type="passenger">
		<route edges="50201 50213 50197"/>
	</vehicle>
</routes>
