<routes>
	<vehicle depart="0.1" departLane="0" departPos="36.754768408287916" departSpeed="0.0" id="38" type="bicycle">
		<route edges="145 10"/>
	</vehicle>
	<vehicle depart="0.1" departLane="0" departPos="8.189253061605278" departSpeed="0.47330565" id="358" type="bicycle">
		<route edges="164 71"/>
	</vehicle>
	<vehicle depart="0.1" departLane="0" departPos="66.03359484070883" departSpeed="3.1302069" id="32" type="passenger">
		<route edges="164 67 64 61 146"/>
	</vehicle>
	<vehicle depart="0.1" departLane="0" departPos="17.20581302115518" departSpeed="0.0" id="35" type="passenger">
		<route edges="7 65"/>
	</vehicle>
	<vehicle depart="0.1" departLane="0" departPos="57.42482077446124" departSpeed="1.9103887" id="39" type="passenger">
		<route edges="164 67 160"/>
	</vehicle>
	<vehicle depart="0.1" departLane="0" departPos="23.567976430020263" departSpeed="10.742415" id="316" type="passenger">
		<route edges="142 383 7"/>
	</vehicle>
	<vehicle depart="0.1" departLane="0" departPos="7.412400209246811" departSpeed="10.421396" id="317" type="passenger">
		<route edges=":52_1 61 146"/>
	</vehicle>
	<vehicle depart="0.1" departLane="0" departPos="42.14075725436143" departSpeed="0.0" id="321" type="passenger">
		<route edges="145 10"/>
	</vehicle>
	<vehicle depart="0.1" departLane="0" departPos="5.5663361200515284" departSpeed="4.450068" id="326" type="passenger">
		<route edges=":51_0 67 64 61 146"/>
	</vehicle>
	<vehicle depart="0.1" departLane="0" departPos="31.154065592230882" departSpeed="0.0" id="328" type="passenger">
		<route edges="145 10"/>
	</vehicle>
	<vehicle depart="0.1" departLane="0" departPos="49.66085368676454" departSpeed="0.96580429" id="332" type="passenger">
		<route edges="164 67"/>
	</vehicle>
	<vehicle depart="0.1" departLane="0" departPos="9.237754851130846" departSpeed="12.937215" id="334" type="passenger">
		<route edges="61 146"/>
	</vehicle>
	<vehicle depart="0.1" departLane="0" departPos="70.25075692073956" departSpeed="0.0" id="335" type="passenger">
		<route edges="11 62 8"/>
	</vehicle>
	<vehicle depart="0.1" departLane="0" departPos="63.20134393091833" departSpeed="0.0005224879" id="337" type="passenger">
		<route edges="11 62 8"/>
	</vehicle>
	<vehicle depart="0.1" departLane="0" departPos="42.56659598052726" departSpeed="0.36043571" id="338" type="passenger">
		<route edges="164 71"/>
	</vehicle>
	<vehicle depart="0.1" departLane="0" departPos="19.76916618737473" departSpeed="0.00016625709" id="340" type="passenger">
		<route edges="145 10"/>
	</vehicle>
	<vehicle depart="0.1" departLane="0" departPos="56.04240447305899" departSpeed="0.0063484224" id="342" type="passenger">
		<route edges="11 146"/>
	</vehicle>
	<vehicle depart="0.1" departLane="0" departPos="35.547778768793535" departSpeed="0.097367925" id="343" type="passenger">
		<route edges="164 71"/>
	</vehicle>
	<vehicle depart="0.1" departLane="0" departPos="12.734829992708113" departSpeed="0.00089670851" id="346" type="passenger">
		<route edges="145 10"/>
	</vehicle>
	<vehicle depart="0.1" departLane="0" departPos="48.81300030293127" departSpeed="0.039823495" id="347" type="passenger">
		<route edges="11 62 8"/>
	</vehicle>
	<vehicle depart="0.1" departLane="0" departPos="28.802143344173714" departSpeed="0.055779004" id="348" type="passenger">
		<route edges="164 71"/>
	</vehicle>
	<vehicle depart="0.1" departLane="0" departPos="14.394576684433389" departSpeed="0.45400693" id="349" type="passenger">
		<route edges="161 68"/>
	</vehicle>
	<vehicle depart="0.1" departLane="0" departPos="41.523530087094976" departSpeed="0.16090373" id="350" type="passenger">
		<route edges="11 146"/>
	</vehicle>
	<vehicle depart="0.1" departLane="0" departPos="21.98826802373723" departSpeed="0.10637987" id="353" type="passenger">
		<route edges="164 71"/>
	</vehicle>
	<vehicle depart="0.1" departLane="0" departPos="34.27851067335948" departSpeed="0.45809282" id="354" type="passenger">
		<route edges="11 142"/>
	</vehicle>
	<vehicle depart="0.1" departLane="0" departPos="26.558677760862892" departSpeed="0.93926892" id="355" type="passenger">
		<route edges="11 142"/>
	</vehicle>
	<vehicle depart="0.1" departLane="0" departPos="14.651574638246348" departSpeed="0.24587271" id="356" type="passenger">
		<route edges="164 71"/>
	</vehicle>
	<vehicle depart="0.1" departLane="0" departPos="5.7337543515152305" departSpeed="0.0034339193" id="357" type="passenger">
		<route edges="145 10"/>
	</vehicle>
	<vehicle depart="0.1" departLane="0" departPos="17.90122599744122" departSpeed="1.4237207" id="359" type="passenger">
		<route edges="11 142"/>
	</vehicle>
	<vehicle depart="0.1" departLane="0" departPos="8.821772665179981" departSpeed="1.5048781" id="360" type="passenger">
		<route edges="11 142"/>
	</vehicle>
	<vehicle depart="0.1" departLane="0" departPos="35.397307977628245" departSpeed="0.0" id="33" type="motorcycle">
		<route edges="145 10"/>
	</vehicle>
	<vehicle depart="0.1" departLane="0" departPos="24.24346007162324" departSpeed="1.8988058e-05" id="333" type="motorcycle">
		<route edges="145 10"/>
	</vehicle>
	<vehicle depart="0.1" departLane="0" departPos="42.31480510467509" departSpeed="11.244026" id="324" type="truck">
		<route edges="142 383 7 65"/>
	</vehicle>
	<vehicle depart="0.1" departLane="0" departPos="24.203102326720845" departSpeed="0.0" id="341" type="truck">
		<route edges="161 68"/>
	</vehicle>
</routes>
