<routes>
	<vehicle depart="0.1" departLane="0" departPos="42.953678440064195" departSpeed="6.9170387" id="311" type="bicycle">
		<route edges="204 360"/>
	</vehicle>
	<vehicle depart="0.1" departLane="0" departPos="49.42177347378572" departSpeed="6.9086242" id="313" type="bicycle">
		<route edges="203 200 135"/>
	</vehicle>
	<vehicle depart="0.1" departLane="0" departPos="3.23494472908568" departSpeed="0.95703289" id="332" type="bicycle">
		<route edges="784 204"/>
	</vehicle>
	<vehicle depart="0.1" departLane="0" departPos="9.007648531862277" departSpeed="0.0" id="31" type="passenger">
		<route edges="357 203"/>
	</vehicle>
	<vehicle depart="0.1" departLane="0" departPos="90.47248749749431" departSpeed="0.0" id="34" type="passenger">
		<route edges="204 360"/>
	</vehicle>
	<vehicle depart="0.1" departLane="0" departPos="38.2706634077479" departSpeed="0.0" id="36" type="passenger">
		<route edges="200 135"/>
	</vehicle>
	<vehicle depart="0.1" departLane="0" departPos="44.56098971897391" departSpeed="13.245523" id="37" type="passenger">
		<route edges="204 360"/>
	</vehicle>
	<vehicle depart="0.1" departLane="0" departPos="50.106109457548804" departSpeed="0.0" id="38" type="passenger">
		<route edges="784 204"/>
	</vehicle>
	<vehicle depart="0.1" departLane="0" departPos="35.75645355702369" departSpeed="13.612635" id="39" type="passenger">
		<route edges="785"/>
	</vehicle>
	<vehicle depart="0.1" departLane="0" departPos="42.85432561439797" departSpeed="0.021537337" id="314" type="passenger">
		<route edges="784 204"/>
	</vehicle>
	<vehicle depart="0.1" departLane="0" departPos="35.90904531251971" departSpeed="0.13172227" id="316" type="passenger">
		<route edges="784 204"/>
	</vehicle>
	<vehicle depart="0.1" departLane="0" departPos="9.981310185535065" departSpeed="8.0854428" id="317" type="passenger">
		<route edges=":25_0 785"/>
	</vehicle>
	<vehicle depart="0.1" departLane="0" departPos="73.15774973413271" departSpeed="12.960316" id="320" type="passenger">
		<route edges="203 200 135"/>
	</vehicle>
	<vehicle depart="0.1" departLane="0" departPos="28.596556045500993" departSpeed="10.854016" id="322" type="passenger">
		<route edges="203 200 135"/>
	</vehicle>
	<vehicle depart="0.1" departLane="0" departPos="23.340491944673055" departSpeed="0.73275094" id="323" type="passenger">
		<route edges="784 204"/>
	</vehicle>
	<vehicle depart="0.1" departLane="0" departPos="38.308435523427605" departSpeed="0.0" id="324" type="passenger">
		<route edges="201 785"/>
	</vehicle>
	<vehicle depart="0.1" departLane="0" departPos="29.670211802349215" departSpeed="1.4579353" id="326" type="passenger">
		<route edges="201 785"/>
	</vehicle>
	<vehicle depart="0.1" departLane="0" departPos="11.201263890737437" departSpeed="9.9569922" id="327" type="passenger">
		<route edges="203 200"/>
	</vehicle>
	<vehicle depart="0.1" departLane="0" departPos="9.806753879262914" departSpeed="1.2301434" id="330" type="passenger">
		<route edges="784 204"/>
	</vehicle>
	<vehicle depart="0.1" departLane="0" departPos="47.25469411633456" departSpeed="9.7639216" id="331" type="passenger">
		<route edges="359 1539"/>
	</vehicle>
	<vehicle depart="0.1" departLane="0" departPos="28.56899634283817" departSpeed="0.37240906" id="319" type="motorcycle">
		<route edges="784 204"/>
	</vehicle>
	<vehicle depart="0.1" departLane="0" departPos="15.44034157891531" departSpeed="1.038367" id="325" type="motorcycle">
		<route edges="784 204"/>
	</vehicle>
	<vehicle depart="0.1" departLane="0" departPos="30.64626639815702" departSpeed="0.67055141" id="30" type="truck">
		<route edges="200 135"/>
	</vehicle>
	<vehicle depart="0.1" departLane="0" departPos="83.28681555156533" departSpeed="0.14691893" id="310" type="truck">
		<route edges="204 360"/>
	</vehicle>
</routes>
