<routes>
	<vehicle depart="0.1" departLane="1" departPos="0" departSpeed="10.966316" id="1" type="passenger">
		<route edges="26 28 24"/>
	</vehicle>
	<vehicle depart="0.1" departLane="0" departPos="0" departSpeed="12.350372" id="2" type="passenger">
		<route edges="26 27 24"/>
	</vehicle>
	<vehicle depart="0.1" departLane="0" departPos="85.12793675342944" departSpeed="15.475598" id="3" type="passenger">
		<route edges="26 27 24"/>
	</vehicle>
</routes>
