<routes>
	<vehicle depart="0.1" departLane="0" departPos="8.654097111069841" departSpeed="0.16237005" id="319" type="passenger">
		<route edges=":69_2 6018"/>
	</vehicle>
	<vehicle depart="0.1" departLane="0" departPos="47.1357568625506" departSpeed="1.5391842" id="326" type="passenger">
		<route edges="5441 6014"/>
	</vehicle>
	<vehicle depart="0.1" departLane="0" departPos="41.461931572939775" departSpeed="1.2428408" id="329" type="passenger">
		<route edges="5441 6014"/>
	</vehicle>
	<vehicle depart="0.1" departLane="0" departPos="15.421702774670466" departSpeed="6.3101627" id="339" type="passenger">
		<route edges=":69_5 6018"/>
	</vehicle>
	<vehicle depart="0.1" departLane="0" departPos="31.956787778370174" departSpeed="1.2612513" id="341" type="passenger">
		<route edges="5441 6014"/>
	</vehicle>
	<vehicle depart="0.1" departLane="0" departPos="17.652952311308944" departSpeed="0.63361499" id="346" type="passenger">
		<route edges="5441 6014"/>
	</vehicle>
	<vehicle depart="0.1" departLane="0" departPos="31.519236883213217" departSpeed="0.0" id="349" type="passenger">
		<route edges="6015 5442"/>
	</vehicle>
	<vehicle depart="0.1" departLane="0" departPos="24.147750927554316" departSpeed="0.42276393" id="354" type="passenger">
		<route edges="6015 5442"/>
	</vehicle>
</routes>
