<routes>
	<vehicle depart="0.1" departLane="1" departPos="90.58029548437487" departSpeed="14.312462" id="1" type="passenger">
		<route edges="26 26 27 24"/>
	</vehicle>
	<vehicle depart="0.1" departLane="0" departPos="0" departSpeed="11.599047" id="2" type="passenger">
		<route edges="26 27 24"/>
	</vehicle>
	<vehicle depart="0.1" departLane="0" departPos="0" departSpeed="14.312462" id="3" type="passenger">
		<route edges="26 27 24"/>
	</vehicle>
</routes>
