<routes>
	<vehicle depart="0.1" departLane="0" departPos="3.9621261675129205" departSpeed="0.018322771" id="37" type="bicycle">
		<route edges="9690 9627"/>
	</vehicle>
	<vehicle depart="0.1" departLane="0" departPos="6.2" departSpeed="6.0090767" id="358" type="bus">
		<route edges=":35_0 9627"/>
	</vehicle>
	<vehicle depart="0.1" departLane="0" departPos="53.932837991413756" departSpeed="6.5306858" id="369" type="bus">
		<route edges="9706 9627"/>
	</vehicle>
	<vehicle depart="0.1" departLane="0" departPos="9.978118344087493" departSpeed="0.0" id="35" type="passenger">
		<route edges="9690 9627"/>
	</vehicle>
	<vehicle depart="0.1" departLane="0" departPos="25.919261286204215" departSpeed="0.33980198" id="38" type="passenger">
		<route edges="9628 9707"/>
	</vehicle>
	<vehicle depart="0.1" departLane="0" departPos="67.25511455328004" departSpeed="0.094456253" id="312" type="passenger">
		<route edges="9721 9689"/>
	</vehicle>
	<vehicle depart="0.1" departLane="0" departPos="61.639015712775084" departSpeed="0.1089797" id="318" type="passenger">
		<route edges="9721 9689"/>
	</vehicle>
	<vehicle depart="0.1" departLane="0" departPos="53.06132756935334" departSpeed="0.10553577" id="330" type="passenger">
		<route edges="9721 9689"/>
	</vehicle>
	<vehicle depart="0.1" departLane="0" departPos="26.00276828812646" departSpeed="12.432209" id="343" type="passenger">
		<route edges=":35_2 9689 9649"/>
	</vehicle>
	<vehicle depart="0.1" departLane="0" departPos="46.22362022868795" departSpeed="0.22402624" id="334" type="motorcycle">
		<route edges="9721 9689"/>
	</vehicle>
</routes>
