<routes>
	<vehicle depart="0.1" departLane="0" departPos="25.349769092395224" departSpeed="6.3709717" id="335" type="bus">
		<route edges=":27_0 1750"/>
	</vehicle>
	<vehicle depart="0.1" departLane="0" departPos="64.10323481068568" departSpeed="6.5530512" id="312" type="passenger">
		<route edges="2407 2051"/>
	</vehicle>
	<vehicle depart="0.1" departLane="0" departPos="57.07605284898296" departSpeed="3.578279" id="313" type="passenger">
		<route edges="1751 2408"/>
	</vehicle>
	<vehicle depart="0.1" departLane="0" departPos="50.53776812683898" departSpeed="2.9078977" id="314" type="passenger">
		<route edges="2407 1750"/>
	</vehicle>
	<vehicle depart="0.1" departLane="0" departPos="49.574759996554434" departSpeed="1.9302362" id="315" type="passenger">
		<route edges="1751 2051"/>
	</vehicle>
	<vehicle depart="0.1" departLane="0" departPos="41.403808018909885" departSpeed="0.56581211" id="318" type="passenger">
		<route edges="1751 2051"/>
	</vehicle>
	<vehicle depart="0.1" departLane="0" departPos="33.39154895001612" departSpeed="4.9504348" id="322" type="passenger">
		<route edges="2407 1750"/>
	</vehicle>
	<vehicle depart="0.1" departLane="0" departPos="22.136656302792495" departSpeed="3.6006767" id="325" type="passenger">
		<route edges="2407 1750"/>
	</vehicle>
	<vehicle depart="0.1" departLane="0" departPos="2.5" departSpeed="14.939436" id="343" type="passenger">
		<route edges=":27_2 2408"/>
	</vehicle>
	<vehicle depart="0.1" departLane="0" departPos="6.008932510221487" departSpeed="5.7426553" id="345" type="passenger">
		<route edges=":27_0 1750"/>
	</vehicle>
</routes>
