<!-- generated on Tue Feb  9 22:13:21 2021 by Eclipse SUMO netconvert Version 1.8.0
<configuration xmlns:xsi="http://www.w3.org/2001/XMLSchema-instance" xsi:noNamespaceSchemaLocation="http://sumo.dlr.de/xsd/netconvertConfiguration.xsd">

    <input>
        <node-files value="./converted_scenarios/scenario-factory/BEL_Zaventem-5_1_I-1-1/BEL_Zaventem-5_1_I-1-1.nod.xml"/>
        <edge-files value="./converted_scenarios/scenario-factory/BEL_Zaventem-5_1_I-1-1/BEL_Zaventem-5_1_I-1-1.edg.xml"/>
        <connection-files value="./converted_scenarios/scenario-factory/BEL_Zaventem-5_1_I-1-1/BEL_Zaventem-5_1_I-1-1.con.xml"/>
        <tllogic-files value="./converted_scenarios/scenario-factory/BEL_Zaventem-5_1_I-1-1/BEL_Zaventem-5_1_I-1-1.tll.xml"/>
        <type-files value="/home/zen/commonroad-interactive-benchmarks/install/commonroad-map-tool/crmapconverter/sumo_map/templates/DEU.typ.xml"/>
    </input>

    <output>
        <output-file value="./converted_scenarios/scenario-factory/BEL_Zaventem-5_1_I-1-1/BEL_Zaventem-5_1_I-1-1.net.xml"/>
    </output>

    <processing>
        <geometry.remove.keep-edges.explicit value="true"/>
        <geometry.avoid-overlap value="true"/>
        <offset.disable-normalization value="true"/>
    </processing>

    <junctions>
        <no-turnarounds value="true"/>
        <junctions.internal-link-detail value="20"/>
    </junctions>

    <report>
        <aggregate-warnings value="5"/>
    </report>

    <random_number>
        <seed value="1234"/>
    </random_number>

</configuration>
--><net xmlns:xsi="http://www.w3.org/2001/XMLSchema-instance" version="1.6" junctionCornerDetail="5" junctionLinkDetail="20" limitTurnSpeed="5.50" xsi:noNamespaceSchemaLocation="http://sumo.dlr.de/xsd/net_file.xsd">

    <location netOffset="0.00,0.00" convBoundary="-848.39,412.04,-629.19,586.80" origBoundary="-848.39,412.04,-629.19,586.80" projParameter="!"/>

    <type id="highway.bridleway" priority="1" speed="2.78" allow="pedestrian" oneway="1" width="2.00"/>
    <type id="highway.bus_guideway" priority="1" speed="27.78" allow="bus" oneway="1"/>
    <type id="highway.cycleway" priority="1" speed="8.33" allow="bicycle" oneway="0" width="1.00"/>
    <type id="highway.footway" priority="1" speed="2.78" allow="pedestrian" oneway="1" width="2.00"/>
    <type id="highway.ford" priority="1" speed="2.78" allow="army" oneway="0"/>
    <type id="highway.living_street" priority="2" speed="2.78" disallow="tram rail_urban rail rail_electric rail_fast ship" oneway="0"/>
    <type id="highway.motorway" priority="14" speed="39.44" allow="private emergency authority army vip passenger hov taxi bus coach delivery truck trailer motorcycle evehicle custom1 custom2" oneway="1"/>
    <type id="highway.motorway_link" priority="9" speed="22.22" allow="private emergency authority army vip passenger hov taxi bus coach delivery truck trailer motorcycle evehicle custom1 custom2" oneway="1"/>
    <type id="highway.path" priority="1" speed="2.78" allow="pedestrian bicycle" oneway="0" width="2.00"/>
    <type id="highway.pedestrian" priority="1" speed="2.78" allow="pedestrian" oneway="1" width="2.00"/>
    <type id="highway.primary" priority="12" speed="27.78" disallow="pedestrian tram rail_urban rail rail_electric rail_fast ship" oneway="0"/>
    <type id="highway.primary_link" priority="7" speed="22.22" disallow="pedestrian tram rail_urban rail rail_electric rail_fast ship" oneway="0"/>
    <type id="highway.raceway" priority="15" speed="83.33" allow="vip" oneway="0"/>
    <type id="highway.residential" priority="3" speed="13.89" disallow="pedestrian tram rail_urban rail rail_electric rail_fast ship" oneway="0"/>
    <type id="highway.secondary" priority="11" speed="27.78" disallow="pedestrian tram rail_urban rail rail_electric rail_fast ship" oneway="0"/>
    <type id="highway.secondary_link" priority="6" speed="22.22" disallow="pedestrian tram rail_urban rail rail_electric rail_fast ship" oneway="0"/>
    <type id="highway.service" priority="1" speed="5.56" allow="pedestrian delivery bicycle" oneway="0"/>
    <type id="highway.stairs" priority="1" speed="1.39" allow="pedestrian" oneway="1" width="2.00"/>
    <type id="highway.step" priority="1" speed="1.39" allow="pedestrian" oneway="1" width="2.00"/>
    <type id="highway.steps" priority="1" speed="1.39" allow="pedestrian" oneway="1" width="2.00"/>
    <type id="highway.tertiary" priority="10" speed="22.22" disallow="pedestrian tram rail_urban rail rail_electric rail_fast ship" oneway="0"/>
    <type id="highway.tertiary_link" priority="5" speed="22.22" disallow="pedestrian tram rail_urban rail rail_electric rail_fast ship" oneway="0"/>
    <type id="highway.track" priority="1" speed="5.56" allow="pedestrian motorcycle moped bicycle" oneway="0"/>
    <type id="highway.trunk" priority="13" speed="27.78" disallow="pedestrian bicycle tram rail_urban rail rail_electric rail_fast ship" oneway="0"/>
    <type id="highway.trunk_link" priority="8" speed="22.22" disallow="pedestrian bicycle tram rail_urban rail rail_electric rail_fast ship" oneway="0"/>
    <type id="highway.unclassified" priority="4" speed="13.89" disallow="pedestrian tram rail_urban rail rail_electric rail_fast ship" oneway="0"/>
    <type id="highway.unsurfaced" priority="1" speed="8.33" disallow="tram rail_urban rail rail_electric rail_fast ship" oneway="0"/>
    <type id="railway.highspeed" priority="21" speed="69.44" allow="rail_fast" oneway="1"/>
    <type id="railway.light_rail" priority="19" speed="27.78" allow="rail_urban" oneway="1"/>
    <type id="railway.preserved" priority="16" speed="27.78" allow="rail" oneway="1"/>
    <type id="railway.rail" priority="20" speed="44.44" allow="rail" oneway="1"/>
    <type id="railway.subway" priority="18" speed="27.78" allow="rail_urban" oneway="1"/>
    <type id="railway.tram" priority="17" speed="13.89" allow="tram" oneway="1"/>

    <edge id=":25_0" function="internal">
        <lane id=":25_0_0" index="0" disallow="pedestrian tram rail_urban rail rail_electric rail_fast ship" speed="12.14" length="27.92" width="3.50" shape="-698.20,509.42 -699.20,509.22 -701.33,508.98 -703.43,509.01 -705.48,509.33 -707.47,509.94 -709.35,510.84 -711.12,511.99 -712.75,513.36 -714.24,514.91 -716.29,517.51 -718.06,520.33 -719.63,523.33"/>
    </edge>
    <edge id=":25_1" function="internal">
        <lane id=":25_1_0" index="0" disallow="pedestrian tram rail_urban rail rail_electric rail_fast ship" speed="36.11" length="42.02" width="3.50" shape="-698.20,509.42 -701.32,508.59 -708.34,506.27 -720.12,501.84 -737.56,494.79"/>
    </edge>
    <edge id=":25_2" function="internal">
        <lane id=":25_2_0" index="0" disallow="pedestrian tram rail_urban rail rail_electric rail_fast ship" speed="12.89" length="36.97" width="3.50" shape="-698.20,509.42 -699.41,509.12 -701.80,508.37 -704.16,507.39 -706.41,506.13 -708.50,504.58 -710.36,502.72 -711.92,500.60 -713.13,498.28 -714.01,495.83 -714.57,493.33 -714.87,490.82 -714.94,488.29 -714.73,484.60 -714.20,480.96"/>
    </edge>
    <edge id=":25_3" function="internal">
        <lane id=":25_3_0" index="0" disallow="pedestrian tram rail_urban rail rail_electric rail_fast ship" speed="11.95" length="31.56" width="3.50" shape="-710.76,481.58 -711.23,484.81 -711.43,488.07 -711.37,490.25 -711.13,492.41 -710.67,494.54 -709.96,496.60 -708.97,498.54 -707.71,500.31 -706.19,501.86 -704.45,503.18 -702.56,504.25 -700.55,505.10 -698.47,505.75 -697.42,506.00"/>
    </edge>
    <edge id=":25_4" function="internal">
        <lane id=":25_4_0" index="0" disallow="pedestrian tram rail_urban rail rail_electric rail_fast ship" speed="36.11" length="42.71" width="3.50" shape="-710.75,481.58 -715.02,504.09 -717.62,516.31 -718.92,521.35 -719.63,523.33"/>
    </edge>
    <edge id=":25_5" function="internal">
        <lane id=":25_5_0" index="0" disallow="pedestrian tram rail_urban rail rail_electric rail_fast ship" speed="11.62" length="36.10" width="3.50" shape="-710.75,481.58 -711.02,482.90 -711.69,485.48 -712.62,488.04 -713.85,490.49 -714.64,491.70 -715.53,492.83 -716.53,493.87 -717.65,494.81 -718.88,495.62 -720.19,496.28 -721.56,496.79 -722.97,497.14 -724.38,497.36 -725.83,497.44 -728.56,497.30 -731.25,496.84 -733.85,496.14 -737.56,494.79"/>
    </edge>
    <edge id=":25_6" function="internal">
        <lane id=":25_6_0" index="0" disallow="pedestrian tram rail_urban rail rail_electric rail_fast ship" speed="10.58" length="29.68" width="3.50" shape="-736.23,491.55 -733.01,492.73 -730.80,493.33 -728.55,493.72 -726.28,493.85 -725.13,493.79 -724.00,493.63 -722.89,493.36 -721.82,492.97 -720.80,492.47 -719.84,491.85 -718.96,491.12 -718.16,490.30 -717.44,489.41 -716.81,488.46 -715.78,486.43 -715.00,484.28 -714.42,482.07 -714.20,480.96"/>
    </edge>
    <edge id=":25_7" function="internal">
        <lane id=":25_7_0" index="0" disallow="pedestrian tram rail_urban rail rail_electric rail_fast ship" speed="36.11" length="41.44" width="3.50" shape="-736.23,491.55 -718.94,498.55 -707.30,502.93 -700.42,505.21 -697.42,506.00"/>
    </edge>
    <edge id=":25_8" function="internal">
        <lane id=":25_8_0" index="0" disallow="pedestrian tram rail_urban rail rail_electric rail_fast ship" speed="13.07" length="41.51" width="3.50" shape="-736.23,491.55 -732.68,493.15 -729.25,494.98 -725.99,497.10 -723.95,498.71 -722.07,500.49 -720.39,502.47 -718.98,504.64 -717.90,507.00 -717.50,508.24 -717.21,509.50 -717.01,510.78 -716.91,513.37 -717.18,515.95 -717.76,518.48 -718.59,520.93 -719.63,523.33"/>
    </edge>
    <edge id=":25_9" function="internal">
        <lane id=":25_9_0" index="0" disallow="pedestrian tram rail_urban rail rail_electric rail_fast ship" speed="12.15" length="35.76" width="3.50" shape="-722.80,521.85 -721.87,519.72 -721.16,517.60 -720.68,515.44 -720.48,513.28 -720.59,511.10 -720.77,510.08 -721.03,509.05 -721.36,508.07 -722.29,506.10 -723.51,504.30 -724.96,502.63 -726.60,501.11 -728.38,499.72 -731.29,497.85 -734.37,496.22 -737.56,494.79"/>
    </edge>
    <edge id=":25_10" function="internal">
        <lane id=":25_10_0" index="0" disallow="pedestrian tram rail_urban rail rail_electric rail_fast ship" speed="36.11" length="41.81" width="3.50" shape="-722.80,521.85 -722.19,520.10 -720.94,515.22 -718.40,503.19 -714.20,480.96"/>
    </edge>
    <edge id=":25_11" function="internal">
        <lane id=":25_11_0" index="0" disallow="pedestrian tram rail_urban rail rail_electric rail_fast ship" speed="13.13" length="32.70" width="3.50" shape="-722.80,521.85 -721.02,518.46 -719.00,515.28 -716.66,512.33 -714.89,510.54 -712.95,508.95 -710.83,507.61 -708.55,506.56 -706.14,505.85 -703.65,505.50 -701.14,505.48 -698.65,505.76 -697.42,506.00"/>
    </edge>
    <edge id=":26_0" function="internal">
        <lane id=":26_0_0" index="0" disallow="pedestrian tram rail_urban rail rail_electric rail_fast ship" speed="36.11" length="47.72" width="3.50" shape="-735.42,570.11 -758.38,563.61 -781.33,557.11"/>
    </edge>
    <edge id=":26_1" function="internal">
        <lane id=":26_1_0" index="0" disallow="pedestrian tram rail_urban rail rail_electric rail_fast ship" speed="11.64" length="47.55" width="3.50" shape="-735.42,570.11 -740.66,568.45 -744.08,567.13 -747.39,565.57 -748.98,564.67 -750.51,563.67 -751.95,562.54 -753.25,561.25 -754.33,559.78 -755.09,558.12 -755.40,556.32 -755.24,554.50 -754.69,552.76 -753.85,551.14 -752.81,549.63 -751.64,548.23 -750.37,546.91 -747.62,544.50 -744.70,542.29 -741.67,540.25"/>
    </edge>
    <edge id=":26_2" function="internal">
        <lane id=":26_2_0" index="0" disallow="pedestrian tram rail_urban rail rail_electric rail_fast ship" speed="10.54" length="38.68" width="3.50" shape="-739.70,543.14 -742.42,544.97 -744.94,546.88 -747.29,548.96 -748.33,550.04 -749.29,551.19 -750.10,552.37 -750.72,553.59 -751.11,554.82 -751.20,556.04 -750.97,557.21 -750.43,558.33 -749.62,559.38 -748.61,560.36 -747.45,561.26 -746.19,562.08 -744.86,562.82 -742.01,564.16 -739.06,565.29 -734.46,566.74"/>
    </edge>
    <edge id=":26_3" function="internal">
        <lane id=":26_3_0" index="0" disallow="pedestrian tram rail_urban rail rail_electric rail_fast ship" speed="20.25" length="45.01" width="3.50" shape="-739.69,543.14 -746.31,547.20 -752.07,550.37 -756.99,552.77 -762.05,554.87 -766.21,556.25 -769.39,557.06 -772.63,557.60 -775.91,557.80 -778.10,557.70 -780.27,557.37 -781.33,557.11"/>
    </edge>
    <edge id=":26_4" function="internal">
        <lane id=":26_4_0" index="0" disallow="pedestrian tram rail_urban rail rail_electric rail_fast ship" speed="19.58" length="41.97" width="3.50" shape="-780.40,553.74 -779.50,553.96 -777.58,554.25 -775.65,554.32 -772.67,554.09 -769.69,553.56 -766.75,552.78 -762.86,551.45 -758.08,549.44 -753.41,547.13 -747.92,544.09 -741.67,540.25"/>
    </edge>
    <edge id=":26_5" function="internal">
        <lane id=":26_5_0" index="0" disallow="pedestrian tram rail_urban rail rail_electric rail_fast ship" speed="36.11" length="47.74" width="3.50" shape="-780.40,553.74 -757.43,560.24 -734.46,566.74"/>
    </edge>

    <edge id="21062" from="25" to="26" priority="3" type="highway.residential" spreadType="center" length="28.52" shape="-715.63,502.14 -750.73,556.18">
        <lane id="21062_0" index="0" disallow="pedestrian tram rail_urban rail rail_electric rail_fast ship" speed="36.11" length="28.52" width="3.50" customShape="1" shape="-719.63,523.33 -719.86,523.79 -721.22,526.05 -723.19,528.54 -729.48,534.96 -732.09,537.58 -735.41,540.21 -739.76,543.18"/>
    </edge>
    <edge id="21063" from="26" to="25" priority="3" type="highway.residential" spreadType="center" length="26.64" shape="-753.67,554.27 -718.57,500.23">
        <lane id="21063_0" index="0" disallow="pedestrian tram rail_urban rail rail_electric rail_fast ship" speed="36.11" length="26.64" width="3.50" customShape="1" shape="-741.67,540.25 -737.53,537.43 -734.46,535.00 -732.01,532.54 -725.98,526.40 -724.18,524.19 -722.96,522.17 -722.77,521.79"/>
    </edge>
    <edge id="21065" from="22" to="25" priority="3" type="highway.residential" spreadType="center" length="70.00" shape="-698.51,412.66 -715.39,501.55">
        <lane id="21065_0" index="0" disallow="pedestrian tram rail_urban rail rail_electric rail_fast ship" speed="36.11" length="70.00" width="3.50" customShape="1" shape="-698.51,412.66 -703.53,440.95 -710.76,481.58"/>
    </edge>
    <edge id="21066" from="25" to="5" priority="3" type="highway.residential" spreadType="center" length="70.00" shape="-718.82,500.89 -701.95,412.04">
        <lane id="21066_0" index="0" disallow="pedestrian tram rail_urban rail rail_electric rail_fast ship" speed="36.11" length="70.00" width="3.50" customShape="1" shape="-714.20,480.96 -706.98,440.33 -701.95,412.04"/>
    </edge>
    <edge id="21217" from="26" to="18" priority="3" type="highway.residential" spreadType="center" length="70.01" shape="-751.63,553.53 -666.55,583.41">
        <lane id="21217_0" index="0" disallow="pedestrian tram rail_urban rail rail_electric rail_fast ship" speed="36.11" length="70.01" width="3.50" customShape="1" shape="-734.46,566.74 -705.05,575.22 -691.47,578.85 -683.63,580.60 -673.25,582.40 -666.55,583.41"/>
    </edge>
    <edge id="21218" from="23" to="26" priority="3" type="highway.residential" spreadType="center" length="70.00" shape="-667.53,586.80 -752.79,556.83">
        <lane id="21218_0" index="0" disallow="pedestrian tram rail_urban rail rail_electric rail_fast ship" speed="36.11" length="70.00" width="3.50" customShape="1" shape="-667.53,586.80 -673.74,585.87 -684.23,584.05 -692.18,582.28 -705.87,578.63 -735.43,570.11"/>
    </edge>
    <edge id="21220" from="24" to="26" priority="3" type="highway.residential" spreadType="center" length="70.02" shape="-847.46,533.74 -751.79,553.48">
        <lane id="21220_0" index="0" disallow="pedestrian tram rail_urban rail rail_electric rail_fast ship" speed="36.11" length="70.02" width="3.50" customShape="1" shape="-847.46,533.74 -839.84,536.55 -829.79,539.79 -815.75,543.80 -780.38,553.74"/>
    </edge>
    <edge id="21221" from="26" to="20" priority="3" type="highway.residential" spreadType="center" length="70.00" shape="-752.50,556.91 -848.39,537.13">
        <lane id="21221_0" index="0" disallow="pedestrian tram rail_urban rail rail_electric rail_fast ship" speed="36.11" length="70.00" width="3.50" customShape="1" shape="-781.33,557.11 -816.77,547.15 -830.86,543.12 -841.00,539.85 -848.39,537.13"/>
    </edge>
    <edge id="21341" from="25" to="3" priority="3" type="highway.residential" spreadType="center" length="70.00" shape="-716.70,499.48 -629.19,521.66">
        <lane id="21341_0" index="0" disallow="pedestrian tram rail_urban rail rail_electric rail_fast ship" speed="36.11" length="70.00" width="3.50" customShape="1" shape="-697.42,506.00 -640.54,519.06 -629.19,521.66"/>
    </edge>
    <edge id="21342" from="19" to="25" priority="3" type="highway.residential" spreadType="center" length="70.00" shape="-629.97,525.08 -717.56,502.87">
        <lane id="21342_0" index="0" disallow="pedestrian tram rail_urban rail rail_electric rail_fast ship" speed="36.11" length="70.00" width="3.50" customShape="1" shape="-629.97,525.08 -641.32,522.47 -698.20,509.42"/>
    </edge>
    <edge id="21432" from="21" to="25" priority="3" type="highway.residential" spreadType="center" length="70.01" shape="-771.31,438.76 -715.78,500.04">
        <lane id="21432_0" index="0" disallow="pedestrian tram rail_urban rail rail_electric rail_fast ship" speed="36.11" length="70.01" width="3.50" customShape="1" shape="-771.31,438.76 -771.37,445.41 -771.13,450.89 -770.57,455.85 -769.72,460.26 -768.65,464.10 -767.25,467.84 -765.52,471.43 -763.72,474.43 -761.93,476.82 -759.88,479.00 -757.22,481.27 -754.35,483.25 -750.88,485.22 -746.37,487.36 -736.22,491.56"/>
    </edge>
    <edge id="21433" from="25" to="7" priority="3" type="highway.residential" spreadType="center" length="70.00" shape="-718.34,502.42 -774.84,442.89">
        <lane id="21433_0" index="0" disallow="pedestrian tram rail_urban rail rail_electric rail_fast ship" speed="36.11" length="70.00" width="3.50" customShape="1" shape="-737.56,494.79 -747.99,490.47 -752.69,488.22 -756.35,486.13 -759.41,484.00 -762.27,481.56 -764.49,479.20 -766.46,476.62 -768.41,473.43 -770.29,469.63 -771.81,465.68 -772.99,461.62 -773.93,456.98 -774.56,451.78 -774.86,446.07 -774.84,442.89"/>
    </edge>

    <junction id="18" type="dead_end" x="-666.55" y="583.41" incLanes="21217_0" intLanes="" shape="-666.29,581.67 -666.81,585.14" rightOfWay="edgePriority"/>
    <junction id="19" type="dead_end" x="-629.97" y="525.08" incLanes="" intLanes="" shape="-629.58,523.37 -630.36,526.78" rightOfWay="edgePriority"/>
    <junction id="20" type="dead_end" x="-848.39" y="537.13" incLanes="21221_0" intLanes="" shape="-849.00,538.77 -847.79,535.49" rightOfWay="edgePriority"/>
    <junction id="21" type="dead_end" x="-771.31" y="438.76" incLanes="" intLanes="" shape="-773.06,438.74 -769.56,438.78" rightOfWay="edgePriority"/>
    <junction id="22" type="dead_end" x="-698.51" y="412.66" incLanes="" intLanes="" shape="-700.23,412.36 -696.78,412.97" rightOfWay="edgePriority"/>
    <junction id="23" type="dead_end" x="-667.53" y="586.80" incLanes="" intLanes="" shape="-667.27,585.07 -667.79,588.53" rightOfWay="edgePriority"/>
    <junction id="24" type="dead_end" x="-847.46" y="533.74" incLanes="" intLanes="" shape="-848.07,535.39 -846.86,532.10" rightOfWay="edgePriority"/>
    <junction id="25" type="priority" x="-717.10" y="501.19" incLanes="21342_0 21065_0 21432_0 21063_0" intLanes=":25_0_0 :25_1_0 :25_2_0 :25_3_0 :25_4_0 :25_5_0 :25_6_0 :25_7_0 :25_8_0 :25_9_0 :25_10_0 :25_11_0" shape="-698.59,511.12 -697.02,504.30 -701.63,502.70 -705.19,500.24 -707.71,496.93 -709.19,492.77 -709.63,487.75 -709.03,481.88 -715.92,480.66 -717.27,485.42 -719.38,488.89 -722.27,491.08 -725.93,491.98 -730.35,491.60 -735.55,489.94 -738.23,496.41 -731.83,499.58 -727.06,503.12 -723.93,507.04 -722.43,511.32 -722.57,515.98 -724.34,521.01 -718.06,524.10 -715.38,519.39 -712.47,515.69 -709.33,513.02 -705.97,511.36 -702.39,510.73">
        <request index="0" response="000000010000" foes="000100010000" cont="0"/>
        <request index="1" response="111000110000" foes="111100110000" cont="0"/>
        <request index="2" response="110011110000" foes="110011110000" cont="0"/>
        <request index="3" response="000000000000" foes="100010000000" cont="0"/>
        <request index="4" response="000000000000" foes="100110000111" cont="0"/>
        <request index="5" response="011000000000" foes="011110000110" cont="0"/>
        <request index="6" response="010000000000" foes="010000000100" cont="0"/>
        <request index="7" response="110000111000" foes="110000111100" cont="0"/>
        <request index="8" response="110000110011" foes="110000110011" cont="0"/>
        <request index="9" response="000000000000" foes="000000100010" cont="0"/>
        <request index="10" response="000000000000" foes="000111100110" cont="0"/>
        <request index="11" response="000000011000" foes="000110011110" cont="0"/>
    </junction>
    <junction id="26" type="priority" x="-752.17" y="555.19" incLanes="21218_0 21062_0 21220_0" intLanes=":26_0_0 :26_1_0 :26_2_0 :26_3_0 :26_4_0 :26_5_0" shape="-735.91,571.79 -733.97,565.06 -738.89,562.88 -742.33,559.78 -744.17,556.08 -744.27,552.10 -742.49,548.16 -738.71,544.58 -742.65,538.80 -750.54,543.83 -757.76,547.74 -764.30,550.51 -770.17,552.16 -775.38,552.67 -779.91,552.06 -781.80,558.80">
        <request index="0" response="000000" foes="001000" cont="0"/>
        <request index="1" response="110000" foes="111000" cont="0"/>
        <request index="2" response="100000" foes="100000" cont="0"/>
        <request index="3" response="100011" foes="100011" cont="0"/>
        <request index="4" response="000000" foes="000010" cont="0"/>
        <request index="5" response="000000" foes="001110" cont="0"/>
    </junction>
    <junction id="3" type="dead_end" x="-629.19" y="521.66" incLanes="21341_0" intLanes="" shape="-628.80,519.96 -629.58,523.37" rightOfWay="edgePriority"/>
    <junction id="5" type="dead_end" x="-701.95" y="412.04" incLanes="21066_0" intLanes="" shape="-703.67,411.74 -700.23,412.35" rightOfWay="edgePriority"/>
    <junction id="7" type="dead_end" x="-774.84" y="442.89" incLanes="21433_0" intLanes="" shape="-776.59,442.88 -773.09,442.90" rightOfWay="edgePriority"/>

    <connection from="21062" to="21217" fromLane="0" toLane="0" contPos="-4.00" shape="-739.76,543.18 -742.42,544.97 -744.94,546.88 -747.29,548.96 -748.33,550.04 -749.29,551.19 -750.10,552.37 -750.72,553.59 -751.11,554.82 -751.20,556.04 -750.97,557.21 -750.43,558.33 -749.62,559.38 -748.61,560.36 -747.45,561.26 -746.19,562.08 -744.86,562.82 -742.01,564.16 -739.06,565.29 -734.46,566.74" via=":26_2_0" dir="r" state="m"/>
    <connection from="21062" to="21221" fromLane="0" toLane="0" contPos="-4.00" shape="-739.76,543.18 -746.31,547.20 -752.07,550.37 -756.99,552.77 -762.05,554.87 -766.21,556.25 -769.39,557.06 -772.63,557.60 -775.91,557.80 -778.10,557.70 -780.27,557.37 -781.33,557.11" via=":26_3_0" dir="l" state="m"/>
    <connection from="21063" to="21433" fromLane="0" toLane="0" contPos="-4.00" shape="-722.80,521.85 -721.87,519.72 -721.16,517.60 -720.68,515.44 -720.48,513.28 -720.59,511.10 -720.77,510.08 -721.03,509.05 -721.36,508.07 -722.29,506.10 -723.51,504.30 -724.96,502.63 -726.60,501.11 -728.38,499.72 -731.29,497.85 -734.37,496.22 -737.56,494.79" via=":25_9_0" dir="r" state="M"/>
    <connection from="21063" to="21066" fromLane="0" toLane="0" contPos="-4.00" shape="-722.80,521.85 -722.19,520.10 -720.94,515.22 -718.40,503.19 -714.20,480.96" via=":25_10_0" dir="s" state="M"/>
    <connection from="21063" to="21341" fromLane="0" toLane="0" contPos="-4.00" shape="-722.80,521.85 -721.02,518.46 -719.00,515.28 -716.66,512.33 -714.89,510.54 -712.95,508.95 -710.83,507.61 -708.55,506.56 -706.14,505.85 -703.65,505.50 -701.14,505.48 -698.65,505.76 -697.42,506.00" via=":25_11_0" dir="l" state="m"/>
    <connection from="21065" to="21341" fromLane="0" toLane="0" contPos="-4.00" shape="-710.76,481.58 -711.23,484.81 -711.43,488.07 -711.37,490.25 -711.13,492.41 -710.67,494.54 -709.96,496.60 -708.97,498.54 -707.71,500.31 -706.19,501.86 -704.45,503.18 -702.56,504.25 -700.55,505.10 -698.47,505.75 -697.42,506.00" via=":25_3_0" dir="r" state="M"/>
    <connection from="21065" to="21062" fromLane="0" toLane="0" contPos="-4.00" shape="-710.76,481.58 -715.02,504.09 -717.62,516.31 -718.92,521.35 -719.63,523.33" via=":25_4_0" dir="s" state="M"/>
    <connection from="21065" to="21433" fromLane="0" toLane="0" contPos="-4.00" shape="-710.76,481.58 -711.02,482.90 -711.69,485.48 -712.62,488.04 -713.85,490.49 -714.64,491.70 -715.53,492.83 -716.53,493.87 -717.65,494.81 -718.88,495.62 -720.19,496.28 -721.56,496.79 -722.97,497.14 -724.38,497.36 -725.83,497.44 -728.56,497.30 -731.25,496.84 -733.85,496.14 -737.56,494.79" via=":25_5_0" dir="l" state="m"/>
    <connection from="21218" to="21221" fromLane="0" toLane="0" contPos="-4.00" shape="-735.43,570.11 -758.38,563.61 -781.33,557.11" via=":26_0_0" dir="s" state="M"/>
    <connection from="21218" to="21063" fromLane="0" toLane="0" contPos="-4.00" shape="-735.43,570.11 -740.66,568.45 -744.08,567.13 -747.39,565.57 -748.98,564.67 -750.51,563.67 -751.95,562.54 -753.25,561.25 -754.33,559.78 -755.09,558.12 -755.40,556.32 -755.24,554.50 -754.69,552.76 -753.85,551.14 -752.81,549.63 -751.64,548.23 -750.37,546.91 -747.62,544.50 -744.70,542.29 -741.67,540.25" via=":26_1_0" dir="l" state="m"/>
    <connection from="21220" to="21063" fromLane="0" toLane="0" contPos="-4.00" shape="-780.40,553.74 -779.50,553.96 -777.58,554.25 -775.65,554.32 -772.67,554.09 -769.69,553.56 -766.75,552.78 -762.86,551.45 -758.08,549.44 -753.41,547.13 -747.92,544.09 -741.67,540.25" via=":26_4_0" dir="r" state="M"/>
    <connection from="21220" to="21217" fromLane="0" toLane="0" contPos="-4.00" shape="-780.40,553.74 -757.43,560.24 -734.46,566.74" via=":26_5_0" dir="s" state="M"/>
    <connection from="21342" to="21062" fromLane="0" toLane="0" contPos="-4.00" shape="-698.20,509.42 -699.20,509.22 -701.33,508.98 -703.43,509.01 -705.48,509.33 -707.47,509.94 -709.35,510.84 -711.12,511.99 -712.75,513.36 -714.24,514.91 -716.29,517.51 -718.06,520.33 -719.63,523.33" via=":25_0_0" dir="r" state="m"/>
    <connection from="21342" to="21433" fromLane="0" toLane="0" contPos="-4.00" shape="-698.20,509.42 -701.32,508.59 -708.34,506.27 -720.12,501.84 -737.56,494.79" via=":25_1_0" dir="s" state="m"/>
    <connection from="21342" to="21066" fromLane="0" toLane="0" contPos="-4.00" shape="-698.20,509.42 -699.41,509.12 -701.80,508.37 -704.16,507.39 -706.41,506.13 -708.50,504.58 -710.36,502.72 -711.92,500.60 -713.13,498.28 -714.01,495.83 -714.57,493.33 -714.87,490.82 -714.94,488.29 -714.73,484.60 -714.20,480.96" via=":25_2_0" dir="l" state="m"/>
    <connection from="21432" to="21066" fromLane="0" toLane="0" contPos="-4.00" shape="-736.23,491.55 -733.01,492.73 -730.80,493.33 -728.55,493.72 -726.28,493.85 -725.13,493.79 -724.00,493.63 -722.89,493.36 -721.82,492.97 -720.80,492.47 -719.84,491.85 -718.96,491.12 -718.16,490.30 -717.44,489.41 -716.81,488.46 -715.78,486.43 -715.00,484.28 -714.42,482.07 -714.20,480.96" via=":25_6_0" dir="r" state="m"/>
    <connection from="21432" to="21341" fromLane="0" toLane="0" contPos="-4.00" shape="-736.23,491.55 -718.94,498.55 -707.30,502.93 -700.42,505.21 -697.42,506.00" via=":25_7_0" dir="s" state="m"/>
    <connection from="21432" to="21062" fromLane="0" toLane="0" contPos="-4.00" shape="-736.23,491.55 -732.68,493.15 -729.25,494.98 -725.99,497.10 -723.95,498.71 -722.07,500.49 -720.39,502.47 -718.98,504.64 -717.90,507.00 -717.50,508.24 -717.21,509.50 -717.01,510.78 -716.91,513.37 -717.18,515.95 -717.76,518.48 -718.59,520.93 -719.63,523.33" via=":25_8_0" dir="l" state="m"/>

    <connection from=":25_0" to="21062" fromLane="0" toLane="0" dir="r" state="M"/>
    <connection from=":25_1" to="21433" fromLane="0" toLane="0" dir="s" state="M"/>
    <connection from=":25_2" to="21066" fromLane="0" toLane="0" dir="l" state="M"/>
    <connection from=":25_3" to="21341" fromLane="0" toLane="0" dir="r" state="M"/>
    <connection from=":25_4" to="21062" fromLane="0" toLane="0" dir="s" state="M"/>
    <connection from=":25_5" to="21433" fromLane="0" toLane="0" dir="l" state="M"/>
    <connection from=":25_6" to="21066" fromLane="0" toLane="0" dir="r" state="M"/>
    <connection from=":25_7" to="21341" fromLane="0" toLane="0" dir="s" state="M"/>
    <connection from=":25_8" to="21062" fromLane="0" toLane="0" dir="l" state="M"/>
    <connection from=":25_9" to="21433" fromLane="0" toLane="0" dir="r" state="M"/>
    <connection from=":25_10" to="21066" fromLane="0" toLane="0" dir="s" state="M"/>
    <connection from=":25_11" to="21341" fromLane="0" toLane="0" dir="l" state="M"/>
    <connection from=":26_0" to="21221" fromLane="0" toLane="0" dir="s" state="M"/>
    <connection from=":26_1" to="21063" fromLane="0" toLane="0" dir="l" state="M"/>
    <connection from=":26_2" to="21217" fromLane="0" toLane="0" dir="r" state="M"/>
    <connection from=":26_3" to="21221" fromLane="0" toLane="0" dir="l" state="M"/>
    <connection from=":26_4" to="21063" fromLane="0" toLane="0" dir="r" state="M"/>
    <connection from=":26_5" to="21217" fromLane="0" toLane="0" dir="s" state="M"/>

</net>