<routes>
	<vehicle depart="0.1" departLane="0" departPos="10.069294404743493" departSpeed="2.5741886" id="311" type="bicycle">
		<route edges=":26_1 21063"/>
	</vehicle>
	<vehicle depart="0.1" departLane="0" departPos="28.26511210044323" departSpeed="1.3454498" id="31" type="passenger">
		<route edges="21062 21221"/>
	</vehicle>
	<vehicle depart="0.1" departLane="0" departPos="64.1348060451394" departSpeed="0.60498895" id="315" type="passenger">
		<route edges="21218 21221"/>
	</vehicle>
	<vehicle depart="0.1" departLane="0" departPos="70.1877570878671" departSpeed="0.82208887" id="321" type="passenger">
		<route edges="21218 21221"/>
	</vehicle>
	<vehicle depart="0.1" departLane="0" departPos="52.43010543908361" departSpeed="0.97510124" id="325" type="passenger">
		<route edges="21218 21221"/>
	</vehicle>
	<vehicle depart="0.1" departLane="0" departPos="16.187324558431225" departSpeed="10.466144" id="343" type="passenger">
		<route edges=":26_4 21063 21066"/>
	</vehicle>
	<vehicle depart="0.1" departLane="0" departPos="69.99023124633106" departSpeed="10.162252" id="348" type="passenger">
		<route edges="21220 21217"/>
	</vehicle>
	<vehicle depart="0.1" departLane="0" departPos="36.63704700055883" departSpeed="11.287922" id="354" type="passenger">
		<route edges="21220 21063"/>
	</vehicle>
	<vehicle depart="0.1" departLane="0" departPos="24.739701446580227" departSpeed="6.5009168" id="355" type="passenger">
		<route edges="21220 21063"/>
	</vehicle>
</routes>
