<!-- generated on Tue Feb  9 22:18:37 2021 by Eclipse SUMO netconvert Version 1.8.0
<configuration xmlns:xsi="http://www.w3.org/2001/XMLSchema-instance" xsi:noNamespaceSchemaLocation="http://sumo.dlr.de/xsd/netconvertConfiguration.xsd">

    <input>
        <node-files value="./converted_scenarios/scenario-factory/DEU_Hennigsdorf-14_4_I-1-1/DEU_Hennigsdorf-14_4_I-1-1.nod.xml"/>
        <edge-files value="./converted_scenarios/scenario-factory/DEU_Hennigsdorf-14_4_I-1-1/DEU_Hennigsdorf-14_4_I-1-1.edg.xml"/>
        <connection-files value="./converted_scenarios/scenario-factory/DEU_Hennigsdorf-14_4_I-1-1/DEU_Hennigsdorf-14_4_I-1-1.con.xml"/>
        <tllogic-files value="./converted_scenarios/scenario-factory/DEU_Hennigsdorf-14_4_I-1-1/DEU_Hennigsdorf-14_4_I-1-1.tll.xml"/>
        <type-files value="/home/zen/commonroad-interactive-benchmarks/install/commonroad-map-tool/crmapconverter/sumo_map/templates/DEU.typ.xml"/>
    </input>

    <output>
        <output-file value="./converted_scenarios/scenario-factory/DEU_Hennigsdorf-14_4_I-1-1/DEU_Hennigsdorf-14_4_I-1-1.net.xml"/>
    </output>

    <processing>
        <geometry.remove.keep-edges.explicit value="true"/>
        <geometry.avoid-overlap value="true"/>
        <offset.disable-normalization value="true"/>
    </processing>

    <junctions>
        <no-turnarounds value="true"/>
        <junctions.internal-link-detail value="20"/>
    </junctions>

    <report>
        <aggregate-warnings value="5"/>
    </report>

    <random_number>
        <seed value="1234"/>
    </random_number>

</configuration>
--><net xmlns:xsi="http://www.w3.org/2001/XMLSchema-instance" version="1.6" junctionCornerDetail="5" junctionLinkDetail="20" limitTurnSpeed="5.50" xsi:noNamespaceSchemaLocation="http://sumo.dlr.de/xsd/net_file.xsd">

    <location netOffset="0.00,0.00" convBoundary="103.53,335.62,376.00,614.57" origBoundary="103.53,335.62,376.00,614.66" projParameter="!"/>

    <type id="highway.bridleway" priority="1" speed="2.78" allow="pedestrian" oneway="1" width="2.00"/>
    <type id="highway.bus_guideway" priority="1" speed="27.78" allow="bus" oneway="1"/>
    <type id="highway.cycleway" priority="1" speed="8.33" allow="bicycle" oneway="0" width="1.00"/>
    <type id="highway.footway" priority="1" speed="2.78" allow="pedestrian" oneway="1" width="2.00"/>
    <type id="highway.ford" priority="1" speed="2.78" allow="army" oneway="0"/>
    <type id="highway.living_street" priority="2" speed="2.78" disallow="tram rail_urban rail rail_electric rail_fast ship" oneway="0"/>
    <type id="highway.motorway" priority="14" speed="39.44" allow="private emergency authority army vip passenger hov taxi bus coach delivery truck trailer motorcycle evehicle custom1 custom2" oneway="1"/>
    <type id="highway.motorway_link" priority="9" speed="22.22" allow="private emergency authority army vip passenger hov taxi bus coach delivery truck trailer motorcycle evehicle custom1 custom2" oneway="1"/>
    <type id="highway.path" priority="1" speed="2.78" allow="pedestrian bicycle" oneway="0" width="2.00"/>
    <type id="highway.pedestrian" priority="1" speed="2.78" allow="pedestrian" oneway="1" width="2.00"/>
    <type id="highway.primary" priority="12" speed="27.78" disallow="pedestrian tram rail_urban rail rail_electric rail_fast ship" oneway="0"/>
    <type id="highway.primary_link" priority="7" speed="22.22" disallow="pedestrian tram rail_urban rail rail_electric rail_fast ship" oneway="0"/>
    <type id="highway.raceway" priority="15" speed="83.33" allow="vip" oneway="0"/>
    <type id="highway.residential" priority="3" speed="13.89" disallow="pedestrian tram rail_urban rail rail_electric rail_fast ship" oneway="0"/>
    <type id="highway.secondary" priority="11" speed="27.78" disallow="pedestrian tram rail_urban rail rail_electric rail_fast ship" oneway="0"/>
    <type id="highway.secondary_link" priority="6" speed="22.22" disallow="pedestrian tram rail_urban rail rail_electric rail_fast ship" oneway="0"/>
    <type id="highway.service" priority="1" speed="5.56" allow="pedestrian delivery bicycle" oneway="0"/>
    <type id="highway.stairs" priority="1" speed="1.39" allow="pedestrian" oneway="1" width="2.00"/>
    <type id="highway.step" priority="1" speed="1.39" allow="pedestrian" oneway="1" width="2.00"/>
    <type id="highway.steps" priority="1" speed="1.39" allow="pedestrian" oneway="1" width="2.00"/>
    <type id="highway.tertiary" priority="10" speed="22.22" disallow="pedestrian tram rail_urban rail rail_electric rail_fast ship" oneway="0"/>
    <type id="highway.tertiary_link" priority="5" speed="22.22" disallow="pedestrian tram rail_urban rail rail_electric rail_fast ship" oneway="0"/>
    <type id="highway.track" priority="1" speed="5.56" allow="pedestrian motorcycle moped bicycle" oneway="0"/>
    <type id="highway.trunk" priority="13" speed="27.78" disallow="pedestrian bicycle tram rail_urban rail rail_electric rail_fast ship" oneway="0"/>
    <type id="highway.trunk_link" priority="8" speed="22.22" disallow="pedestrian bicycle tram rail_urban rail rail_electric rail_fast ship" oneway="0"/>
    <type id="highway.unclassified" priority="4" speed="13.89" disallow="pedestrian tram rail_urban rail rail_electric rail_fast ship" oneway="0"/>
    <type id="highway.unsurfaced" priority="1" speed="8.33" disallow="tram rail_urban rail rail_electric rail_fast ship" oneway="0"/>
    <type id="railway.highspeed" priority="21" speed="69.44" allow="rail_fast" oneway="1"/>
    <type id="railway.light_rail" priority="19" speed="27.78" allow="rail_urban" oneway="1"/>
    <type id="railway.preserved" priority="16" speed="27.78" allow="rail" oneway="1"/>
    <type id="railway.rail" priority="20" speed="44.44" allow="rail" oneway="1"/>
    <type id="railway.subway" priority="18" speed="27.78" allow="rail_urban" oneway="1"/>
    <type id="railway.tram" priority="17" speed="13.89" allow="tram" oneway="1"/>

    <edge id=":25_0" function="internal">
        <lane id=":25_0_0" index="0" disallow="pedestrian tram rail_urban rail rail_electric rail_fast ship" speed="36.11" length="2.94" width="3.50" shape="312.04,528.87 314.63,527.48"/>
    </edge>
    <edge id=":36_0" function="internal">
        <lane id=":36_0_0" index="0" disallow="pedestrian tram rail_urban rail rail_electric rail_fast ship" speed="36.11" length="7.94" width="3.50" shape="318.53,529.31 311.65,533.28"/>
        <lane id=":36_0_1" index="1" disallow="pedestrian tram rail_urban rail rail_electric rail_fast ship" speed="36.11" length="7.95" width="3.50" shape="318.53,529.31 311.53,533.07"/>
    </edge>
    <edge id=":39_0" function="internal">
        <lane id=":39_0_0" index="0" disallow="pedestrian tram rail_urban rail rail_electric rail_fast ship" speed="36.11" length="58.49" width="3.50" shape="258.72,590.45 256.81,558.23 254.95,532.08"/>
    </edge>
    <edge id=":39_1" function="internal">
        <lane id=":39_1_0" index="0" disallow="pedestrian tram rail_urban rail rail_electric rail_fast ship" speed="19.20" length="54.95" width="3.50" shape="262.22,590.26 262.10,584.92 262.33,579.59 262.90,574.83 263.72,570.64 264.88,566.53 266.40,562.54 268.04,559.19 269.97,555.99 272.19,552.99 274.68,550.21 277.41,547.66 280.35,545.36 283.93,543.03"/>
    </edge>
    <edge id=":39_2" function="internal">
        <lane id=":39_2_0" index="0" disallow="pedestrian tram rail_urban rail rail_electric rail_fast ship" speed="18.17" length="49.12" width="3.50" shape="287.48,549.07 283.88,551.37 280.48,553.96 277.71,556.46 275.16,559.20 272.87,562.15 270.88,565.32 269.21,568.66 267.87,572.15 266.85,575.74 266.15,579.42 265.72,583.67 265.64,587.94 265.71,590.07"/>
    </edge>
    <edge id=":39_3" function="internal">
        <lane id=":39_3_0" index="0" disallow="pedestrian tram rail_urban rail rail_electric rail_fast ship" speed="36.11" length="59.05" width="3.50" shape="287.48,549.07 262.04,564.05 236.60,579.03"/>
    </edge>
    <edge id=":39_4" function="internal">
        <lane id=":39_4_0" index="0" disallow="pedestrian tram rail_urban rail rail_electric rail_fast ship" speed="12.05" length="45.02" width="3.50" shape="285.71,546.05 281.57,548.30 277.89,549.95 274.71,551.04 272.10,551.65 269.42,551.94 267.41,551.87 265.43,551.50 263.54,550.79 261.83,549.74 260.33,548.39 259.08,546.81 258.05,545.08 256.99,542.61 256.03,539.39 255.31,535.42 254.95,532.08"/>
    </edge>
    <edge id=":39_5" function="internal">
        <lane id=":39_5_0" index="0" disallow="pedestrian tram rail_urban rail rail_electric rail_fast ship" speed="10.39" length="33.10" width="3.50" shape="261.93,531.55 262.42,535.58 263.19,538.87 264.14,541.40 265.13,543.16 266.42,544.72 267.46,545.59 268.63,546.26 269.90,546.73 271.22,546.98 273.25,547.01 275.25,546.72 277.85,545.97 280.96,544.64 283.93,543.03"/>
    </edge>
    <edge id=":39_6" function="internal">
        <lane id=":39_6_0" index="0" disallow="pedestrian tram rail_urban rail rail_electric rail_fast ship" speed="36.11" length="58.64" width="3.50" shape="261.93,531.55 264.15,563.32 265.71,590.07"/>
    </edge>
    <edge id=":39_7" function="internal">
        <lane id=":39_7_0" index="0" disallow="pedestrian tram rail_urban rail rail_electric rail_fast ship" speed="18.93" length="55.20" width="3.50" shape="258.45,531.81 258.68,537.17 258.55,541.99 258.07,546.79 257.30,551.00 256.18,555.14 254.88,558.66 253.29,562.05 251.39,565.29 249.19,568.33 246.72,571.15 244.01,573.74 241.09,576.09 237.53,578.48 236.60,579.03"/>
    </edge>
    <edge id=":39_8" function="internal">
        <lane id=":39_8_0" index="0" disallow="pedestrian tram rail_urban rail rail_electric rail_fast ship" speed="17.90" length="49.24" width="3.50" shape="233.08,572.98 237.14,570.39 240.55,567.79 243.33,565.28 245.88,562.54 248.18,559.58 250.17,556.41 251.83,553.05 253.15,549.54 254.12,545.93 254.75,542.23 255.09,537.97 255.05,533.68 254.95,532.08"/>
    </edge>
    <edge id=":39_9" function="internal">
        <lane id=":39_9_0" index="0" disallow="pedestrian tram rail_urban rail rail_electric rail_fast ship" speed="36.11" length="59.01" width="3.50" shape="233.08,572.98 258.51,558.01 283.93,543.03"/>
    </edge>
    <edge id=":40_0" function="internal">
        <lane id=":40_0_0" index="0" disallow="pedestrian tram rail_urban rail rail_electric rail_fast ship" speed="11.14" length="28.80" width="3.50" shape="250.19,444.10 249.78,440.80 249.28,438.64 248.56,436.54 247.58,434.55 246.99,433.61 246.32,432.73 245.58,431.90 244.77,431.14 243.90,430.46 242.97,429.85 241.99,429.33 239.93,428.52 237.78,427.99 235.57,427.72 233.36,427.64 231.17,427.73"/>
    </edge>
    <edge id=":40_1" function="internal">
        <lane id=":40_1_0" index="0" disallow="pedestrian tram rail_urban rail rail_electric rail_fast ship" speed="36.11" length="38.54" width="3.50" shape="250.19,444.10 248.80,424.88 247.40,405.66"/>
    </edge>
    <edge id=":40_2" function="internal">
        <lane id=":40_2_0" index="0" disallow="pedestrian tram rail_urban rail rail_electric rail_fast ship" speed="36.11" length="38.52" width="3.50" shape="250.89,405.39 252.29,424.62 253.68,443.81"/>
    </edge>
    <edge id=":40_3" function="internal">
        <lane id=":40_3_0" index="0" disallow="pedestrian tram rail_urban rail rail_electric rail_fast ship" speed="12.22" length="34.06" width="3.50" shape="250.89,405.39 250.96,406.68 250.96,409.22 250.73,411.79 250.21,414.36 249.38,416.84 248.80,418.09 248.13,419.26 247.35,420.38 246.49,421.42 245.53,422.39 244.50,423.26 243.41,424.05 242.24,424.75 239.88,425.86 237.42,426.69 234.90,427.26 231.17,427.73"/>
    </edge>
    <edge id=":40_4" function="internal">
        <lane id=":40_4_0" index="0" disallow="pedestrian tram rail_urban rail rail_electric rail_fast ship" speed="11.22" length="28.52" width="3.50" shape="230.86,424.25 234.14,423.83 236.28,423.35 238.36,422.66 240.34,421.73 241.28,421.16 242.17,420.52 243.01,419.82 243.78,419.04 244.49,418.20 245.11,417.30 245.66,416.34 246.13,415.35 246.83,413.28 247.26,411.13 247.46,408.94 247.46,406.75 247.40,405.66"/>
    </edge>
    <edge id=":40_5" function="internal">
        <lane id=":40_5_0" index="0" disallow="pedestrian tram rail_urban rail rail_electric rail_fast ship" speed="12.14" length="34.41" width="3.50" shape="230.86,424.25 233.43,424.14 236.02,424.23 238.61,424.55 241.19,425.18 243.66,426.16 244.89,426.81 246.04,427.56 247.12,428.41 248.12,429.35 249.04,430.37 249.86,431.45 250.60,432.62 251.76,435.00 252.61,437.49 253.20,440.04 253.68,443.81"/>
    </edge>
    <edge id=":41_0" function="internal">
        <lane id=":41_0_0" index="0" disallow="pedestrian tram rail_urban rail rail_electric rail_fast ship" speed="36.11" length="39.35" width="3.50" shape="200.34,437.23 174.52,452.58 166.44,457.20"/>
    </edge>
    <edge id=":41_1" function="internal">
        <lane id=":41_1_0" index="0" disallow="pedestrian tram rail_urban rail rail_electric rail_fast ship" speed="12.11" length="34.53" width="3.50" shape="200.34,437.23 196.98,439.02 194.57,440.02 192.04,440.78 189.43,441.22 188.04,441.30 186.67,441.26 185.30,441.11 183.95,440.82 182.62,440.41 181.35,439.87 180.13,439.23 178.96,438.47 176.91,436.77 175.10,434.83 173.53,432.73 171.58,429.45"/>
    </edge>
    <edge id=":41_2" function="internal">
        <lane id=":41_2_0" index="0" disallow="pedestrian tram rail_urban rail rail_electric rail_fast ship" speed="11.09" length="28.79" width="3.50" shape="174.67,427.80 176.36,430.65 177.69,432.42 179.19,434.04 180.90,435.45 181.83,436.05 182.81,436.57 183.83,436.99 184.89,437.32 185.98,437.55 187.08,437.67 188.18,437.70 189.29,437.64 191.47,437.27 193.59,436.63 195.64,435.78 198.58,434.21"/>
    </edge>
    <edge id=":41_3" function="internal">
        <lane id=":41_3_0" index="0" disallow="pedestrian tram rail_urban rail rail_electric rail_fast ship" speed="36.11" length="39.31" width="3.50" shape="164.71,454.16 172.77,449.54 198.58,434.21"/>
    </edge>
    <edge id=":42_0" function="internal">
        <lane id=":42_0_0" index="0" disallow="pedestrian tram rail_urban rail rail_electric rail_fast ship" speed="36.11" length="8.03" width="3.50" shape="257.92,494.07 259.02,501.03 259.16,502.00"/>
        <lane id=":42_0_1" index="1" disallow="pedestrian tram rail_urban rail rail_electric rail_fast ship" speed="36.11" length="8.03" width="3.50" shape="256.81,494.15 256.76,502.18"/>
    </edge>
    <edge id=":5_0" function="internal">
        <lane id=":5_0_0" index="0" disallow="pedestrian tram rail_urban rail rail_electric rail_fast ship" speed="36.11" length="2.95" width="3.50" shape="253.15,485.21 252.98,482.26"/>
    </edge>
    <edge id=":9_0" function="internal">
        <lane id=":9_0_0" index="0" disallow="pedestrian tram rail_urban rail rail_electric rail_fast ship" speed="36.11" length="2.94" width="3.50" shape="253.62,514.53 253.45,511.59"/>
    </edge>

    <edge id="1753" from="39" to="18" priority="3" type="highway.residential" spreadType="center" length="14.52" shape="260.88,562.09 224.05,586.33">
        <lane id="1753_0" index="0" disallow="pedestrian tram rail_urban rail rail_electric rail_fast ship" speed="36.11" length="14.52" width="3.50" customShape="1" shape="236.60,579.03 230.33,582.68 224.05,586.33"/>
    </edge>
    <edge id="1755" from="32" to="39" priority="3" type="highway.residential" spreadType="center" length="14.51" shape="221.42,581.78 258.18,557.60">
        <lane id="1755_0" index="0" disallow="pedestrian tram rail_urban rail rail_electric rail_fast ship" speed="36.11" length="14.51" width="3.50" customShape="1" shape="220.53,580.27 226.81,576.62 233.08,572.98"/>
        <lane id="1755_1" index="1" disallow="pedestrian tram rail_urban rail rail_electric rail_fast ship" speed="36.11" length="14.53" width="3.50" customShape="1" shape="222.30,583.29 228.57,579.65 234.86,575.99"/>
    </edge>
    <edge id="1781" from="36" to="39" priority="3" type="highway.residential" spreadType="center" length="28.88" shape="315.03,531.26 261.51,563.76">
        <lane id="1781_0" index="0" disallow="pedestrian tram rail_urban rail rail_electric rail_fast ship" speed="36.11" length="28.88" width="3.50" customShape="1" shape="311.65,533.28 309.82,534.38 302.71,539.19 294.37,544.90 290.51,547.29 288.99,548.18 287.48,549.07"/>
        <lane id="1781_1" index="1" disallow="pedestrian tram rail_urban rail rail_electric rail_fast ship" speed="36.11" length="28.93" width="3.50" customShape="1" shape="311.53,533.07 309.44,534.15 295.19,540.80 289.64,543.75 288.73,544.28 287.22,545.16 285.70,546.06"/>
    </edge>
    <edge id="2047" from="39" to="17" priority="3" type="highway.residential" spreadType="center" length="24.27" shape="261.60,560.44 267.01,614.31">
        <lane id="2047_0" index="0" disallow="pedestrian tram rail_urban rail rail_electric rail_fast ship" speed="36.11" length="24.27" width="3.50" customShape="1" shape="265.71,590.07 266.36,602.18 267.01,614.31"/>
    </edge>
    <edge id="2049" from="33" to="39" priority="3" type="highway.residential" spreadType="center" length="24.25" shape="261.76,614.57 256.36,560.80">
        <lane id="2049_0" index="0" disallow="pedestrian tram rail_urban rail rail_electric rail_fast ship" speed="36.11" length="24.25" width="3.50" customShape="1" shape="260.02,614.67 259.37,602.56 258.72,590.45"/>
        <lane id="2049_1" index="1" disallow="pedestrian tram rail_urban rail rail_electric rail_fast ship" speed="36.11" length="24.26" width="3.50" customShape="1" shape="263.51,614.48 262.86,602.37 262.22,590.25"/>
    </edge>
    <edge id="2180" from="40" to="42" priority="3" type="highway.residential" spreadType="center" length="50.43" shape="245.75,424.82 258.53,498.03">
        <lane id="2180_0" index="0" disallow="pedestrian tram rail_urban rail rail_electric rail_fast ship" speed="36.11" length="50.43" width="3.50" customShape="1" shape="253.68,443.81 255.13,463.67 257.35,494.11"/>
    </edge>
    <edge id="2181" from="5" to="40" priority="3" type="highway.residential" spreadType="center" length="38.29" shape="253.08,483.74 242.31,425.43">
        <lane id="2181_0" index="0" disallow="pedestrian tram rail_urban rail rail_electric rail_fast ship" speed="36.11" length="38.29" width="3.50" customShape="1" shape="252.98,482.26 251.64,463.93 250.19,444.07"/>
    </edge>
    <edge id="2183" from="31" to="40" priority="3" type="highway.residential" spreadType="center" length="70.00" shape="245.45,335.62 245.79,425.19">
        <lane id="2183_0" index="0" disallow="pedestrian tram rail_urban rail rail_electric rail_fast ship" speed="36.11" length="70.00" width="3.50" customShape="1" shape="245.45,335.62 250.89,405.41"/>
    </edge>
    <edge id="2184" from="40" to="15" priority="3" type="highway.residential" spreadType="center" length="70.00" shape="242.29,425.20 241.96,335.87">
        <lane id="2184_0" index="0" disallow="pedestrian tram rail_urban rail rail_electric rail_fast ship" speed="36.11" length="70.00" width="3.50" customShape="1" shape="247.40,405.66 241.96,335.87"/>
    </edge>
    <edge id="2223" from="37" to="36" priority="3" type="highway.residential" spreadType="center" length="66.00">
        <lane id="2223_0" index="0" disallow="pedestrian tram rail_urban rail rail_electric rail_fast ship" speed="36.11" length="66.00" width="3.50" customShape="1" shape="376.00,496.86 375.88,496.92 343.10,515.56 318.53,529.31"/>
    </edge>
    <edge id="2224" from="25" to="26" priority="3" type="highway.residential" spreadType="center" length="68.53">
        <lane id="2224_0" index="0" disallow="pedestrian tram rail_urban rail rail_electric rail_fast ship" speed="36.11" length="68.53" width="3.50" customShape="1" shape="314.63,527.48 341.40,512.50 374.18,493.86 374.31,493.79"/>
    </edge>
    <edge id="2476" from="42" to="39" priority="3" type="highway.residential" spreadType="center" length="29.67" shape="258.53,498.03 263.36,560.60">
        <lane id="2476_0" index="0" disallow="pedestrian tram rail_urban rail rail_electric rail_fast ship" speed="36.11" length="29.67" width="3.50" customShape="1" shape="259.69,501.96 261.21,522.06 261.93,531.55"/>
        <lane id="2476_1" index="1" disallow="pedestrian tram rail_urban rail rail_electric rail_fast ship" speed="36.11" length="29.69" width="3.50" customShape="1" shape="256.20,502.22 257.72,522.32 258.45,531.82"/>
    </edge>
    <edge id="2478" from="39" to="9" priority="3" type="highway.residential" spreadType="center" length="17.60" shape="258.13,560.90 253.51,513.06">
        <lane id="2478_0" index="0" disallow="pedestrian tram rail_urban rail rail_electric rail_fast ship" speed="36.11" length="17.60" width="3.50" customShape="1" shape="254.95,532.08 254.23,522.59 253.62,514.53"/>
    </edge>
    <edge id="2486" from="41" to="27" priority="3" type="highway.residential" spreadType="center" length="69.99" shape="180.38,441.45 105.26,491.20">
        <lane id="2486_0" index="0" disallow="pedestrian tram rail_urban rail rail_electric rail_fast ship" speed="36.11" length="69.99" width="3.50" customShape="1" shape="166.44,457.20 128.56,478.25 105.26,491.20"/>
    </edge>
    <edge id="2487" from="35" to="41" priority="3" type="highway.residential" spreadType="center" length="70.03" shape="103.53,488.16 178.45,438.53">
        <lane id="2487_0" index="0" disallow="pedestrian tram rail_urban rail rail_electric rail_fast ship" speed="36.11" length="70.03" width="3.50" customShape="1" shape="103.53,488.16 126.86,475.20 164.74,454.14"/>
    </edge>
    <edge id="2489" from="40" to="41" priority="3" type="highway.residential" spreadType="center" length="32.66" shape="244.43,426.86 179.73,441.72">
        <lane id="2489_0" index="0" disallow="pedestrian tram rail_urban rail rail_electric rail_fast ship" speed="36.11" length="32.66" width="3.50" customShape="1" shape="231.17,427.73 227.21,428.09 221.84,428.85 217.50,429.77 213.24,431.02 209.10,432.63 205.09,434.54 200.30,437.25"/>
    </edge>
    <edge id="2490" from="41" to="40" priority="3" type="highway.residential" spreadType="center" length="34.18" shape="178.95,438.31 243.65,423.45">
        <lane id="2490_0" index="0" disallow="pedestrian tram rail_urban rail rail_electric rail_fast ship" speed="36.11" length="34.18" width="3.50" customShape="1" shape="198.58,434.21 203.50,431.43 207.72,429.41 212.09,427.71 216.59,426.39 221.17,425.41 226.78,424.62 230.89,424.25"/>
    </edge>
    <edge id="2723" from="34" to="41" priority="3" type="highway.residential" spreadType="center" length="70.02" shape="142.12,365.83 180.95,439.22">
        <lane id="2723_0" index="0" disallow="pedestrian tram rail_urban rail rail_electric rail_fast ship" speed="36.11" length="70.02" width="3.50" customShape="1" shape="142.12,365.83 174.68,427.82"/>
    </edge>
    <edge id="2724" from="41" to="28" priority="3" type="highway.residential" spreadType="center" length="70.00" shape="177.86,440.86 139.03,367.48">
        <lane id="2724_0" index="0" disallow="pedestrian tram rail_urban rail rail_electric rail_fast ship" speed="36.11" length="70.00" width="3.50" customShape="1" shape="171.58,429.45 139.03,367.48"/>
    </edge>
    <edge id="3961" from="39" to="25" priority="3" type="highway.residential" spreadType="center" length="31.49" shape="258.95,559.18 313.35,528.19">
        <lane id="3961_0" index="0" disallow="pedestrian tram rail_urban rail rail_electric rail_fast ship" speed="36.11" length="31.49" width="3.50" customShape="1" shape="283.93,543.03 285.44,542.15 286.96,541.25 287.90,540.71 293.53,537.72 307.81,531.05 312.04,528.87"/>
    </edge>
    <edge id="4331" from="9" to="5" priority="3" type="highway.residential" spreadType="center" length="26.39">
        <lane id="4331_0" index="0" disallow="pedestrian tram rail_urban rail rail_electric rail_fast ship" speed="36.11" length="26.39" width="3.50" customShape="1" shape="253.45,511.59 253.23,506.71 253.34,489.94 253.15,485.21"/>
    </edge>

    <junction id="15" type="dead_end" x="241.96" y="335.87" incLanes="2184_0" intLanes="" shape="240.21,336.01 243.70,335.73" rightOfWay="edgePriority"/>
    <junction id="17" type="dead_end" x="267.01" y="614.31" incLanes="2047_0" intLanes="" shape="268.75,614.22 265.26,614.40" rightOfWay="edgePriority"/>
    <junction id="18" type="dead_end" x="224.05" y="586.33" incLanes="1753_0" intLanes="" shape="224.93,587.84 223.17,584.81" rightOfWay="edgePriority"/>
    <junction id="25" type="priority" x="313.35" y="528.19" incLanes="3961_0" intLanes=":25_0_0" shape="315.48,529.00 313.78,525.95 311.24,527.32 312.84,530.42" rightOfWay="edgePriority">
        <request index="0" response="0" foes="0" cont="0"/>
    </junction>
    <junction id="26" type="dead_end" x="374.31" y="493.79" incLanes="2224_0" intLanes="" shape="373.46,492.26 375.15,495.32" rightOfWay="edgePriority"/>
    <junction id="27" type="dead_end" x="105.26" y="491.20" incLanes="2486_0" intLanes="" shape="106.11,492.73 104.41,489.67" rightOfWay="edgePriority"/>
    <junction id="28" type="dead_end" x="139.03" y="367.48" incLanes="2724_0" intLanes="" shape="137.48,368.29 140.58,366.66" rightOfWay="edgePriority"/>
    <junction id="31" type="dead_end" x="245.45" y="335.62" incLanes="" intLanes="" shape="243.70,335.76 247.19,335.49" rightOfWay="edgePriority"/>
    <junction id="32" type="dead_end" x="221.42" y="581.78" incLanes="" intLanes="" shape="223.18,584.81 219.66,578.75" rightOfWay="edgePriority"/>
    <junction id="33" type="dead_end" x="261.76" y="614.57" incLanes="" intLanes="" shape="265.26,614.39 258.27,614.76" rightOfWay="edgePriority"/>
    <junction id="34" type="dead_end" x="142.12" y="365.83" incLanes="" intLanes="" shape="140.57,366.64 143.67,365.02" rightOfWay="edgePriority"/>
    <junction id="35" type="dead_end" x="103.53" y="488.16" incLanes="" intLanes="" shape="104.38,489.69 102.68,486.63" rightOfWay="edgePriority"/>
    <junction id="36" type="priority" x="315.03" y="531.26" incLanes="2223_0" intLanes=":36_0_0 :36_0_1" shape="319.38,530.83 317.67,527.78 310.68,531.54 312.50,534.81" rightOfWay="edgePriority">
        <request index="0" response="00" foes="00" cont="0"/>
        <request index="1" response="00" foes="00" cont="0"/>
    </junction>
    <junction id="37" type="dead_end" x="376.00" y="496.86" incLanes="" intLanes="" shape="375.15,495.32 376.84,498.39" rightOfWay="edgePriority"/>
    <junction id="39" type="priority" x="259.86" y="560.67" incLanes="2049_0 2049_1 1781_0 1781_1 2476_0 2476_1 1755_0 1755_1" intLanes=":39_0_0 :39_1_0 :39_2_0 :39_3_0 :39_4_0 :39_5_0 :39_6_0 :39_7_0 :39_8_0 :39_9_0" shape="256.98,590.54 267.46,589.98 267.65,581.59 269.16,573.92 271.99,566.99 276.13,560.79 281.59,555.31 288.37,550.57 283.05,541.53 278.04,543.76 273.58,544.33 269.78,543.32 266.78,540.78 264.71,536.79 263.68,531.41 253.21,532.21 253.17,540.50 251.75,548.08 248.94,554.97 244.75,561.17 239.17,566.67 232.20,571.46 237.48,580.54 242.53,578.31 247.07,577.71 250.93,578.69 253.97,581.19 256.04,585.16">
        <request index="0" response="0000000000" foes="1110011000" cont="0"/>
        <request index="1" response="0001100000" foes="1001111000" cont="0"/>
        <request index="2" response="0001000000" foes="0001000000" cont="0"/>
        <request index="3" response="0011000011" foes="0011000011" cont="0"/>
        <request index="4" response="1111000011" foes="1111000011" cont="0"/>
        <request index="5" response="0000000000" foes="1000000010" cont="0"/>
        <request index="6" response="0000000000" foes="1000011110" cont="0"/>
        <request index="7" response="0000000001" foes="1000011001" cont="0"/>
        <request index="8" response="0000000001" foes="0000010001" cont="0"/>
        <request index="9" response="0011100011" foes="0011110011" cont="0"/>
    </junction>
    <junction id="40" type="priority" x="244.04" y="425.16" incLanes="2181_0 2183_0 2490_0" intLanes=":40_0_0 :40_1_0 :40_2_0 :40_3_0 :40_4_0 :40_5_0" shape="248.45,444.19 255.43,443.68 252.63,405.25 245.66,405.79 245.57,410.49 244.52,414.43 242.51,417.60 239.54,420.00 235.60,421.64 230.70,422.51 231.33,429.48 236.23,429.48 240.32,430.47 243.58,432.43 246.02,435.37 247.64,439.29">
        <request index="0" response="000000" foes="001000" cont="0"/>
        <request index="1" response="000000" foes="111000" cont="0"/>
        <request index="2" response="000000" foes="100000" cont="0"/>
        <request index="3" response="000011" foes="100011" cont="0"/>
        <request index="4" response="000010" foes="000010" cont="0"/>
        <request index="5" response="001110" foes="001110" cont="0"/>
    </junction>
    <junction id="41" type="priority" x="179.39" y="440.01" incLanes="2489_0 2723_0 2487_0" intLanes=":41_0_0 :41_1_0 :41_2_0 :41_3_0" shape="201.16,438.78 197.72,432.68 193.16,434.76 188.98,435.63 185.21,435.29 181.82,433.74 178.83,430.98 176.23,427.01 170.03,430.26 172.00,434.96 172.77,439.26 172.35,443.18 170.73,446.71 167.91,449.85 163.89,452.61 167.29,458.73">
        <request index="0" response="0000" foes="0000" cont="0"/>
        <request index="1" response="1000" foes="1000" cont="0"/>
        <request index="2" response="1000" foes="1000" cont="0"/>
        <request index="3" response="0000" foes="0110" cont="0"/>
    </junction>
    <junction id="42" type="priority" x="258.53" y="498.03" incLanes="2180_0" intLanes=":42_0_0 :42_0_1" shape="254.45,502.35 261.43,501.83 260.76,498.89 259.76,496.92 259.35,495.70 259.09,493.98 255.60,494.24 255.37,497.25 254.68,499.34 254.45,500.61">
        <request index="0" response="00" foes="00" cont="0"/>
        <request index="1" response="00" foes="00" cont="0"/>
    </junction>
    <junction id="5" type="priority" x="253.08" y="483.74" incLanes="4331_0" intLanes=":5_0_0" shape="251.40,485.28 254.89,485.14 254.72,482.14 251.23,482.39" rightOfWay="edgePriority">
        <request index="0" response="0" foes="0" cont="0"/>
    </junction>