<routes>
	<vehicle depart="0.1" departLane="1" departPos="16.346600527462115" departSpeed="0.69398966" id="314" type="bicycle">
		<route edges="2045 1697"/>
	</vehicle>
	<vehicle depart="0.1" departLane="0" departPos="60.64148134554249" departSpeed="0.0" id="31" type="passenger">
		<route edges="1696 2043"/>
	</vehicle>
	<vehicle depart="0.1" departLane="0" departPos="53.78596028426494" departSpeed="0.0" id="36" type="passenger">
		<route edges="1696 2043"/>
	</vehicle>
	<vehicle depart="0.1" departLane="1" departPos="21.268567746595373" departSpeed="0.067453624" id="37" type="passenger">
		<route edges="2045 1697"/>
	</vehicle>
	<vehicle depart="0.1" departLane="0" departPos="2.5" departSpeed="11.279839" id="338" type="passenger">
		<route edges="1697"/>
	</vehicle>
	<vehicle depart="0.1" departLane="0" departPos="19.03447763958924" departSpeed="7.4070121" id="341" type="passenger">
		<route edges=":20_0 2698 2053"/>
	</vehicle>
	<vehicle depart="0.1" departLane="0" departPos="2.5" departSpeed="11.75866" id="342" type="passenger">
		<route edges=":20_4 1697"/>
	</vehicle>
	<vehicle depart="0.1" departLane="0" departPos="2.5" departSpeed="7.4082068" id="343" type="passenger">
		<route edges=":20_0 2698"/>
	</vehicle>
	<vehicle depart="0.1" departLane="0" departPos="69.95378956807974" departSpeed="0.0" id="30" type="truck">
		<route edges="1696 2043"/>
	</vehicle>
	<vehicle depart="0.1" departLane="1" departPos="7.448224312905808" departSpeed="0.06026502" id="322" type="truck">
		<route edges="2045 1697"/>
	</vehicle>
</routes>
