<routes>
	<vehicle depart="0.1" departLane="0" departPos="31.4877994397222" departSpeed="2.4770323" id="312" type="passenger">
		<route edges=":38_4 13563 13460"/>
	</vehicle>
	<vehicle depart="0.1" departLane="0" departPos="34.86322132221153" departSpeed="10.119321" id="330" type="passenger">
		<route edges=":37_3 13508 13511"/>
	</vehicle>
	<vehicle depart="0.1" departLane="0" departPos="24.536993611150955" departSpeed="6.6992669" id="331" type="passenger">
		<route edges="13507 13564 13567"/>
	</vehicle>
	<vehicle depart="0.1" departLane="0" departPos="22.077542405761687" departSpeed="10.618247" id="335" type="passenger">
		<route edges=":37_2 13564 13567"/>
	</vehicle>
	<vehicle depart="0.1" departLane="0" departPos="25.58230077654944" departSpeed="4.2181371" id="336" type="passenger">
		<route edges=":37_1 13460"/>
	</vehicle>
	<vehicle depart="0.1" departLane="0" departPos="13.150526165732659" departSpeed="2.063867" id="337" type="passenger">
		<route edges=":37_1 13460"/>
	</vehicle>
	<vehicle depart="0.1" departLane="0" departPos="7.379364636277647" departSpeed="9.2821558" id="340" type="passenger">
		<route edges=":37_2 13564 13567"/>
	</vehicle>
	<vehicle depart="0.1" departLane="0" departPos="45.619245244643366" departSpeed="7.6949372" id="345" type="passenger">
		<route edges="13461 13564"/>
	</vehicle>
	<vehicle depart="0.1" departLane="0" departPos="32.801767453126324" departSpeed="6.0709855" id="349" type="passenger">
		<route edges="13461 13564"/>
	</vehicle>
	<vehicle depart="0.1" departLane="0" departPos="14.859432764546087" departSpeed="1.651867" id="326" type="motorcycle">
		<route edges="13507 13564"/>
	</vehicle>
</routes>
