<!-- generated on 2020-12-18 16:47:27.847183 by ipykernel_launcher.py v1_2_0+5214-53edc58fcd
-->
<connections>
	<connection contPos="-4.0" from="14" fromLane="0" keepClear="true" to="21" toLane="0"/>
	<connection contPos="-4.0" from="16" fromLane="1" keepClear="true" to="20" toLane="1"/>
	<connection contPos="-4.0" from="16" fromLane="0" keepClear="true" to="20" toLane="0"/>
	<connection contPos="-4.0" from="17" fromLane="0" keepClear="true" to="22" toLane="0"/>
	<connection contPos="-4.0" from="20" fromLane="0" keepClear="true" to="19" toLane="0"/>
	<connection contPos="-4.0" from="21" fromLane="0" keepClear="true" to="17" toLane="0"/>
	<connection contPos="-4.0" from="22" fromLane="0" keepClear="true" to="19" toLane="1"/>
	<connection contPos="-4.0" from="20" fromLane="1" keepClear="true" to="19" toLane="1"/>
</connections>
