<routes>
	<vehicle depart="0.1" departLane="1" departPos="355.8501564547386" departSpeed="19.1757" id="32" type="passenger">
		<route edges="16 20 22 19"/>
	</vehicle>
	<vehicle depart="0.1" departLane="0" departPos="33.216771302028256" departSpeed="21.6726" id="34" type="passenger">
		<route edges="19"/>
	</vehicle>
	<vehicle depart="0.1" departLane="1" departPos="0" departSpeed="22.5614" id="36" type="passenger">
		<route edges="19"/>
	</vehicle>
	<vehicle depart="0.1" departLane="1" departPos="288.64181547465716" departSpeed="24.5589" id="38" type="passenger">
		<route edges="16 20 22 19"/>
	</vehicle>
	<vehicle depart="0.1" departLane="0" departPos="0" departSpeed="19.0265" id="310" type="passenger">
		<route edges="22 20 19"/>
	</vehicle>
	<vehicle depart="0.1" departLane="1" departPos="255.33781587487138" departSpeed="24.5145" id="312" type="passenger">
		<route edges="16 20 19"/>
	</vehicle>
	<vehicle depart="0.1" departLane="0" departPos="220.99344846594312" departSpeed="24.5663" id="314" type="passenger">
		<route edges="16 20 19"/>
	</vehicle>
	<vehicle depart="0.1" departLane="1" departPos="210.68825201333476" departSpeed="25.8999" id="315" type="passenger">
		<route edges="16 20 22 19"/>
	</vehicle>
	<vehicle depart="0.1" departLane="0" departPos="178.18911143810598" departSpeed="25.9133" id="317" type="passenger">
		<route edges="16 20 19"/>
	</vehicle>
	<vehicle depart="0.1" departLane="1" departPos="175.23452462977906" departSpeed="24.5849" id="319" type="passenger">
		<route edges="16 20 22 19"/>
	</vehicle>
	<vehicle depart="0.1" departLane="0" departPos="0" departSpeed="19.4456" id="321" type="passenger">
		<route edges="17 22 20 22 19"/>
	</vehicle>
	<vehicle depart="0.1" departLane="1" departPos="142.24266720575392" departSpeed="23.4379" id="322" type="passenger">
		<route edges="16 20 22 19"/>
	</vehicle>
	<vehicle depart="0.1" departLane="1" departPos="108.49128031836865" departSpeed="20.8313" id="323" type="passenger">
		<route edges="16 20 19"/>
	</vehicle>
	<vehicle depart="0.1" departLane="0" departPos="74.86219129582892" departSpeed="17.0384" id="324" type="passenger">
		<route edges="14 21 17 22 20 19"/>
	</vehicle>
	<vehicle depart="0.1" departLane="0" departPos="117.64939233128345" departSpeed="21.9603" id="325" type="passenger">
		<route edges="16 20 19"/>
	</vehicle>
	<vehicle depart="0.1" departLane="0" departPos="93.61181917923334" departSpeed="20.3834" id="326" type="passenger">
		<route edges="16 20 19"/>
	</vehicle>
	<vehicle depart="0.1" departLane="0" departPos="46.92808867768966" departSpeed="13.3811" id="327" type="passenger">
		<route edges="14 21 17 22 20 22 19"/>
	</vehicle>
	<vehicle depart="0.1" departLane="0" departPos="65.2202307703183" departSpeed="16.4067" id="328" type="passenger">
		<route edges="16 20 19"/>
	</vehicle>
	<vehicle depart="0.1" departLane="1" departPos="83.86414287031324" departSpeed="19.8576" id="329" type="passenger">
		<route edges="16 20 19"/>
	</vehicle>
	<vehicle depart="0.1" departLane="0" departPos="0" departSpeed="10.2974" id="330" type="passenger">
		<route edges="14 21 17 22 20 22 19"/>
	</vehicle>
	<vehicle depart="0.1" departLane="0" departPos="0" departSpeed="6.9449" id="331" type="passenger">
		<route edges="14 21 17 22 19"/>
	</vehicle>
	<vehicle depart="0.1" departLane="0" departPos="0" departSpeed="3.6045" id="332" type="passenger">
		<route edges="14 21 17 22 19"/>
	</vehicle>
</routes>
