<?xml version="1.0" encoding="UTF-8"?>

<!-- generated on 2021-07-09 13:42:05 by Eclipse SUMO netedit Version 1.9.2
<configuration xmlns:xsi="http://www.w3.org/2001/XMLSchema-instance" xsi:noNamespaceSchemaLocation="http://sumo.dlr.de/xsd/netconvertConfiguration.xsd">

    <input>
        <sumo-net-file value="/home/seungju/study/CommonRoad/test/helloworld.net.xml"/>
    </input>

    <output>
        <output-file value="/home/seungju/study/CommonRoad/test/helloworld.net.xml"/>
    </output>

    <processing>
        <geometry.min-radius.fix.railways value="false"/>
        <geometry.max-grade.fix value="false"/>
        <offset.disable-normalization value="true"/>
        <lefthand value="false"/>
    </processing>

    <junctions>
        <no-turnarounds value="true"/>
        <junctions.corner-detail value="5"/>
        <junctions.limit-turn-speed value="5.5"/>
        <rectangular-lane-cut value="false"/>
    </junctions>

    <pedestrian>
        <walkingareas value="false"/>
    </pedestrian>

    <report>
        <aggregate-warnings value="5"/>
    </report>

</configuration>
-->

<net version="1.9" junctionCornerDetail="5" limitTurnSpeed="5.50" xmlns:xsi="http://www.w3.org/2001/XMLSchema-instance" xsi:noNamespaceSchemaLocation="http://sumo.dlr.de/xsd/net_file.xsd">

    <location netOffset="0.00,0.00" convBoundary="0.00,0.00,300.00,0.00" origBoundary="-10000000000.00,-10000000000.00,10000000000.00,10000000000.00" projParameter="!"/>

    <edge id=":gneJ10_0" function="internal">
        <lane id=":gneJ10_0_0" index="0" speed="13.89" length="0.10" shape="250.00,-4.80 250.00,-4.80"/>
        <lane id=":gneJ10_0_1" index="1" speed="13.89" length="0.10" shape="250.00,-1.60 250.00,-1.60"/>
    </edge>
    <edge id=":gneJ6_0" function="internal">
        <lane id=":gneJ6_0_0" index="0" speed="13.89" length="0.10" shape="50.00,-4.80 50.00,-4.80"/>
        <lane id=":gneJ6_0_1" index="1" speed="13.89" length="0.10" shape="50.00,-1.60 50.00,-1.60"/>
    </edge>
    <edge id=":gneJ7_0" function="internal">
        <lane id=":gneJ7_0_0" index="0" speed="13.89" length="0.10" shape="100.00,-4.80 100.00,-4.80"/>
        <lane id=":gneJ7_0_1" index="1" speed="13.89" length="0.10" shape="100.00,-1.60 100.00,-1.60"/>
    </edge>
    <edge id=":gneJ8_0" function="internal">
        <lane id=":gneJ8_0_0" index="0" speed="13.89" length="0.10" shape="150.00,-4.80 150.00,-4.80"/>
        <lane id=":gneJ8_0_1" index="1" speed="13.89" length="0.10" shape="150.00,-1.60 150.00,-1.60"/>
    </edge>
    <edge id=":gneJ9_0" function="internal">
        <lane id=":gneJ9_0_0" index="0" speed="13.89" length="0.10" shape="200.00,-4.80 200.00,-4.80"/>
        <lane id=":gneJ9_0_1" index="1" speed="13.89" length="0.10" shape="200.00,-1.60 200.00,-1.60"/>
    </edge>

    <edge id="gneE3" from="gneJ5" to="gneJ6" priority="-1">
        <lane id="gneE3_0" index="0" speed="13.89" length="50.00" shape="0.00,-4.80 50.00,-4.80"/>
        <lane id="gneE3_1" index="1" speed="13.89" length="50.00" shape="0.00,-1.60 50.00,-1.60"/>
    </edge>
    <edge id="gneE4" from="gneJ6" to="gneJ7" priority="-1">
        <lane id="gneE4_0" index="0" speed="13.89" length="50.00" shape="50.00,-4.80 100.00,-4.80"/>
        <lane id="gneE4_1" index="1" speed="13.89" length="50.00" shape="50.00,-1.60 100.00,-1.60"/>
    </edge>
    <edge id="gneE5" from="gneJ7" to="gneJ8" priority="-1">
        <lane id="gneE5_0" index="0" speed="13.89" length="50.00" shape="100.00,-4.80 150.00,-4.80"/>
        <lane id="gneE5_1" index="1" speed="13.89" length="50.00" shape="100.00,-1.60 150.00,-1.60"/>
    </edge>
    <edge id="gneE6" from="gneJ8" to="gneJ9" priority="-1">
        <lane id="gneE6_0" index="0" speed="13.89" length="50.00" shape="150.00,-4.80 200.00,-4.80"/>
        <lane id="gneE6_1" index="1" speed="13.89" length="50.00" shape="150.00,-1.60 200.00,-1.60"/>
    </edge>
    <edge id="gneE7" from="gneJ9" to="gneJ10" priority="-1">
        <lane id="gneE7_0" index="0" speed="13.89" length="50.00" shape="200.00,-4.80 250.00,-4.80"/>
        <lane id="gneE7_1" index="1" speed="13.89" length="50.00" shape="200.00,-1.60 250.00,-1.60"/>
    </edge>
    <edge id="gneE8" from="gneJ10" to="gneJ11" priority="-1">
        <lane id="gneE8_0" index="0" speed="13.89" length="50.00" shape="250.00,-4.80 300.00,-4.80"/>
        <lane id="gneE8_1" index="1" speed="13.89" length="50.00" shape="250.00,-1.60 300.00,-1.60"/>
    </edge>

    <junction id="gneJ10" type="priority" x="250.00" y="0.00" incLanes="gneE7_0 gneE7_1" intLanes=":gneJ10_0_0 :gneJ10_0_1" shape="250.00,0.00 250.00,-6.40 250.00,0.00">
        <request index="0" response="00" foes="00" cont="0"/>
        <request index="1" response="00" foes="00" cont="0"/>
    </junction>
    <junction id="gneJ11" type="dead_end" x="300.00" y="0.00" incLanes="gneE8_0 gneE8_1" intLanes="" shape="300.00,-6.40 300.00,0.00"/>
    <junction id="gneJ5" type="dead_end" x="0.00" y="0.00" incLanes="" intLanes="" shape="0.00,0.00 0.00,-6.40"/>
    <junction id="gneJ6" type="priority" x="50.00" y="0.00" incLanes="gneE3_0 gneE3_1" intLanes=":gneJ6_0_0 :gneJ6_0_1" shape="50.00,0.00 50.00,-6.40 50.00,0.00">
        <request index="0" response="00" foes="00" cont="0"/>
        <request index="1" response="00" foes="00" cont="0"/>
    </junction>
    <junction id="gneJ7" type="priority" x="100.00" y="0.00" incLanes="gneE4_0 gneE4_1" intLanes=":gneJ7_0_0 :gneJ7_0_1" shape="100.00,0.00 100.00,-6.40 100.00,0.00">
        <request index="0" response="00" foes="00" cont="0"/>
        <request index="1" response="00" foes="00" cont="0"/>
    </junction>
    <junction id="gneJ8" type="priority" x="150.00" y="0.00" incLanes="gneE5_0 gneE5_1" intLanes=":gneJ8_0_0 :gneJ8_0_1" shape="150.00,0.00 150.00,-6.40 150.00,0.00">
        <request index="0" response="00" foes="00" cont="0"/>
        <request index="1" response="00" foes="00" cont="0"/>
    </junction>
    <junction id="gneJ9" type="priority" x="200.00" y="0.00" incLanes="gneE6_0 gneE6_1" intLanes=":gneJ9_0_0 :gneJ9_0_1" shape="200.00,0.00 200.00,-6.40 200.00,0.00">
        <request index="0" response="00" foes="00" cont="0"/>
        <request index="1" response="00" foes="00" cont="0"/>
    </junction>

    <connection from="gneE3" to="gneE4" fromLane="0" toLane="0" via=":gneJ6_0_0" dir="s" state="M"/>
    <connection from="gneE3" to="gneE4" fromLane="1" toLane="1" via=":gneJ6_0_1" dir="s" state="M"/>
    <connection from="gneE4" to="gneE5" fromLane="0" toLane="0" via=":gneJ7_0_0" dir="s" state="M"/>
    <connection from="gneE4" to="gneE5" fromLane="1" toLane="1" via=":gneJ7_0_1" dir="s" state="M"/>
    <connection from="gneE5" to="gneE6" fromLane="0" toLane="0" via=":gneJ8_0_0" dir="s" state="M"/>
    <connection from="gneE5" to="gneE6" fromLane="1" toLane="1" via=":gneJ8_0_1" dir="s" state="M"/>
    <connection from="gneE6" to="gneE7" fromLane="0" toLane="0" via=":gneJ9_0_0" dir="s" state="M"/>
    <connection from="gneE6" to="gneE7" fromLane="1" toLane="1" via=":gneJ9_0_1" dir="s" state="M"/>
    <connection from="gneE7" to="gneE8" fromLane="0" toLane="0" via=":gneJ10_0_0" dir="s" state="M"/>
    <connection from="gneE7" to="gneE8" fromLane="1" toLane="1" via=":gneJ10_0_1" dir="s" state="M"/>

    <connection from=":gneJ10_0" to="gneE8" fromLane="0" toLane="0" dir="s" state="M"/>
    <connection from=":gneJ10_0" to="gneE8" fromLane="1" toLane="1" dir="s" state="M"/>
    <connection from=":gneJ6_0" to="gneE4" fromLane="0" toLane="0" dir="s" state="M"/>
    <connection from=":gneJ6_0" to="gneE4" fromLane="1" toLane="1" dir="s" state="M"/>
    <connection from=":gneJ7_0" to="gneE5" fromLane="0" toLane="0" dir="s" state="M"/>
    <connection from=":gneJ7_0" to="gneE5" fromLane="1" toLane="1" dir="s" state="M"/>
    <connection from=":gneJ8_0" to="gneE6" fromLane="0" toLane="0" dir="s" state="M"/>
    <connection from=":gneJ8_0" to="gneE6" fromLane="1" toLane="1" dir="s" state="M"/>
    <connection from=":gneJ9_0" to="gneE7" fromLane="0" toLane="0" dir="s" state="M"/>
    <connection from=":gneJ9_0" to="gneE7" fromLane="1" toLane="1" dir="s" state="M"/>

</net>
