<?xml version="1.0" encoding="UTF-8"?>

<!-- generated on 2021-07-12 15:51:35 by Eclipse SUMO duarouter Version 1.9.2
<configuration xmlns:xsi="http://www.w3.org/2001/XMLSchema-instance" xsi:noNamespaceSchemaLocation="http://sumo.dlr.de/xsd/duarouterConfiguration.xsd">

    <input>
        <net-file value="/Users/seungju/Documents/SUMOSimulator/./scenarios/interactive/NGSIM/US101/USA_US101-11_10_I-1-1/USA_US101-11_10_I-1-1.net.xml"/>
        <route-files value="/Users/seungju/Documents/SUMOSimulator/./scenarios/interactive/NGSIM/US101/USA_US101-11_10_I-1-1/USA_US101-11_10_I-1-1.trips.xml"/>
    </input>

    <output>
        <output-file value="/Users/seungju/Documents/SUMOSimulator/./scenarios/interactive/NGSIM/US101/USA_US101-11_10_I-1-1/USA_US101-11_10_I-1-1.rou.xml"/>
        <alternatives-output value="/Users/seungju/Documents/SUMOSimulator/./scenarios/interactive/NGSIM/US101/USA_US101-11_10_I-1-1/USA_US101-11_10_I-1-1.rou.alt.xml"/>
    </output>

    <time>
        <begin value="0"/>
        <end value="30"/>
    </time>

    <report>
        <no-warnings value="true"/>
        <ignore-errors value="true"/>
        <no-step-log value="true"/>
    </report>

</configuration>
-->

<routes xmlns:xsi="http://www.w3.org/2001/XMLSchema-instance" xsi:noNamespaceSchemaLocation="http://sumo.dlr.de/xsd/routes_file.xsd">
    <vehicle id="0" depart="0.00" departLane="best" departPos="base" departSpeed="max">
        <route edges="14"/>
    </vehicle>
    <vehicle id="1" depart="1.90" departLane="best" departPos="base" departSpeed="max">
        <route edges="14"/>
    </vehicle>
    <vehicle id="2" depart="3.80" departLane="best" departPos="base" departSpeed="max">
        <route edges="14"/>
    </vehicle>
    <vehicle id="3" depart="5.70" departLane="best" departPos="base" departSpeed="max">
        <route edges="14"/>
    </vehicle>
    <vehicle id="4" depart="7.61" departLane="best" departPos="base" departSpeed="max">
        <route edges="14"/>
    </vehicle>
    <vehicle id="5" depart="9.51" departLane="best" departPos="base" departSpeed="max">
        <route edges="14"/>
    </vehicle>
    <vehicle id="6" depart="11.41" departLane="best" departPos="base" departSpeed="max">
        <route edges="14"/>
    </vehicle>
    <vehicle id="7" depart="13.31" departLane="best" departPos="base" departSpeed="max">
        <route edges="14"/>
    </vehicle>
    <vehicle id="8" depart="15.21" departLane="best" departPos="base" departSpeed="max">
        <route edges="14"/>
    </vehicle>
    <vehicle id="9" depart="17.11" departLane="best" departPos="base" departSpeed="max">
        <route edges="14"/>
    </vehicle>
    <vehicle id="10" depart="19.01" departLane="best" departPos="base" departSpeed="max">
        <route edges="14"/>
    </vehicle>
    <vehicle id="11" depart="20.91" departLane="best" departPos="base" departSpeed="max">
        <route edges="14"/>
    </vehicle>
    <vehicle id="12" depart="22.82" departLane="best" departPos="base" departSpeed="max">
        <route edges="14"/>
    </vehicle>
    <vehicle id="13" depart="24.72" departLane="best" departPos="base" departSpeed="max">
        <route edges="14"/>
    </vehicle>
    <vehicle id="14" depart="26.62" departLane="best" departPos="base" departSpeed="max">
        <route edges="14"/>
    </vehicle>
    <vehicle id="15" depart="28.52" departLane="best" departPos="base" departSpeed="max">
        <route edges="14"/>
    </vehicle>
</routes>
