<?xml version="1.0" encoding="UTF-8"?>

<!-- generated on 2021-07-09 16:03:54 by Eclipse SUMO duarouter Version v1_9_2+0074-09b41fdc2d
<configuration xmlns:xsi="http://www.w3.org/2001/XMLSchema-instance" xsi:noNamespaceSchemaLocation="http://sumo.dlr.de/xsd/duarouterConfiguration.xsd">

    <input>
        <net-file value="/home/seungju/study/CommonRoad/./scenarios/interactive/NGSIM/US101/USA_US101-11_10_I-1-1/USA_US101-11_10_I-1-1.net.xml"/>
        <route-files value="/home/seungju/study/CommonRoad/./scenarios/interactive/NGSIM/US101/USA_US101-11_10_I-1-1/USA_US101-11_10_I-1-1.trips.xml"/>
    </input>

    <output>
        <output-file value="/home/seungju/study/CommonRoad/./scenarios/interactive/NGSIM/US101/USA_US101-11_10_I-1-1/USA_US101-11_10_I-1-1.rou.xml"/>
        <alternatives-output value="/home/seungju/study/CommonRoad/./scenarios/interactive/NGSIM/US101/USA_US101-11_10_I-1-1/USA_US101-11_10_I-1-1.rou.alt.xml"/>
    </output>

    <time>
        <begin value="0"/>
        <end value="30"/>
    </time>

    <report>
        <no-warnings value="true"/>
        <ignore-errors value="true"/>
        <no-step-log value="true"/>
    </report>

</configuration>
-->

<routes xmlns:xsi="http://www.w3.org/2001/XMLSchema-instance" xsi:noNamespaceSchemaLocation="http://sumo.dlr.de/xsd/routes_file.xsd">
    <vehicle id="0" depart="0.00" departLane="best" departPos="base" departSpeed="max">
        <route edges="14"/>
    </vehicle>
    <vehicle id="1" depart="0.95" departLane="best" departPos="base" departSpeed="max">
        <route edges="14"/>
    </vehicle>
    <vehicle id="2" depart="1.90" departLane="best" departPos="base" departSpeed="max">
        <route edges="14"/>
    </vehicle>
    <vehicle id="3" depart="2.85" departLane="best" departPos="base" departSpeed="max">
        <route edges="14"/>
    </vehicle>
    <vehicle id="4" depart="3.80" departLane="best" departPos="base" departSpeed="max">
        <route edges="14"/>
    </vehicle>
    <vehicle id="5" depart="4.75" departLane="best" departPos="base" departSpeed="max">
        <route edges="14"/>
    </vehicle>
    <vehicle id="6" depart="5.70" departLane="best" departPos="base" departSpeed="max">
        <route edges="14"/>
    </vehicle>
    <vehicle id="7" depart="6.65" departLane="best" departPos="base" departSpeed="max">
        <route edges="14"/>
    </vehicle>
    <vehicle id="8" depart="7.61" departLane="best" departPos="base" departSpeed="max">
        <route edges="14"/>
    </vehicle>
    <vehicle id="9" depart="8.56" departLane="best" departPos="base" departSpeed="max">
        <route edges="14"/>
    </vehicle>
    <vehicle id="10" depart="9.51" departLane="best" departPos="base" departSpeed="max">
        <route edges="14"/>
    </vehicle>
    <vehicle id="11" depart="10.46" departLane="best" departPos="base" departSpeed="max">
        <route edges="14"/>
    </vehicle>
    <vehicle id="12" depart="11.41" departLane="best" departPos="base" departSpeed="max">
        <route edges="14"/>
    </vehicle>
    <vehicle id="13" depart="12.36" departLane="best" departPos="base" departSpeed="max">
        <route edges="14"/>
    </vehicle>
    <vehicle id="14" depart="13.31" departLane="best" departPos="base" departSpeed="max">
        <route edges="14"/>
    </vehicle>
    <vehicle id="15" depart="14.26" departLane="best" departPos="base" departSpeed="max">
        <route edges="14"/>
    </vehicle>
    <vehicle id="16" depart="15.21" departLane="best" departPos="base" departSpeed="max">
        <route edges="14"/>
    </vehicle>
    <vehicle id="17" depart="16.16" departLane="best" departPos="base" departSpeed="max">
        <route edges="14"/>
    </vehicle>
    <vehicle id="18" depart="17.11" departLane="best" departPos="base" departSpeed="max">
        <route edges="14"/>
    </vehicle>
    <vehicle id="19" depart="18.06" departLane="best" departPos="base" departSpeed="max">
        <route edges="14"/>
    </vehicle>
    <vehicle id="20" depart="19.01" departLane="best" departPos="base" departSpeed="max">
        <route edges="14"/>
    </vehicle>
    <vehicle id="21" depart="19.96" departLane="best" departPos="base" departSpeed="max">
        <route edges="14"/>
    </vehicle>
    <vehicle id="22" depart="20.91" departLane="best" departPos="base" departSpeed="max">
        <route edges="14"/>
    </vehicle>
    <vehicle id="23" depart="21.87" departLane="best" departPos="base" departSpeed="max">
        <route edges="14"/>
    </vehicle>
    <vehicle id="24" depart="22.82" departLane="best" departPos="base" departSpeed="max">
        <route edges="14"/>
    </vehicle>
    <vehicle id="25" depart="23.77" departLane="best" departPos="base" departSpeed="max">
        <route edges="14"/>
    </vehicle>
    <vehicle id="26" depart="24.72" departLane="best" departPos="base" departSpeed="max">
        <route edges="14"/>
    </vehicle>
    <vehicle id="27" depart="25.67" departLane="best" departPos="base" departSpeed="max">
        <route edges="14"/>
    </vehicle>
    <vehicle id="28" depart="26.62" departLane="best" departPos="base" departSpeed="max">
        <route edges="14"/>
    </vehicle>
    <vehicle id="29" depart="27.57" departLane="best" departPos="base" departSpeed="max">
        <route edges="14"/>
    </vehicle>
    <vehicle id="30" depart="28.52" departLane="best" departPos="base" departSpeed="max">
        <route edges="14"/>
    </vehicle>
    <vehicle id="31" depart="29.47" departLane="best" departPos="base" departSpeed="max">
        <route edges="14"/>
    </vehicle>
</routes>
