<?xml version="1.0" encoding="UTF-8"?>
<!-- generated on 2021-07-09 16:03:54.835284 by $Id$ v1_9_2+0074-09b41fdc2d
  options: -n /home/seungju/study/CommonRoad/./scenarios/interactive/NGSIM/US101/USA_US101-11_10_I-1-1/USA_US101-11_10_I-1-1.net.xml -o /home/seungju/study/CommonRoad/./scenarios/interactive/NGSIM/US101/USA_US101-11_10_I-1-1/USA_US101-11_10_I-1-1.trips.xml -r /home/seungju/study/CommonRoad/./scenarios/interactive/NGSIM/US101/USA_US101-11_10_I-1-1/USA_US101-11_10_I-1-1.rou.xml -b 0 -e 30 -p 0.950660709192889 <doubleminus>allow-fringe <doubleminus>fringe-factor 1000000000 <doubleminus>trip-attributes=departLane="best" departSpeed="max" departPos="base" 
-->
<routes xmlns:xsi="http://www.w3.org/2001/XMLSchema-instance" xsi:noNamespaceSchemaLocation="http://sumo.dlr.de/xsd/routes_file.xsd">
    <trip id="0" depart="0.00" from="14" to="14" departLane="best" departSpeed="max" departPos="base"/>
    <trip id="1" depart="0.95" from="14" to="14" departLane="best" departSpeed="max" departPos="base"/>
    <trip id="2" depart="1.90" from="14" to="14" departLane="best" departSpeed="max" departPos="base"/>
    <trip id="3" depart="2.85" from="14" to="14" departLane="best" departSpeed="max" departPos="base"/>
    <trip id="4" depart="3.80" from="14" to="14" departLane="best" departSpeed="max" departPos="base"/>
    <trip id="5" depart="4.75" from="14" to="14" departLane="best" departSpeed="max" departPos="base"/>
    <trip id="6" depart="5.70" from="14" to="14" departLane="best" departSpeed="max" departPos="base"/>
    <trip id="7" depart="6.65" from="14" to="14" departLane="best" departSpeed="max" departPos="base"/>
    <trip id="8" depart="7.61" from="14" to="14" departLane="best" departSpeed="max" departPos="base"/>
    <trip id="9" depart="8.56" from="14" to="14" departLane="best" departSpeed="max" departPos="base"/>
    <trip id="10" depart="9.51" from="14" to="14" departLane="best" departSpeed="max" departPos="base"/>
    <trip id="11" depart="10.46" from="14" to="14" departLane="best" departSpeed="max" departPos="base"/>
    <trip id="12" depart="11.41" from="14" to="14" departLane="best" departSpeed="max" departPos="base"/>
    <trip id="13" depart="12.36" from="14" to="14" departLane="best" departSpeed="max" departPos="base"/>
    <trip id="14" depart="13.31" from="14" to="14" departLane="best" departSpeed="max" departPos="base"/>
    <trip id="15" depart="14.26" from="14" to="14" departLane="best" departSpeed="max" departPos="base"/>
    <trip id="16" depart="15.21" from="14" to="14" departLane="best" departSpeed="max" departPos="base"/>
    <trip id="17" depart="16.16" from="14" to="14" departLane="best" departSpeed="max" departPos="base"/>
    <trip id="18" depart="17.11" from="14" to="14" departLane="best" departSpeed="max" departPos="base"/>
    <trip id="19" depart="18.06" from="14" to="14" departLane="best" departSpeed="max" departPos="base"/>
    <trip id="20" depart="19.01" from="14" to="14" departLane="best" departSpeed="max" departPos="base"/>
    <trip id="21" depart="19.96" from="14" to="14" departLane="best" departSpeed="max" departPos="base"/>
    <trip id="22" depart="20.91" from="14" to="14" departLane="best" departSpeed="max" departPos="base"/>
    <trip id="23" depart="21.87" from="14" to="14" departLane="best" departSpeed="max" departPos="base"/>
    <trip id="24" depart="22.82" from="14" to="14" departLane="best" departSpeed="max" departPos="base"/>
    <trip id="25" depart="23.77" from="14" to="14" departLane="best" departSpeed="max" departPos="base"/>
    <trip id="26" depart="24.72" from="14" to="14" departLane="best" departSpeed="max" departPos="base"/>
    <trip id="27" depart="25.67" from="14" to="14" departLane="best" departSpeed="max" departPos="base"/>
    <trip id="28" depart="26.62" from="14" to="14" departLane="best" departSpeed="max" departPos="base"/>
    <trip id="29" depart="27.57" from="14" to="14" departLane="best" departSpeed="max" departPos="base"/>
    <trip id="30" depart="28.52" from="14" to="14" departLane="best" departSpeed="max" departPos="base"/>
    <trip id="31" depart="29.47" from="14" to="14" departLane="best" departSpeed="max" departPos="base"/>
</routes>
