<?xml version="1.0" encoding="UTF-8"?>
<!-- generated on 2021-07-12 15:51:34.970943 by $Id$ UNKNOWN
  options: -n /Users/seungju/Documents/SUMOSimulator/./scenarios/interactive/NGSIM/US101/USA_US101-11_10_I-1-1/USA_US101-11_10_I-1-1.net.xml -o /Users/seungju/Documents/SUMOSimulator/./scenarios/interactive/NGSIM/US101/USA_US101-11_10_I-1-1/USA_US101-11_10_I-1-1.trips.xml -r /Users/seungju/Documents/SUMOSimulator/./scenarios/interactive/NGSIM/US101/USA_US101-11_10_I-1-1/USA_US101-11_10_I-1-1.rou.xml -b 0 -e 30 -p 1.901321418385778 <doubleminus>allow-fringe <doubleminus>fringe-factor 1000000000 <doubleminus>trip-attributes=departLane="best" departSpeed="max" departPos="base" 
-->
<routes xmlns:xsi="http://www.w3.org/2001/XMLSchema-instance" xsi:noNamespaceSchemaLocation="http://sumo.dlr.de/xsd/routes_file.xsd">
    <trip id="0" depart="0.00" from="14" to="14" departLane="best" departSpeed="max" departPos="base"/>
    <trip id="1" depart="1.90" from="14" to="14" departLane="best" departSpeed="max" departPos="base"/>
    <trip id="2" depart="3.80" from="14" to="14" departLane="best" departSpeed="max" departPos="base"/>
    <trip id="3" depart="5.70" from="14" to="14" departLane="best" departSpeed="max" departPos="base"/>
    <trip id="4" depart="7.61" from="14" to="14" departLane="best" departSpeed="max" departPos="base"/>
    <trip id="5" depart="9.51" from="14" to="14" departLane="best" departSpeed="max" departPos="base"/>
    <trip id="6" depart="11.41" from="14" to="14" departLane="best" departSpeed="max" departPos="base"/>
    <trip id="7" depart="13.31" from="14" to="14" departLane="best" departSpeed="max" departPos="base"/>
    <trip id="8" depart="15.21" from="14" to="14" departLane="best" departSpeed="max" departPos="base"/>
    <trip id="9" depart="17.11" from="14" to="14" departLane="best" departSpeed="max" departPos="base"/>
    <trip id="10" depart="19.01" from="14" to="14" departLane="best" departSpeed="max" departPos="base"/>
    <trip id="11" depart="20.91" from="14" to="14" departLane="best" departSpeed="max" departPos="base"/>
    <trip id="12" depart="22.82" from="14" to="14" departLane="best" departSpeed="max" departPos="base"/>
    <trip id="13" depart="24.72" from="14" to="14" departLane="best" departSpeed="max" departPos="base"/>
    <trip id="14" depart="26.62" from="14" to="14" departLane="best" departSpeed="max" departPos="base"/>
    <trip id="15" depart="28.52" from="14" to="14" departLane="best" departSpeed="max" departPos="base"/>
</routes>
