<!-- generated on 2020-12-18 16:01:17.539019 by ipykernel_launcher.py v1_2_0+5214-53edc58fcd
-->
<nodes>
	<node id="1" type="from" x="86.27895" y="119.98310000000001"/>
	<node id="2" type="to" x="76.6982" y="120.3032"/>
	<node id="3" type="to" x="69.24075" y="134.36554999999998"/>
	<node id="4" type="from" x="-23.137349999999998" y="57.739"/>
	<node id="5" type="to" x="-9.118" y="50.77283333333333"/>
	<node id="6" type="to" x="26.13525" y="61.246700000000004"/>
	<node id="7" type="to" x="39.8359" y="82.03611666666666"/>
	<node id="8" type="to" x="43.64858333333333" y="89.62543333333333"/>
	<node id="9" type="to" x="53.54184999999999" y="109.57866666666666"/>
	<node id="10" type="to" x="66.38315" y="135.76931666666667"/>
	<node id="11" type="to" x="-0.77415" y="44.745850000000004"/>
	<node id="12" type="to" x="21.332725" y="33.361725"/>
	<node id="13" type="to" x="35.820025" y="26.155"/>
	<node id="14" type="to" x="50.537650000000006" y="16.89665"/>
	<node id="15" type="to" x="-6.20155" y="30.15115"/>
	<node id="16" type="to" x="-32.360850000000006" y="-39.66845"/>
	<node id="17" type="from" x="55.842175" y="27.692975"/>
	<node id="18" type="to" x="43.578975" y="33.688"/>
	<node id="19" type="to" x="38.43416666666666" y="38.1975"/>
	<node id="20" type="to" x="32.490916666666664" y="41.12778333333333"/>
	<node id="21" type="to" x="25.761375" y="42.55795"/>
	<node id="22" type="to" x="3.674" y="53.56385"/>
	<node id="23" type="to" x="-5.951549999999999" y="58.307249999999996"/>
	<node id="24" type="to" x="-18.351516666666665" y="67.38651666666667"/>
	<node id="25" type="to" x="76.4875" y="115.24315"/>
	<node id="26" type="to" x="86.0683" y="114.92305"/>
	<node id="27" type="from" x="-21.1152875" y="-45.4414"/>
	<node id="28" type="to" x="-17.04635" y="-37.503325"/>
	<node id="29" type="to" x="-10.46752" y="-20.83893"/>
	<node id="30" type="to" x="10.5873" y="21.325840000000003"/>
	<node id="31" type="to" x="15.736783333333335" y="32.399766666666665"/>
	<node id="32" type="to" x="23.0968" y="47.77526666666666"/>
	<node id="33" type="from" x="55.507760000000005" y="141.11158"/>
	<node id="34" type="to" x="42.54912" y="114.73666"/>
	<node id="35" type="to" x="32.78755" y="95.05966000000001"/>
	<node id="36" type="to" x="27.61339166666667" y="88.14408333333334"/>
	<node id="37" type="to" x="16.617175000000003" y="66.04810833333333"/>
	<node id="38" type="to" x="9.285100000000002" y="54.52616666666666"/>
	<node id="39" type="to" x="1.9588" y="39.63198333333333"/>
</nodes>
