<routes>
	<vehicle depart="0.1" departLane="1" departPos="20.997212677129852" departSpeed="0.0" id="39" type="bicycle">
		<route edges="8693 8940"/>
	</vehicle>
	<vehicle depart="0.1" departLane="0" departPos="17.202731386914813" departSpeed="12.411785" id="362" type="bus">
		<route edges=":43_0 8943 8940"/>
	</vehicle>
	<vehicle depart="0.1" departLane="0" departPos="9.345325516258871" departSpeed="0.57568094" id="313" type="passenger">
		<route edges=":40_5 8945"/>
	</vehicle>
	<vehicle depart="0.1" departLane="1" departPos="20.9601516709546" departSpeed="0.0" id="315" type="passenger">
		<route edges="8693 8940"/>
	</vehicle>
	<vehicle depart="0.1" departLane="0" departPos="70.15269018091155" departSpeed="0.80873242" id="318" type="passenger">
		<route edges="8837 8691 9865"/>
	</vehicle>
	<vehicle depart="0.1" departLane="0" departPos="31.104504833762384" departSpeed="0.97134191" id="319" type="passenger">
		<route edges="8941 8945"/>
	</vehicle>
	<vehicle depart="0.1" departLane="1" departPos="23.66824298335523" departSpeed="5.7629852" id="342" type="passenger">
		<route edges="8943 8838"/>
	</vehicle>
	<vehicle depart="0.1" departLane="1" departPos="17.310838822894173" departSpeed="4.5385137" id="356" type="passenger">
		<route edges="8943 8838"/>
	</vehicle>
	<vehicle depart="0.1" departLane="0" departPos="5.347104193072601" departSpeed="19.164607" id="364" type="passenger">
		<route edges="10035 8808"/>
	</vehicle>
	<vehicle depart="0.1" departLane="0" departPos="61.15328899953497" departSpeed="11.850462" id="368" type="passenger">
		<route edges="8807 8943 8838"/>
	</vehicle>
</routes>
