<routes>
	<vehicle depart="0.1" departLane="0" departPos="22.49118572749166" departSpeed="0.0" id="316" type="bicycle">
		<route edges=":29_5 8091"/>
	</vehicle>
	<vehicle depart="0.1" departLane="0" departPos="28.060676749711597" departSpeed="0.0" id="36" type="passenger">
		<route edges=":29_6 8105"/>
	</vehicle>
	<vehicle depart="0.1" departLane="0" departPos="17.270694169647562" departSpeed="0.21749264" id="322" type="passenger">
		<route edges=":29_5 8091"/>
	</vehicle>
	<vehicle depart="0.1" departLane="0" departPos="8.934519033406538" departSpeed="0.0016422834" id="326" type="passenger">
		<route edges=":29_5 8091"/>
	</vehicle>
	<vehicle depart="0.1" departLane="0" departPos="9.449194664197226" departSpeed="0.0" id="332" type="passenger">
		<route edges="8277 8105"/>
	</vehicle>
	<vehicle depart="0.1" departLane="0" departPos="27.314608985396898" departSpeed="4.4758412" id="341" type="passenger">
		<route edges="8269 8142"/>
	</vehicle>
	<vehicle depart="0.1" departLane="0" departPos="28.480370796991235" departSpeed="10.863768" id="349" type="passenger">
		<route edges=":30_0 8269 8105"/>
	</vehicle>
	<vehicle depart="0.1" departLane="0" departPos="21.173511587908898" departSpeed="0.23826151" id="38" type="motorcycle">
		<route edges=":29_5 8091"/>
	</vehicle>
	<vehicle depart="0.1" departLane="0" departPos="15.29163730360875" departSpeed="13.94638" id="334" type="motorcycle">
		<route edges=":29_1 8142"/>
	</vehicle>
	<vehicle depart="0.1" departLane="0" departPos="6.16000472817714" departSpeed="8.7887586" id="336" type="motorcycle">
		<route edges=":29_2 8091 8797"/>
	</vehicle>
</routes>
