<routes>
	<vehicle depart="0.1" departLane="0" departPos="3.3866792527958713" departSpeed="2.3081599" id="37" type="bicycle">
		<route edges=":54_2 459 519 516"/>
	</vehicle>
	<vehicle depart="0.1" departLane="0" departPos="6.165513574631392" departSpeed="0.0" id="312" type="bicycle">
		<route edges="523 10"/>
	</vehicle>
	<vehicle depart="0.1" departLane="0" departPos="69.26456555610051" departSpeed="0.0" id="338" type="bicycle">
		<route edges="8 11"/>
	</vehicle>
	<vehicle depart="0.1" departLane="0" departPos="10.944788589282798" departSpeed="6.9144981" id="365" type="bicycle">
		<route edges="459 519 516"/>
	</vehicle>
	<vehicle depart="0.1" departLane="0" departPos="11.274584816102182" departSpeed="0.22321068" id="336" type="bus">
		<route edges="11 14"/>
	</vehicle>
	<vehicle depart="0.1" departLane="0" departPos="21.119765275749167" departSpeed="13.783417" id="360" type="bus">
		<route edges="457 1433 517 1497"/>
	</vehicle>
	<vehicle depart="0.1" departLane="0" departPos="62.54357795874729" departSpeed="0.00015585599" id="31" type="passenger">
		<route edges="64 463"/>
	</vehicle>
	<vehicle depart="0.1" departLane="0" departPos="14.322104043918936" departSpeed="11.137359" id="32" type="passenger">
		<route edges="10 349"/>
	</vehicle>
	<vehicle depart="0.1" departLane="0" departPos="55.55862614627704" departSpeed="0.0018099642" id="34" type="passenger">
		<route edges="64 463"/>
	</vehicle>
	<vehicle depart="0.1" departLane="0" departPos="14.807000224163316" departSpeed="14.624613" id="36" type="passenger">
		<route edges="460 463"/>
	</vehicle>
	<vehicle depart="0.1" departLane="0" departPos="30.959803473778575" departSpeed="0.019107493" id="39" type="passenger">
		<route edges="459 519"/>
	</vehicle>
	<vehicle depart="0.1" departLane="0" departPos="61.09250248236866" departSpeed="0.0016784527" id="313" type="passenger">
		<route edges="350 11"/>
	</vehicle>
	<vehicle depart="0.1" departLane="0" departPos="16.92446863091339" departSpeed="0.0" id="316" type="passenger">
		<route edges="14 516"/>
	</vehicle>
	<vehicle depart="0.1" departLane="0" departPos="18.582050906340687" departSpeed="0.016803909" id="318" type="passenger">
		<route edges="11 14"/>
	</vehicle>
	<vehicle depart="0.1" departLane="0" departPos="11.664863778147492" departSpeed="0.0" id="320" type="passenger">
		<route edges="523 10"/>
	</vehicle>
	<vehicle depart="0.1" departLane="0" departPos="69.90183925559656" departSpeed="0.0" id="322" type="passenger">
		<route edges="64 459 519"/>
	</vehicle>
	<vehicle depart="0.1" departLane="0" departPos="54.11987852581942" departSpeed="0.014217406" id="324" type="passenger">
		<route edges="350 11"/>
	</vehicle>
	<vehicle depart="0.1" departLane="0" departPos="9.191159100404423" departSpeed="5.1067406" id="327" type="passenger">
		<route edges="517 13 10 7"/>
	</vehicle>
	<vehicle depart="0.1" departLane="0" departPos="46.70372195352714" departSpeed="0.061886039" id="328" type="passenger">
		<route edges="350 11"/>
	</vehicle>
	<vehicle depart="0.1" departLane="0" departPos="5.7869670304356475" departSpeed="0.0031824472" id="329" type="passenger">
		<route edges="14 516"/>
	</vehicle>
	<vehicle depart="0.1" departLane="0" departPos="25.564658156925752" departSpeed="0.0" id="330" type="passenger">
		<route edges="11 14"/>
	</vehicle>
	<vehicle depart="0.1" departLane="0" departPos="12.564725439243116" departSpeed="0.0" id="331" type="passenger">
		<route edges="519 516"/>
	</vehicle>
	<vehicle depart="0.1" departLane="0" departPos="48.42266026506961" departSpeed="0.0096696149" id="334" type="passenger">
		<route edges="64 463"/>
	</vehicle>
	<vehicle depart="0.1" departLane="0" departPos="39.43940828690394" departSpeed="0.166747" id="335" type="passenger">
		<route edges="350 11"/>
	</vehicle>
	<vehicle depart="0.1" departLane="0" departPos="5.517088037575629" departSpeed="0.00034917573" id="339" type="passenger">
		<route edges="519 516"/>
	</vehicle>
	<vehicle depart="0.1" departLane="0" departPos="7.51848908232787" departSpeed="7.3756499" id="342" type="passenger">
		<route edges="1433 517 13 522"/>
	</vehicle>
	<vehicle depart="0.1" departLane="0" departPos="41.11589514913336" departSpeed="0.037477414" id="343" type="passenger">
		<route edges="64 463"/>
	</vehicle>
	<vehicle depart="0.1" departLane="0" departPos="28.136424488100655" departSpeed="11.922757" id="344" type="passenger">
		<route edges="349"/>
	</vehicle>
	<vehicle depart="0.1" departLane="0" departPos="32.313777208500056" departSpeed="0.35302406" id="345" type="passenger">
		<route edges="350 11"/>
	</vehicle>
	<vehicle depart="0.1" departLane="0" departPos="33.85376369405268" departSpeed="0.10146412" id="347" type="passenger">
		<route edges="64 463"/>
	</vehicle>
	<vehicle depart="0.1" departLane="0" departPos="69.0320914347889" departSpeed="0.0" id="352" type="passenger">
		<route edges="8 11"/>
	</vehicle>
	<vehicle depart="0.1" departLane="0" departPos="74.3615791529238" departSpeed="16.286528" id="354" type="passenger">
		<route edges="457 1433 517 13 522"/>
	</vehicle>
	<vehicle depart="0.1" departLane="0" departPos="26.31501890126153" departSpeed="0.23541277" id="355" type="passenger">
		<route edges="64 463"/>
	</vehicle>
	<vehicle depart="0.1" departLane="0" departPos="60.92175454357024" departSpeed="0.62610942" id="358" type="passenger">
		<route edges="8 11"/>
	</vehicle>
	<vehicle depart="0.1" departLane="0" departPos="23.710533628013255" departSpeed="0.14587345" id="359" type="passenger">
		<route edges="459 519"/>
	</vehicle>
	<vehicle depart="0.1" departLane="0" departPos="18.861942441006033" departSpeed="0.81282937" id="361" type="passenger">
		<route edges="350 11"/>
	</vehicle>
	<vehicle depart="0.1" departLane="0" departPos="51.2870668208656" departSpeed="1.9713142" id="363" type="passenger">
		<route edges="8 11"/>
	</vehicle>
	<vehicle depart="0.1" departLane="0" departPos="18.858461041876826" departSpeed="0.43450438" id="364" type="passenger">
		<route edges="64 463"/>
	</vehicle>
	<vehicle depart="0.1" departLane="0" departPos="11.838348152132015" departSpeed="12.95696" id="366" type="passenger">
		<route edges=":53_3 457 1433 517"/>
	</vehicle>
	<vehicle depart="0.1" departLane="0" departPos="40.525578732419" departSpeed="3.0418556" id="368" type="passenger">
		<route edges="8 11"/>
	</vehicle>
	<vehicle depart="0.1" departLane="0" departPos="11.46556974695208" departSpeed="0.65563531" id="372" type="passenger">
		<route edges="64 463"/>
	</vehicle>
	<vehicle depart="0.1" departLane="0" departPos="10.514122257562079" departSpeed="1.0111419" id="374" type="passenger">
		<route edges="350 11"/>
	</vehicle>
	<vehicle depart="0.1" departLane="0" departPos="19.743136102326574" departSpeed="3.9968804" id="375" type="passenger">
		<route edges="8 11"/>
	</vehicle>
	<vehicle depart="0.1" departLane="0" departPos="6.445542593864905" departSpeed="0.078628811" id="377" type="passenger">
		<route edges="462 459"/>
	</vehicle>
	<vehicle depart="0.1" departLane="0" departPos="9.83771010934542" departSpeed="3.26189" id="378" type="passenger">
		<route edges="8 11"/>
	</vehicle>
	<vehicle depart="0.1" departLane="0" departPos="9.989354455155985" departSpeed="0.0" id="33" type="motorcycle">
		<route edges="14 516"/>
	</vehicle>
	<vehicle depart="0.1" departLane="0" departPos="15.802189979412624" departSpeed="11.617043" id="332" type="motorcycle">
		<route edges="13 10 7"/>
	</vehicle>
	<vehicle depart="0.1" departLane="0" departPos="12.896532315710395" departSpeed="0.0" id="340" type="motorcycle">
		<route edges="519 516 1492 456 453"/>
	</vehicle>
	<vehicle depart="0.1" departLane="0" departPos="24.541637199519595" departSpeed="0.57898307" id="353" type="motorcycle">
		<route edges="350 11"/>
	</vehicle>
	<vehicle depart="0.1" departLane="0" departPos="29.10499656505303" departSpeed="3.6713866" id="370" type="motorcycle">
		<route edges="8 11"/>
	</vehicle>
	<vehicle depart="0.1" departLane="0" departPos="21.58741278576902" departSpeed="0.0" id="30" type="truck">
		<route edges="523 10"/>
	</vehicle>
	<vehicle depart="0.1" departLane="0" departPos="70.29480594120548" departSpeed="0.0" id="321" type="truck">
		<route edges="350 11"/>
	</vehicle>
	<vehicle depart="0.1" departLane="0" departPos="15.678296391663205" departSpeed="1.0072613" id="362" type="truck">
		<route edges="459 519"/>
	</vehicle>
	<vehicle depart="0.1" departLane="0" departPos="16.527436327270568" departSpeed="0.0" id="371" type="truck">
		<route edges="462 459"/>
	</vehicle>
</routes>
