<!-- generated on 2020-12-18 16:50:26.766170 by ipykernel_launcher.py v1_2_0+5214-53edc58fcd
-->
<connections>
	<connection contPos="-4.0" from="1413" fromLane="0" keepClear="true" to="1437" toLane="0"/>
	<connection contPos="-4.0" from="1413" fromLane="0" keepClear="true" to="1438" toLane="0"/>
	<connection contPos="-4.0" from="1413" fromLane="0" keepClear="true" to="1439" toLane="0"/>
	<connection contPos="-4.0" from="1413" fromLane="0" keepClear="true" to="1433" toLane="0"/>
	<connection contPos="-4.0" from="1414" fromLane="0" keepClear="true" to="1443" toLane="0"/>
	<connection contPos="-4.0" from="1414" fromLane="0" keepClear="true" to="1431" toLane="0"/>
	<connection contPos="-4.0" from="1414" fromLane="1" keepClear="true" to="1431" toLane="1"/>
	<connection contPos="-4.0" from="1419" fromLane="1" keepClear="true" to="1444" toLane="1"/>
	<connection contPos="-4.0" from="1419" fromLane="0" keepClear="true" to="1444" toLane="0"/>
	<connection contPos="-4.0" from="1421" fromLane="1" keepClear="true" to="1441" toLane="1"/>
	<connection contPos="-4.0" from="1421" fromLane="0" keepClear="true" to="1441" toLane="0"/>
	<connection contPos="-4.0" from="1423" fromLane="0" keepClear="true" to="1434" toLane="0"/>
	<connection contPos="-4.0" from="1423" fromLane="0" keepClear="true" to="1429" toLane="0"/>
	<connection contPos="-4.0" from="1426" fromLane="1" keepClear="true" to="1436" toLane="0"/>
	<connection contPos="-4.0" from="1426" fromLane="1" keepClear="true" to="1435" toLane="1"/>
	<connection contPos="-4.0" from="1426" fromLane="0" keepClear="true" to="1435" toLane="0"/>
	<connection contPos="-4.0" from="1429" fromLane="0" keepClear="true" to="1428" toLane="0"/>
	<connection contPos="-4.0" from="1441" fromLane="1" keepClear="true" to="1419" toLane="1"/>
	<connection contPos="-4.0" from="1431" fromLane="0" keepClear="true" to="1421" toLane="0"/>
	<connection contPos="-4.0" from="1431" fromLane="1" keepClear="true" to="1421" toLane="1"/>
	<connection contPos="-4.0" from="1433" fromLane="0" keepClear="true" to="1417" toLane="0"/>
	<connection contPos="-4.0" from="1434" fromLane="0" keepClear="true" to="1422" toLane="0"/>
	<connection contPos="-4.0" from="1435" fromLane="0" keepClear="true" to="1428" toLane="0"/>
	<connection contPos="-4.0" from="1436" fromLane="0" keepClear="true" to="1422" toLane="0"/>
	<connection contPos="-4.0" from="1437" fromLane="0" keepClear="true" to="1421" toLane="1"/>
	<connection contPos="-4.0" from="1438" fromLane="0" keepClear="true" to="1424" toLane="0"/>
	<connection contPos="-4.0" from="1439" fromLane="0" keepClear="true" to="1417" toLane="1"/>
	<connection contPos="-4.0" from="1444" fromLane="1" keepClear="true" to="1426" toLane="1"/>
	<connection contPos="-4.0" from="1441" fromLane="0" keepClear="true" to="1419" toLane="0"/>
	<connection contPos="-4.0" from="1435" fromLane="1" keepClear="true" to="1428" toLane="1"/>
	<connection contPos="-4.0" from="1443" fromLane="0" keepClear="true" to="1424" toLane="0"/>
	<connection contPos="-4.0" from="1444" fromLane="0" keepClear="true" to="1426" toLane="0"/>
</connections>
