<routes>
	<vehicle depart="0.1" departLane="1" departPos="94.29333951688994" departSpeed="5.3378041" id="1" type="passenger">
		<route edges="26 28 24"/>
	</vehicle>
	<vehicle depart="0.1" departLane="0" departPos="0" departSpeed="13.877449" id="2" type="passenger">
		<route edges="26 27 24"/>
	</vehicle>
	<vehicle depart="0.1" departLane="0" departPos="84.61117703559982" departSpeed="14.85009" id="3" type="passenger">
		<route edges="26 27 24"/>
	</vehicle>
</routes>
