<!-- generated on 2020-12-18 15:57:00.915962 by ipykernel_launcher.py v1_2_0+5214-53edc58fcd
-->
<edges>
	<edge from="1" function="normal" id="43343" length="44.97262093823624" numLanes="3" priority="1" speed="36.11111111111111" spreadType="center" to="2">
		<lane allow="moped bicycle pedestrian custom1 trailer evehicle rail_urban ship private truck vip custom2 authority delivery rail_electric taxi tram army hov coach motorcycle passenger bus rail emergency" index="0" length="44.97262093823624" shape="-5.9492,3.42035 -6.8155,-11.57665 -7.68395,-26.611800000000002 -8.552399999999999,-41.647149999999996" speed="36.11111111111111" width="2.8867804713902303"/>
		<lane allow="moped bicycle pedestrian custom1 trailer evehicle rail_urban ship private truck vip custom2 authority delivery rail_electric taxi tram army hov coach motorcycle passenger bus rail emergency" index="1" length="44.97262093823624" shape="-3.0432,3.2495000000000003 -3.9015000000000004,-11.66825 -4.76645,-26.7012 -5.631399999999999,-41.73435" speed="36.11111111111111" width="2.863676659471177"/>
		<lane allow="moped bicycle pedestrian custom1 trailer evehicle rail_urban ship private truck vip custom2 authority delivery rail_electric taxi tram army hov coach motorcycle passenger bus rail emergency" index="2" length="44.97262093823624" shape="-0.18905000000000005,3.0817 -1.02125,-11.75875 -1.7729,-26.792949999999998 -2.6467,-41.823449999999994" speed="36.11111111111111" width="2.782901214560086"/>
	</edge>
	<edge from="2" function="normal" id="43594" length="10.990047443254952" numLanes="3" priority="1" speed="36.11111111111111" spreadType="center" to="3">
		<lane allow="moped bicycle pedestrian custom1 trailer evehicle rail_urban ship private truck vip custom2 authority delivery rail_electric taxi tram army hov coach motorcycle passenger bus rail emergency" index="0" length="10.990047443254952" shape="-8.552399999999999,-41.647149999999996 -8.87745,-47.173 -9.2025,-52.698949999999996" speed="36.11111111111111" width="2.980925924943456"/>
		<lane allow="moped bicycle pedestrian custom1 trailer evehicle rail_urban ship private truck vip custom2 authority delivery rail_electric taxi tram army hov coach motorcycle passenger bus rail emergency" index="1" length="10.990047443254952" shape="-5.631399999999999,-41.73435 -5.91545,-47.2421 -6.19955,-52.7499" speed="36.11111111111111" width="2.863676659471177"/>
		<lane allow="moped bicycle pedestrian custom1 trailer evehicle rail_urban ship private truck vip custom2 authority delivery rail_electric taxi tram army hov coach motorcycle passenger bus rail emergency" index="2" length="10.990047443254952" shape="-2.6467,-41.823449999999994 -2.9039,-47.31245 -3.1611499999999997,-52.80145" speed="36.11111111111111" width="3.05954023016531"/>
	</edge>
	<edge from="3" function="normal" id="43652" length="14.59998758340906" numLanes="1" priority="1" speed="36.11111111111111" spreadType="center" to="4">
		<lane allow="moped bicycle pedestrian custom1 trailer evehicle rail_urban ship private vip custom2 authority delivery rail_electric taxi tram army hov coach motorcycle passenger rail emergency" index="0" length="14.59998758340906" shape="-3.1611499999999997,-52.80145 -3.24305,-56.171 -2.89565,-58.091499999999996 -2.3853,-59.69855 -1.74125,-61.06245 -0.8611,-62.242549999999994 0.4908,-63.3411 1.92665,-63.764700000000005 3.29825,-63.80335" speed="36.11111111111111" width="2.975085170209417"/>
	</edge>
	<edge from="4" function="normal" id="43602" length="9.339869187790512" numLanes="2" priority="1" speed="36.11111111111111" spreadType="center" to="5">
		<lane allow="moped bicycle pedestrian custom1 trailer evehicle rail_urban ship private truck vip custom2 authority delivery rail_electric taxi tram army hov coach motorcycle passenger bus rail emergency" index="0" length="9.339869187790512" shape="3.1186999999999996,-67.19905 7.9887,-67.16395 12.85865,-67.12889999999999" speed="36.11111111111111" width="3.4616311949715266"/>
		<lane allow="moped bicycle pedestrian custom1 trailer evehicle rail_urban ship private truck vip custom2 authority delivery rail_electric taxi tram army hov coach motorcycle passenger bus rail emergency" index="1" length="9.339869187790512" shape="3.29825,-63.80335 7.9681999999999995,-63.785399999999996 12.63805,-63.767399999999995" speed="36.11111111111111" width="3.27583022911749"/>
	</edge>
	<edge from="5" function="normal" id="43488" length="37.31782429330329" numLanes="2" priority="1" speed="36.11111111111111" spreadType="center" to="6">
		<lane allow="moped bicycle pedestrian custom1 trailer evehicle rail_urban ship private truck vip custom2 authority delivery rail_electric taxi tram army hov coach motorcycle passenger bus rail emergency" index="0" length="37.31782429330329" shape="12.85865,-67.12889999999999 31.40485,-65.91890000000001 50.097300000000004,-64.6993" speed="36.11111111111111" width="3.461624647474073"/>
		<lane allow="moped bicycle pedestrian custom1 trailer evehicle rail_urban ship private truck vip custom2 authority delivery rail_electric taxi tram army hov coach motorcycle passenger bus rail emergency" index="1" length="37.31782429330329" shape="12.63805,-63.767399999999995 31.222949999999997,-62.5549 49.87675,-61.3378" speed="36.11111111111111" width="3.27583022911749"/>
	</edge>
	<edge from="3" function="normal" id="43632" length="16.314607196005706" numLanes="2" priority="1" speed="36.11111111111111" spreadType="center" to="7">
		<lane allow="moped bicycle pedestrian custom1 trailer evehicle rail_urban ship private truck vip custom2 authority delivery rail_electric taxi tram army hov coach motorcycle passenger bus rail emergency" index="0" length="16.314607196005706" shape="-9.2025,-52.698949999999996 -9.38775,-55.848150000000004 -9.5835,-59.1755 -9.760950000000001,-62.192800000000005 -9.9564,-65.51474999999999 -10.165600000000001,-69.07205" speed="36.11111111111111" width="2.988630075803963"/>
		<lane allow="moped bicycle pedestrian custom1 trailer evehicle rail_urban ship private truck vip custom2 authority delivery rail_electric taxi tram army hov coach motorcycle passenger bus rail emergency" index="1" length="16.314607196005706" shape="-6.19955,-52.7499 -6.36095,-55.879999999999995 -6.53055,-59.1655 -6.6861999999999995,-62.18455 -6.85715,-65.49934999999999 -7.0399,-69.04285" speed="36.11111111111111" width="3.0181343127833133"/>
	</edge>
	<edge from="7" function="normal" id="43832" length="7.908935571062966" numLanes="2" priority="1" speed="36.11111111111111" spreadType="center" to="8">
		<lane allow="moped bicycle pedestrian custom1 trailer evehicle rail_urban ship private truck vip custom2 authority delivery rail_electric taxi tram army hov coach motorcycle passenger bus rail emergency" index="0" length="7.908935571062966" shape="-10.165600000000001,-69.07205 -10.38325,-73.02055 -10.600850000000001,-76.969" speed="36.11111111111111" width="2.9417814279786323"/>
		<lane allow="moped bicycle pedestrian custom1 trailer evehicle rail_urban ship private truck vip custom2 authority delivery rail_electric taxi tram army hov coach motorcycle passenger bus rail emergency" index="1" length="7.908935571062966" shape="-7.0399,-69.04285 -7.24855,-73.0966 -7.45725,-77.15025" speed="36.11111111111111" width="3.2491412850167047"/>
	</edge>
	<edge from="8" function="normal" id="43382" length="24.84192312988693" numLanes="2" priority="1" speed="36.11111111111111" spreadType="center" to="9">
		<lane allow="moped bicycle pedestrian custom1 trailer evehicle rail_urban ship private truck vip custom2 authority delivery rail_electric taxi tram army hov coach motorcycle passenger bus rail emergency" index="0" length="24.84192312988693" shape="-10.600850000000001,-76.969 -11.164950000000001,-89.4602 -11.43885,-101.90639999999999" speed="36.11111111111111" width="2.523961832120288"/>
		<lane allow="moped bicycle pedestrian custom1 trailer evehicle rail_urban ship private truck vip custom2 authority delivery rail_electric taxi tram army hov coach motorcycle passenger bus rail emergency" index="1" length="24.84192312988693" shape="-7.45725,-77.15025 -8.1436,-89.46925 -8.75625,-101.95805" speed="36.11111111111111" width="2.842597139940868"/>
	</edge>
	<edge from="9" function="normal" id="43386" length="19.690046078976323" numLanes="2" priority="1" speed="36.11111111111111" spreadType="center" to="10">
		<lane allow="moped bicycle pedestrian custom1 trailer evehicle rail_urban ship private vip custom2 authority delivery rail_electric taxi tram army hov coach motorcycle passenger rail emergency" index="0" length="19.690046078976323" shape="-11.43885,-101.90639999999999 -11.00345,-111.78885 -10.83435,-121.58539999999999" speed="36.11111111111111" width="2.5079225925055977"/>
		<lane allow="moped bicycle pedestrian custom1 trailer evehicle rail_urban ship private truck vip custom2 authority delivery rail_electric taxi tram army hov coach motorcycle passenger bus rail emergency" index="1" length="19.690046078976323" shape="-8.75625,-101.95805 -8.009450000000001,-111.8375 -7.6895500000000006,-121.708" speed="36.11111111111111" width="2.842597139940868"/>
	</edge>
	<edge from="10" function="normal" id="43390" length="7.330307574653031" numLanes="2" priority="1" speed="36.11111111111111" spreadType="center" to="11">
		<lane allow="moped bicycle pedestrian custom1 trailer evehicle rail_urban ship private truck vip custom2 authority delivery rail_electric taxi tram army hov coach motorcycle passenger bus rail emergency" index="0" length="7.330307574653031" shape="-10.83435,-121.58539999999999 -10.80595,-125.25895 -10.777550000000002,-128.93290000000002" speed="36.11111111111111" width="2.3711741922515945"/>
		<lane allow="moped bicycle pedestrian custom1 trailer evehicle rail_urban ship private truck vip custom2 authority delivery rail_electric taxi tram army hov coach motorcycle passenger bus rail emergency" index="1" length="7.330307574653031" shape="-7.6895500000000006,-121.708 -7.75595,-125.37015 -7.8226,-129.0371" speed="36.11111111111111" width="3.5423990571362793"/>
	</edge>
	<edge from="2" function="normal" id="43640" length="19.170174691736392" numLanes="1" priority="1" speed="36.11111111111111" spreadType="center" to="12">
		<lane allow="moped bicycle pedestrian custom1 trailer evehicle rail_urban ship private vip custom2 authority delivery rail_electric taxi tram army hov coach motorcycle passenger rail emergency" index="0" length="19.170174691736392" shape="-8.552399999999999,-41.647149999999996 -8.900400000000001,-47.137 -9.4423,-49.2759 -10.1433,-50.65335 -10.9139,-51.738699999999994 -11.7836,-52.59465 -13.062349999999999,-53.55375 -15.0019,-54.18945 -18.728,-54.143649999999994" speed="36.11111111111111" width="2.6930276270398696"/>
	</edge>
	<edge from="12" function="normal" id="43476" length="12.648755104554658" numLanes="2" priority="1" speed="36.11111111111111" spreadType="center" to="13">
		<lane allow="moped bicycle pedestrian custom1 trailer evehicle rail_urban ship private truck vip custom2 authority delivery rail_electric taxi tram army hov coach motorcycle passenger bus rail emergency" index="0" length="12.648755104554658" shape="-18.728,-54.143649999999994 -25.1391,-54.4298 -31.55025,-54.71595" speed="36.11111111111111" width="3.0957576940064273"/>
		<lane allow="moped bicycle pedestrian custom1 trailer evehicle rail_urban ship private truck vip custom2 authority delivery rail_electric taxi tram army hov coach motorcycle passenger bus rail emergency" index="1" length="12.648755104554658" shape="-18.63475,-57.47815 -24.9559,-57.6802 -31.277050000000003,-57.8822" speed="36.11111111111111" width="3.2602716650610617"/>
	</edge>
	<edge from="13" function="normal" id="43480" length="28.066793631489972" numLanes="2" priority="1" speed="36.11111111111111" spreadType="center" to="14">
		<lane allow="moped bicycle pedestrian custom1 trailer evehicle rail_urban ship private truck vip custom2 authority delivery rail_electric taxi tram army hov coach motorcycle passenger bus rail emergency" index="0" length="28.066793631489972" shape="-31.55025,-54.71595 -38.6443,-55.1358 -45.8294,-56.301249999999996 -52.973349999999996,-57.8678 -59.90995,-60.109849999999994" speed="36.11111111111111" width="3.0957576940064273"/>
		<lane allow="moped bicycle pedestrian custom1 trailer evehicle rail_urban ship private truck vip custom2 authority delivery rail_electric taxi tram army hov coach motorcycle passenger rail emergency" index="1" length="28.066793631489972" shape="-31.277050000000003,-57.8822 -38.188199999999995,-58.4043 -45.23975,-59.48845 -51.938,-61.0276 -58.714,-63.24225" speed="36.11111111111111" width="2.9815458037736042"/>
	</edge>
	<edge from="14" function="normal" id="43484" length="13.765727019304142" numLanes="2" priority="1" speed="36.11111111111111" spreadType="center" to="15">
		<lane allow="moped bicycle pedestrian custom1 trailer evehicle rail_urban ship private truck vip custom2 authority delivery rail_electric taxi tram army hov coach motorcycle passenger bus rail emergency" index="0" length="13.765727019304142" shape="-59.90995,-60.109849999999994 -66.4255,-62.6597 -72.94104999999999,-65.20949999999999" speed="36.11111111111111" width="3.1855224704905134"/>
		<lane allow="moped bicycle pedestrian custom1 trailer evehicle rail_urban ship private truck vip custom2 authority delivery rail_electric taxi tram army hov coach motorcycle passenger bus rail emergency" index="1" length="13.765727019304142" shape="-58.714,-63.24225 -65.1447,-65.69579999999999 -71.5754,-68.14935" speed="36.11111111111111" width="3.2975996012251136"/>
	</edge>
	<edge from="16" function="normal" id="43394" length="7.314459810608899" numLanes="2" priority="1" speed="36.11111111111111" spreadType="center" to="17">
		<lane allow="moped bicycle pedestrian custom1 trailer evehicle rail_urban ship private truck vip custom2 authority delivery rail_electric taxi tram army hov coach motorcycle passenger bus rail emergency" index="0" length="7.314459810608899" shape="-1.3588,-129.2651 -1.1733,-125.61250000000001 -0.9879000000000001,-121.96005" speed="36.11111111111111" width="2.9297530697995695"/>
		<lane allow="moped bicycle pedestrian custom1 trailer evehicle rail_urban ship private truck vip custom2 authority delivery rail_electric taxi tram army hov coach motorcycle passenger bus rail emergency" index="1" length="7.314459810608899" shape="-4.45695,-129.1558 -4.29075,-125.49780000000001 -4.1248000000000005,-121.84469999999999" speed="36.11111111111111" width="3.19308596345291"/>
	</edge>
	<edge from="17" function="normal" id="43400" length="19.771763646549587" numLanes="3" priority="1" speed="36.11111111111111" spreadType="center" to="18">
		<lane allow="moped bicycle pedestrian custom1 trailer evehicle rail_urban ship private truck vip custom2 authority delivery rail_electric taxi tram army hov coach motorcycle passenger bus rail emergency" index="0" length="19.771763646549587" shape="-0.9879000000000001,-121.96005 -0.52035,-112.0803 -0.052750000000000075,-102.20015000000001" speed="36.11111111111111" width="2.914355644048955"/>
		<lane allow="moped bicycle pedestrian custom1 trailer evehicle rail_urban ship private truck vip custom2 authority delivery rail_electric taxi tram army hov coach motorcycle passenger bus rail emergency" index="1" length="19.771763646549587" shape="-4.1248000000000005,-121.84469999999999 -3.4407,-111.9785 -2.96565,-102.10804999999999" speed="36.11111111111111" width="2.914355644048956"/>
		<lane allow="moped bicycle pedestrian custom1 trailer evehicle rail_urban ship private truck vip custom2 authority delivery rail_electric taxi tram army hov coach motorcycle passenger bus rail emergency" index="2" length="19.771763646549587" shape="-4.1248000000000005,-121.84469999999999 -4.89715,-111.9277 -5.878550000000001,-102.0159" speed="36.11111111111111" width="2.9143588059811707"/>
	</edge>
	<edge from="18" function="normal" id="43406" length="24.582552466773617" numLanes="3" priority="1" speed="36.11111111111111" spreadType="center" to="19">
		<lane allow="moped bicycle pedestrian custom1 trailer evehicle rail_urban ship private truck vip custom2 authority delivery rail_electric taxi tram army hov coach motorcycle passenger bus rail emergency" index="0" length="24.582552466773617" shape="-0.052750000000000075,-102.20015000000001 0.58555,-89.90690000000001 1.22255,-77.6507" speed="36.11111111111111" width="2.6833457790601645"/>
		<lane allow="moped bicycle pedestrian custom1 trailer evehicle rail_urban ship private truck vip custom2 authority delivery rail_electric taxi tram army hov coach motorcycle passenger bus rail emergency" index="1" length="24.582552466773617" shape="-2.96565,-102.10804999999999 -2.21995,-89.74585 -1.47845,-77.495" speed="36.11111111111111" width="2.7276221530849902"/>
		<lane allow="moped bicycle pedestrian custom1 trailer evehicle rail_urban ship private truck vip custom2 authority delivery rail_electric taxi tram army hov coach motorcycle passenger bus rail emergency" index="2" length="24.582552466773617" shape="-5.878550000000001,-102.0159 -5.09125,-89.5806 -4.31105,-77.33165" speed="36.11111111111111" width="2.9143588059811707"/>
	</edge>
	<edge from="19" function="normal" id="43838" length="8.327047283399931" numLanes="3" priority="1" speed="36.11111111111111" spreadType="center" to="20">
		<lane allow="moped bicycle pedestrian custom1 trailer evehicle rail_urban ship private truck vip custom2 authority delivery rail_electric taxi tram army hov coach motorcycle passenger bus rail emergency" index="0" length="8.327047283399931" shape="1.22255,-77.6507 1.4566,-73.306 1.6906999999999999,-68.96135" speed="36.11111111111111" width="2.671116060750637"/>
		<lane allow="moped bicycle pedestrian custom1 trailer evehicle rail_urban ship private truck vip custom2 authority delivery rail_electric taxi tram army hov coach motorcycle passenger bus rail emergency" index="1" length="8.327047283399931" shape="-1.47845,-77.495 -1.2570000000000001,-73.24085 -1.03555,-68.98679999999999" speed="36.11111111111111" width="2.7276221530849902"/>
		<lane allow="moped bicycle pedestrian custom1 trailer evehicle rail_urban ship private truck vip custom2 authority delivery rail_electric taxi tram army hov coach motorcycle passenger bus rail emergency" index="2" length="8.327047283399931" shape="-4.31105,-77.33165 -4.1159,-73.17269999999999 -3.9208499999999997,-69.01374999999999" speed="36.11111111111111" width="2.9469900746354747"/>
	</edge>
	<edge from="20" function="normal" id="43638" length="16.086200504447284" numLanes="3" priority="1" speed="36.11111111111111" spreadType="center" to="21">
		<lane allow="moped bicycle pedestrian custom1 trailer evehicle rail_urban ship private truck vip custom2 authority delivery rail_electric taxi tram army hov coach motorcycle passenger bus rail emergency" index="0" length="16.086200504447284" shape="1.6906999999999999,-68.96135 1.87955,-65.45585 2.0571,-62.161100000000005 2.22005,-59.13695 2.3906,-55.972 2.5562,-52.89845" speed="36.11111111111111" width="2.635179145712868"/>
		<lane allow="moped bicycle pedestrian custom1 trailer evehicle rail_urban ship private truck vip custom2 authority delivery rail_electric taxi tram army hov coach motorcycle passenger bus rail emergency" index="1" length="16.086200504447284" shape="-1.03555,-68.98679999999999 -0.85265,-65.46945 -0.6809500000000002,-62.16845 -0.5236999999999999,-59.1459 -0.35719999999999996,-55.9431 -0.19640000000000002,-52.851749999999996" speed="36.11111111111111" width="2.781621514512713"/>
		<lane allow="moped bicycle pedestrian custom1 trailer evehicle rail_urban ship private truck vip custom2 authority delivery rail_electric taxi tram army hov coach motorcycle passenger bus rail emergency" index="2" length="16.086200504447284" shape="-3.9208499999999997,-69.01374999999999 -3.7554499999999997,-65.4839 -3.6004500000000004,-62.176249999999996 -3.45885,-59.15545 -3.3068999999999997,-55.912099999999995 -3.1611499999999997,-52.80145" speed="36.11111111111111" width="2.98923020525352"/>
	</edge>
	<edge from="20" function="normal" id="43648" length="15.647527078539005" numLanes="1" priority="1" speed="36.11111111111111" spreadType="center" to="22">
		<lane allow="moped bicycle pedestrian custom1 trailer evehicle rail_urban ship private vip custom2 authority delivery rail_electric taxi tram army hov coach motorcycle passenger rail emergency" index="0" length="15.647527078539005" shape="-3.9208499999999997,-69.01374999999999 -3.86705,-67.74485 -4.04595,-64.0423 -4.48405,-62.06295 -5.0884,-60.57105 -5.9331499999999995,-59.4023 -7.2272,-58.2836 -9.4131,-57.5317 -10.98235,-57.5064" speed="36.11111111111111" width="2.7601696994931335"/>
	</edge>
	<edge from="22" function="normal" id="43618" length="7.652452144574311" numLanes="2" priority="1" speed="36.11111111111111" spreadType="center" to="12">
		<lane allow="moped bicycle pedestrian custom1 trailer evehicle rail_urban ship private truck vip custom2 authority delivery rail_electric taxi tram army hov coach motorcycle passenger bus rail emergency" index="0" length="7.652452144574311" shape="-10.79,-54.253 -14.759,-54.1983 -18.728,-54.143649999999994" speed="36.11111111111111" width="3.1643185174694404"/>
		<lane allow="moped bicycle pedestrian custom1 trailer evehicle rail_urban ship private truck vip custom2 authority delivery rail_electric taxi tram army hov coach motorcycle passenger bus rail emergency" index="1" length="7.652452144574311" shape="-10.98235,-57.5064 -14.80855,-57.49225 -18.63475,-57.47815" speed="36.11111111111111" width="3.353843826119516"/>
	</edge>
	<edge from="21" function="normal" id="43598" length="10.917968257533413" numLanes="2" priority="1" speed="36.11111111111111" spreadType="center" to="23">
		<lane allow="moped bicycle pedestrian custom1 trailer evehicle rail_urban ship private truck vip custom2 authority delivery rail_electric taxi tram army hov coach motorcycle passenger bus rail emergency" index="0" length="10.917968257533413" shape="2.5562,-52.89845 2.84995,-47.44735 3.1437,-41.9963" speed="36.11111111111111" width="2.6121648110331788"/>
		<lane allow="moped bicycle pedestrian custom1 trailer evehicle rail_urban ship private truck vip custom2 authority delivery rail_electric taxi tram army hov coach motorcycle passenger bus rail emergency" index="1" length="10.917968257533413" shape="-0.19640000000000002,-52.851749999999996 0.08804999999999996,-47.38265 0.37250000000000005,-41.91355" speed="36.11111111111111" width="2.8708130991062446"/>
	</edge>
	<edge from="23" function="normal" id="43205" length="44.80469344761991" numLanes="2" priority="1" speed="36.11111111111111" spreadType="center" to="24">
		<lane allow="moped bicycle pedestrian custom1 trailer evehicle rail_urban ship private truck vip custom2 authority delivery rail_electric taxi tram army hov coach motorcycle passenger bus rail emergency" index="0" length="44.80469344761991" shape="3.1437,-41.9963 4.03655,-26.971 4.9294,-11.94575 5.8014,2.7295" speed="36.11111111111111" width="2.6110981980768173"/>
		<lane allow="moped bicycle pedestrian custom1 trailer evehicle rail_urban ship private truck vip custom2 authority delivery rail_electric taxi tram army hov coach motorcycle passenger bus rail emergency" index="1" length="44.80469344761991" shape="0.37250000000000005,-41.91355 1.25425,-26.8857 2.0138000000000003,-11.854099999999999 2.84905,2.90305" speed="36.11111111111111" width="2.932705612570072"/>
	</edge>
	<edge from="19" function="normal" id="43646" length="18.742624277463058" numLanes="1" priority="1" speed="36.11111111111111" spreadType="center" to="5">
		<lane allow="moped bicycle pedestrian custom1 trailer evehicle rail_urban ship private vip custom2 authority delivery rail_electric taxi tram army hov coach motorcycle passenger rail emergency" index="0" length="18.742624277463058" shape="1.22255,-77.6507 1.43005,-74.03059999999999 2.1654,-71.6204 2.8244499999999997,-70.18639999999999 3.51005,-69.18475000000001 4.2983,-68.55160000000001 6.1539,-67.7367 8.74595,-67.16605000000001 12.85865,-67.12889999999999" speed="36.11111111111111" width="2.6833457790601645"/>
	</edge>
	<edge from="25" function="normal" id="43456" length="13.0377775761748" numLanes="3" priority="1" speed="36.11111111111111" spreadType="center" to="26">
		<lane allow="moped bicycle pedestrian custom1 trailer evehicle rail_urban ship private truck vip custom2 authority delivery rail_electric taxi tram army hov coach motorcycle passenger bus rail emergency" index="0" length="13.0377775761748" shape="-67.19784999999999,-77.57284999999999 -61.12485,-75.20325 -55.0519,-72.8337" speed="36.11111111111111" width="3.256392252171102"/>
		<lane allow="moped bicycle pedestrian custom1 trailer evehicle rail_urban ship private truck vip custom2 authority delivery rail_electric taxi tram army hov coach motorcycle passenger bus rail emergency" index="1" length="13.0377775761748" shape="-68.7002,-74.33875 -62.515150000000006,-71.91229999999999 -56.33015,-69.48585" speed="36.11111111111111" width="3.786149318238793"/>
		<lane allow="moped bicycle pedestrian custom1 trailer evehicle rail_urban ship private truck vip custom2 authority delivery rail_electric taxi tram army hov coach motorcycle passenger bus rail emergency" index="2" length="13.0377775761748" shape="-70.1987,-71.113 -63.879549999999995,-68.68835 -57.5604,-66.2637" speed="36.11111111111111" width="3.1118984302190738"/>
	</edge>
	<edge from="26" function="normal" id="43464" length="25.046575335412292" numLanes="4" priority="1" speed="36.11111111111111" spreadType="center" to="27">
		<lane allow="moped bicycle pedestrian custom1 trailer evehicle rail_urban ship private truck vip custom2 authority delivery rail_electric taxi tram army hov coach motorcycle passenger rail emergency" index="0" length="25.046575335412292" shape="-55.0519,-72.8337 -48.84085,-71.91220000000001 -42.577200000000005,-71.49195 -36.2723,-71.4728 -30.08975,-71.64245" speed="36.11111111111111" width="2.885186971411036"/>
		<lane allow="moped bicycle pedestrian custom1 trailer evehicle rail_urban ship private truck vip custom2 authority delivery rail_electric taxi tram army hov coach motorcycle passenger bus rail emergency" index="1" length="25.046575335412292" shape="-55.0519,-72.8337 -48.97435,-71.1098 -42.8505,-69.6399 -36.58825,-68.72325 -30.388550000000002,-68.1799" speed="36.11111111111111" width="3.304406520087994"/>
		<lane allow="moped bicycle pedestrian custom1 trailer evehicle rail_urban ship private truck vip custom2 authority delivery rail_electric taxi tram army hov coach motorcycle passenger bus rail emergency" index="2" length="25.046575335412292" shape="-56.33015,-69.48585 -50.0052,-67.727 -43.682100000000005,-66.17805 -37.129850000000005,-65.08715 -30.70645,-64.49545" speed="36.11111111111111" width="3.330627955806533"/>
		<lane allow="moped bicycle pedestrian custom1 trailer evehicle rail_urban ship private truck vip custom2 authority delivery rail_electric taxi tram army hov coach motorcycle passenger bus rail emergency" index="3" length="25.046575335412292" shape="-57.5604,-66.2637 -51.06295,-64.25245 -44.5446,-62.682900000000004 -37.66975,-61.691900000000004 -30.99325,-61.1713" speed="36.11111111111111" width="3.1118984302190738"/>
	</edge>
	<edge from="27" function="normal" id="43472" length="11.854144357145337" numLanes="4" priority="1" speed="36.11111111111111" spreadType="center" to="28">
		<lane allow="moped bicycle pedestrian custom1 trailer evehicle rail_urban ship private truck vip custom2 authority delivery rail_electric taxi tram army hov coach motorcycle passenger bus rail emergency" index="0" length="11.854144357145337" shape="-30.08975,-71.64245 -24.174799999999998,-71.26435000000001 -18.25975,-70.88624999999999" speed="36.11111111111111" width="2.885186971411036"/>
		<lane allow="moped bicycle pedestrian custom1 trailer evehicle rail_urban ship private truck vip custom2 authority delivery rail_electric taxi tram army hov coach motorcycle passenger bus rail emergency" index="1" length="11.854144357145337" shape="-30.388550000000002,-68.1799 -24.37355,-67.76675 -18.35855,-67.35355" speed="36.11111111111111" width="3.592705935642371"/>
		<lane allow="moped bicycle pedestrian custom1 trailer evehicle rail_urban ship private truck vip custom2 authority delivery rail_electric taxi tram army hov coach motorcycle passenger bus rail emergency" index="2" length="11.854144357145337" shape="-30.70645,-64.49545 -24.58095,-64.1915 -18.4555,-63.8875" speed="36.11111111111111" width="3.330627955806533"/>
		<lane allow="moped bicycle pedestrian custom1 trailer evehicle rail_urban ship private truck vip custom2 authority delivery rail_electric taxi tram army hov coach motorcycle passenger bus rail emergency" index="3" length="11.854144357145337" shape="-30.99325,-61.1713 -24.7688,-60.9413 -18.5443,-60.7113" speed="36.11111111111111" width="3.012776825455216"/>
	</edge>
	<edge from="28" function="normal" id="43614" length="6.797229514483992" numLanes="3" priority="1" speed="36.11111111111111" spreadType="center" to="29">
		<lane allow="moped bicycle pedestrian custom1 trailer evehicle rail_urban ship private truck vip custom2 authority delivery rail_electric taxi tram army hov coach motorcycle passenger bus rail emergency" index="0" length="6.797229514483992" shape="-18.35855,-67.35355 -14.960049999999999,-67.3288 -11.5615,-67.30414999999999" speed="36.11111111111111" width="3.5701170246926117"/>
		<lane allow="moped bicycle pedestrian custom1 trailer evehicle rail_urban ship private truck vip custom2 authority delivery rail_electric taxi tram army hov coach motorcycle passenger bus rail emergency" index="1" length="6.797229514483992" shape="-18.4555,-63.8875 -14.9067,-63.87350000000001 -11.3579,-63.8595" speed="36.11111111111111" width="3.3312064961512013"/>