<?xml version="1.0" encoding="UTF-8"?>

<!-- generated on Fri Dec 18 15:57:01 2020 by Eclipse SUMO netconvert Version 1.8.0
<configuration xmlns:xsi="http://www.w3.org/2001/XMLSchema-instance" xsi:noNamespaceSchemaLocation="http://sumo.dlr.de/xsd/netconvertConfiguration.xsd">

    <input>
        <node-files value="./converted_scenarios/NGSIM/Peachtree/USA_Peach-4_1_I-1-1/nodes.net.xml"/>
        <edge-files value="./converted_scenarios/NGSIM/Peachtree/USA_Peach-4_1_I-1-1/edges.net.xml"/>
        <connection-files value="./converted_scenarios/NGSIM/Peachtree/USA_Peach-4_1_I-1-1/_connections.net.xml"/>
        <tllogic-files value="./converted_scenarios/NGSIM/Peachtree/USA_Peach-4_1_I-1-1/_tll.net.xml"/>
    </input>

    <output>
        <output-file value="./converted_scenarios/NGSIM/Peachtree/USA_Peach-4_1_I-1-1/USA_Peach-4_1_I-1-1.net.xml"/>
    </output>

    <processing>
        <plain.extend-edge-shape value="true"/>
        <geometry.remove.keep-edges.explicit value="true"/>
        <geometry.avoid-overlap value="true"/>
        <offset.disable-normalization value="true"/>
    </processing>

    <junctions>
        <no-turnarounds value="true"/>
        <junctions.internal-link-detail value="20"/>
    </junctions>

    <report>
        <aggregate-warnings value="5"/>
    </report>

    <random_number>
        <seed value="1234"/>
    </random_number>

</configuration>
-->

<net version="1.6" junctionCornerDetail="5" junctionLinkDetail="20" limitTurnSpeed="5.50" xmlns:xsi="http://www.w3.org/2001/XMLSchema-instance" xsi:noNamespaceSchemaLocation="http://sumo.dlr.de/xsd/net_file.xsd">

    <location netOffset="0.00,0.00" convBoundary="-72.26,-129.21,49.99,3.25" origBoundary="-72.94,-129.27,50.10,3.42" projParameter="!"/>

    <edge id=":10_0" function="internal">
        <lane id=":10_0_0" index="0" disallow="bus truck rail_fast" speed="36.11" length="3.17" width="2.37" shape="-10.86,-120.05 -10.82,-123.20"/>
        <lane id=":10_0_1" index="1" disallow="rail_fast" speed="36.11" length="3.17" width="3.54" shape="-7.74,-120.08 -7.72,-123.28"/>
    </edge>
    <edge id=":12_0" function="internal">
        <lane id=":12_0_0" index="0" disallow="bus truck rail_fast" speed="36.11" length="10.39" width="3.10" shape="-11.34,-52.99 -12.06,-53.22 -12.70,-53.42 -13.30,-53.58 -13.84,-53.72 -14.34,-53.84 -14.81,-53.94 -15.26,-54.01 -15.68,-54.07 -16.10,-54.11 -16.52,-54.14 -16.95,-54.16 -17.39,-54.18 -17.85,-54.19 -18.35,-54.19 -18.88,-54.20 -19.47,-54.21 -20.11,-54.22 -20.81,-54.24 -21.59,-54.27"/>
    </edge>
    <edge id=":12_1" function="internal">
        <lane id=":12_1_0" index="0" disallow="rail_fast" speed="36.11" length="10.86" width="3.10" shape="-10.65,-54.25 -21.59,-54.27"/>
        <lane id=":12_1_1" index="1" disallow="rail_fast" speed="36.11" length="10.86" width="3.26" shape="-10.69,-57.51 -21.48,-57.57"/>
    </edge>
    <edge id=":13_0" function="internal">
        <lane id=":13_0_0" index="0" disallow="rail_fast" speed="36.11" length="3.01" width="3.10" shape="-29.97,-54.65 -33.00,-54.80"/>
        <lane id=":13_0_1" index="1" disallow="bus rail_fast" speed="36.11" length="3.01" width="2.98" shape="-29.77,-57.83 -32.76,-57.99"/>
    </edge>
    <edge id=":14_0" function="internal">
        <lane id=":14_0_0" index="0" disallow="rail_fast" speed="36.11" length="2.96" width="3.19" shape="-58.43,-59.63 -61.26,-60.64"/>
        <lane id=":14_0_1" index="1" disallow="bus rail_fast" speed="36.11" length="2.96" width="3.30" shape="-57.32,-62.79 -60.06,-63.76"/>
    </edge>
    <edge id=":17_0" function="internal">
        <lane id=":17_0_0" index="0" disallow="rail_fast" speed="36.11" length="7.89" width="2.91" shape="-1.18,-125.83 -0.80,-117.89"/>
        <lane id=":17_0_1" index="1" disallow="rail_fast" speed="36.11" length="7.89" width="2.91" shape="-4.30,-125.70 -3.85,-117.86"/>
        <lane id=":17_0_2" index="2" disallow="rail_fast" speed="36.11" length="7.89" width="2.91" shape="-4.30,-125.70 -4.27,-125.11 -4.25,-124.58 -4.23,-124.10 -4.21,-123.67 -4.20,-123.27 -4.19,-122.91 -4.18,-122.57 -4.18,-122.24 -4.18,-121.93 -4.19,-121.62 -4.20,-121.30 -4.21,-120.98 -4.23,-120.64 -4.25,-120.27 -4.28,-119.88 -4.31,-119.45 -4.35,-118.97 -4.39,-118.44 -4.44,-117.85"/>
    </edge>
    <edge id=":18_0" function="internal">
        <lane id=":18_0_0" index="0" disallow="rail_fast" speed="36.11" length="3.18" width="2.68" shape="-0.14,-104.10 0.01,-101.00"/>
        <lane id=":18_0_1" index="1" disallow="rail_fast" speed="36.11" length="3.18" width="2.73" shape="-3.06,-104.06 -2.89,-100.89"/>
        <lane id=":18_0_2" index="2" disallow="rail_fast" speed="36.11" length="3.18" width="2.91" shape="-5.68,-104.03 -5.70,-103.78 -5.73,-103.57 -5.75,-103.37 -5.77,-103.19 -5.78,-103.02 -5.80,-102.87 -5.81,-102.73 -5.83,-102.60 -5.83,-102.47 -5.84,-102.34 -5.85,-102.21 -5.85,-102.07 -5.85,-101.93 -5.85,-101.78 -5.84,-101.61 -5.84,-101.43 -5.83,-101.23 -5.81,-101.01 -5.80,-100.77"/>
    </edge>
    <edge id=":19_0" function="internal">
        <lane id=":19_0_0" index="0" disallow="bus truck rail_fast" speed="8.36" length="12.54" width="2.68" shape="1.08,-80.34 1.15,-79.15 1.22,-78.02 1.30,-76.95 1.39,-75.95 1.48,-75.00 1.58,-74.12 1.69,-73.30 1.80,-72.55 1.92,-71.85 2.05,-71.22 2.18,-70.65 2.32,-70.14 2.47,-69.69 2.62,-69.31 2.78,-68.99 2.95,-68.73 3.12,-68.53 3.30,-68.40 3.49,-68.32"/>
    </edge>
    <edge id=":19_1" function="internal">
        <lane id=":19_1_0" index="0" disallow="rail_fast" speed="36.11" length="12.94" width="2.67" shape="1.08,-80.34 1.78,-67.36"/>
        <lane id=":19_1_1" index="1" disallow="rail_fast" speed="36.11" length="12.94" width="2.73" shape="-1.64,-80.19 -0.95,-67.27"/>
        <lane id=":19_1_2" index="2" disallow="rail_fast" speed="36.11" length="12.94" width="2.95" shape="-4.48,-80.02 -3.83,-67.17"/>
    </edge>
    <edge id=":2_0" function="internal">
        <lane id=":2_0_0" index="0" disallow="bus truck rail_fast" speed="12.44" length="25.62" width="2.69" shape="-7.75,-27.75 -7.90,-30.26 -8.05,-32.65 -8.21,-34.90 -8.37,-37.02 -8.53,-39.00 -8.70,-40.86 -8.87,-42.58 -9.04,-44.17 -9.22,-45.63 -9.40,-46.95 -9.58,-48.15 -9.77,-49.21 -9.95,-50.14 -10.15,-50.93 -10.34,-51.59 -10.54,-52.13 -10.74,-52.53 -10.94,-52.79 -11.15,-52.93"/>
    </edge>
    <edge id=":2_1" function="internal">
        <lane id=":2_1_0" index="0" disallow="rail_fast" speed="36.11" length="26.24" width="2.98" shape="-7.75,-27.75 -9.28,-53.96"/>
        <lane id=":2_1_1" index="1" disallow="rail_fast" speed="36.11" length="26.24" width="2.86" shape="-4.83,-27.86 -6.27,-54.06"/>
        <lane id=":2_1_2" index="2" disallow="rail_fast" speed="36.11" length="26.24" width="3.06" shape="-1.84,-27.98 -3.22,-54.16"/>
    </edge>
    <edge id=":20_0" function="internal">
        <lane id=":20_0_0" index="0" disallow="rail_fast" speed="36.11" length="5.88" width="2.64" shape="1.79,-67.16 2.11,-61.25"/>
        <lane id=":20_0_1" index="1" disallow="rail_fast" speed="36.11" length="5.88" width="2.78" shape="-0.94,-67.07 -0.63,-61.20"/>
        <lane id=":20_0_2" index="2" disallow="rail_fast" speed="36.11" length="5.88" width="2.99" shape="-3.83,-66.97 -3.55,-61.14"/>
    </edge>
    <edge id=":20_3" function="internal">
        <lane id=":20_3_0" index="0" disallow="bus truck rail_fast" speed="7.81" length="10.60" width="2.76" shape="-3.83,-66.97 -3.80,-66.21 -3.81,-65.48 -3.84,-64.78 -3.89,-64.12 -3.97,-63.48 -4.08,-62.88 -4.22,-62.32 -4.38,-61.78 -4.57,-61.28 -4.79,-60.81 -5.03,-60.37 -5.30,-59.97 -5.60,-59.59 -5.92,-59.25 -6.27,-58.95 -6.64,-58.67 -7.05,-58.43 -7.47,-58.22 -7.93,-58.04"/>
    </edge>
    <edge id=":21_0" function="internal">
        <lane id=":21_0_0" index="0" disallow="rail_fast" speed="36.11" length="6.89" width="2.61" shape="2.12,-61.05 2.49,-54.20"/>
        <lane id=":21_0_1" index="1" disallow="rail_fast" speed="36.11" length="6.89" width="2.87" shape="-0.62,-61.00 -0.26,-54.09"/>
    </edge>
    <edge id=":21_2" function="internal">
        <lane id=":21_2_0" index="0" disallow="bus truck rail_fast" speed="36.11" length="1.24" width="2.87" shape="-0.20,-52.85 -0.26,-54.09"/>
    </edge>
    <edge id=":22_0" function="internal">
        <lane id=":22_0_0" index="0" disallow="rail_fast" speed="36.11" length="10.14" width="3.16" shape="-0.28,-54.40 -10.45,-54.26"/>
        <lane id=":22_0_1" index="1" disallow="rail_fast" speed="36.11" length="10.14" width="3.35" shape="-0.39,-57.54 -10.49,-57.51"/>
    </edge>
    <edge id=":22_2" function="internal">
        <lane id=":22_2_0" index="0" disallow="bus truck rail_fast" speed="36.11" length="0.49" width="3.35" shape="-10.98,-57.51 -10.49,-57.51"/>
    </edge>
    <edge id=":23_0" function="internal">
        <lane id=":23_0_0" index="0" disallow="bus truck rail_fast" speed="36.11" length="11.79" width="2.61" shape="3.12,-52.27 3.23,-40.48"/>
    </edge>
    <edge id=":23_1" function="internal">
        <lane id=":23_1_0" index="0" disallow="rail_fast" speed="36.11" length="13.55" width="2.61" shape="2.50,-54.00 3.23,-40.48"/>
        <lane id=":23_1_1" index="1" disallow="rail_fast" speed="36.11" length="13.55" width="2.93" shape="-0.25,-53.89 0.46,-40.36"/>
    </edge>
    <edge id=":26_0" function="internal">
        <lane id=":26_0_0" index="0" disallow="bus rail_fast" speed="36.11" length="7.58" width="2.89" shape="-58.21,-74.07 -57.69,-73.87 -57.22,-73.68 -56.80,-73.52 -56.41,-73.38 -56.05,-73.26 -55.72,-73.15 -55.41,-73.05 -55.12,-72.96 -54.83,-72.88 -54.54,-72.81 -54.25,-72.75 -53.95,-72.69 -53.62,-72.63 -53.28,-72.57 -52.91,-72.51 -52.50,-72.45 -52.05,-72.39 -51.55,-72.31 -51.00,-72.23"/>
        <lane id=":26_0_1" index="1" disallow="rail_fast" speed="36.11" length="7.58" width="3.30" shape="-58.21,-74.07 -57.70,-73.87 -57.23,-73.68 -56.80,-73.52 -56.42,-73.38 -56.07,-73.24 -55.75,-73.12 -55.44,-73.01 -55.15,-72.91 -54.87,-72.82 -54.59,-72.73 -54.31,-72.64 -54.01,-72.55 -53.70,-72.46 -53.37,-72.36 -53.01,-72.25 -52.62,-72.14 -52.18,-72.02 -51.70,-71.88 -51.16,-71.73"/>
        <lane id=":26_0_2" index="2" disallow="rail_fast" speed="36.11" length="7.58" width="3.33" shape="-59.50,-70.73 -58.96,-70.52 -58.49,-70.33 -58.05,-70.17 -57.66,-70.02 -57.30,-69.88 -56.97,-69.76 -56.66,-69.65 -56.36,-69.55 -56.07,-69.45 -55.79,-69.36 -55.49,-69.27 -55.19,-69.18 -54.88,-69.08 -54.54,-68.99 -54.17,-68.88 -53.76,-68.77 -53.31,-68.65 -52.82,-68.51 -52.27,-68.36"/>
        <lane id=":26_0_3" index="3" disallow="rail_fast" speed="36.11" length="7.58" width="3.11" shape="-60.74,-67.48 -53.38,-64.97"/>
    </edge>
    <edge id=":27_0" function="internal">
        <lane id=":27_0_0" index="0" disallow="bus rail_fast" speed="36.11" length="3.87" width="2.89" shape="-32.35,-71.58 -32.05,-71.59 -31.79,-71.60 -31.55,-71.60 -31.34,-71.61 -31.14,-71.62 -30.96,-71.62 -30.79,-71.62 -30.63,-71.63 -30.47,-71.63 -30.32,-71.63 -30.16,-71.62 -30.00,-71.62 -29.83,-71.61 -29.65,-71.61 -29.46,-71.60 -29.24,-71.59 -29.00,-71.57 -28.74,-71.56 -28.45,-71.54"/>
        <lane id=":27_0_1" index="1" disallow="rail_fast" speed="36.11" length="3.87" width="3.59" shape="-32.58,-68.37 -28.72,-68.07"/>
        <lane id=":27_0_2" index="2" disallow="rail_fast" speed="36.11" length="3.87" width="3.33" shape="-32.85,-64.69 -29.01,-64.41"/>
        <lane id=":27_0_3" index="3" disallow="rail_fast" speed="36.11" length="3.87" width="3.01" shape="-33.10,-61.34 -29.27,-61.11"/>
    </edge>
    <edge id=":28_0" function="internal">
        <lane id=":28_0_0" index="0" disallow="bus truck rail_fast" speed="36.11" length="84.70" width="2.94" shape="-20.75,-71.05 -105.45,-71.25"/>
    </edge>
    <edge id=":28_1" function="internal">
        <lane id=":28_1_0" index="0" disallow="rail_fast" speed="36.11" length="4.03" width="3.57" shape="-20.86,-67.53 -16.88,-67.34"/>
        <lane id=":28_1_1" index="1" disallow="rail_fast" speed="36.11" length="4.03" width="3.33" shape="-20.98,-64.01 -16.95,-63.88"/>
        <lane id=":28_1_2" index="2" disallow="rail_fast" speed="36.11" length="4.03" width="3.01" shape="-21.09,-60.81 -17.02,-60.71"/>
    </edge>
    <edge id=":29_0" function="internal">
        <lane id=":29_0_0" index="0" disallow="rail_fast" speed="36.11" length="7.10" width="3.50" shape="-10.16,-67.29 -3.05,-67.24"/>
        <lane id=":29_0_1" index="1" disallow="rail_fast" speed="36.11" length="7.10" width="3.30" shape="-10.03,-63.85 -2.93,-63.83"/>
        <lane id=":29_0_2" index="2" disallow="rail_fast" speed="36.11" length="7.10" width="3.02" shape="-9.91,-60.68 -2.82,-60.66"/>
    </edge>
    <edge id=":29_3" function="internal">
        <lane id=":29_3_0" index="0" disallow="bus truck rail_fast" speed="7.90" length="13.13" width="2.17" shape="-9.91,-60.68 -8.97,-60.66 -8.08,-60.61 -7.23,-60.51 -6.43,-60.38 -5.68,-60.21 -4.98,-60.01 -4.33,-59.77 -3.72,-59.49 -3.17,-59.18 -2.66,-58.83 -2.20,-58.45 -1.79,-58.02 -1.43,-57.57 -1.12,-57.07 -0.85,-56.54 -0.63,-55.97 -0.47,-55.37 -0.35,-54.73 -0.28,-54.05"/>
    </edge>
    <edge id=":3_0" function="internal">
        <lane id=":3_0_0" index="0" disallow="rail_fast" speed="36.11" length="1.56" width="2.99" shape="-9.29,-54.16 -9.20,-52.60"/>
        <lane id=":3_0_1" index="1" disallow="rail_fast" speed="36.11" length="1.56" width="3.02" shape="-6.28,-54.26 -6.20,-52.70"/>
    </edge>
    <edge id=":3_2" function="internal">
        <lane id=":3_2_0" index="0" disallow="bus truck rail_fast" speed="36.11" length="0.55" width="2.98" shape="-3.23,-54.36 -3.48,-54.85"/>
    </edge>
    <edge id=":31_0" function="internal">
        <lane id=":31_0_0" index="0" disallow="bus truck rail_fast" speed="6.60" length="9.65" width="2.61" shape="11.84,-54.58 10.96,-54.63 10.12,-54.66 9.33,-54.68 8.58,-54.67 7.89,-54.65 7.24,-54.61 6.64,-54.55 6.08,-54.48 5.58,-54.39 5.12,-54.28 4.71,-54.15 4.34,-54.00 4.03,-53.83 3.76,-53.65 3.54,-53.45 3.36,-53.23 3.24,-52.99 3.16,-52.74 3.13,-52.47"/>
    </edge>
    <edge id=":31_1" function="internal">
        <lane id=":31_1_0" index="0" disallow="rail_fast" speed="36.11" length="11.28" width="3.02" shape="11.84,-54.58 0.78,-54.41"/>
        <lane id=":31_1_1" index="1" disallow="rail_fast" speed="36.11" length="11.28" width="3.04" shape="12.04,-57.60 0.79,-57.55"/>
        <lane id=":31_1_2" index="2" disallow="rail_fast" speed="5.16" length="11.28" width="3.03" shape="12.24,-60.63 0.71,-60.65"/>
    </edge>
    <edge id=":32_0" function="internal">
        <lane id=":32_0_0" index="0" disallow="rail_fast" speed="36.11" length="21.63" width="3.07" shape="0.58,-54.41 22.25,-54.71"/>
        <lane id=":32_0_1" index="1" disallow="rail_fast" speed="36.11" length="21.63" width="3.15" shape="0.58,-57.55 22.16,-57.63"/>
    </edge>
    <edge id=":32_2" function="internal">
        <lane id=":32_2_0" index="0" disallow="bus truck rail_fast" speed="36.11" length="21.46" width="2.34" shape="0.67,-60.65 22.13,-60.40"/>
    </edge>
    <edge id=":4_0" function="internal">
        <lane id=":4_0_0" index="0" disallow="rail_fast" speed="36.11" length="5.76" width="3.46" shape="-2.85,-67.24 2.98,-67.20"/>
        <lane id=":4_0_1" index="1" disallow="rail_fast" speed="36.11" length="5.76" width="3.28" shape="-2.73,-63.83 2.96,-63.80"/>
    </edge>
    <edge id=":4_2" function="internal">
        <lane id=":4_2_0" index="0" disallow="bus truck rail_fast" speed="7.83" length="11.81" width="3.28" shape="-3.45,-55.05 -3.27,-55.94 -3.08,-56.80 -2.86,-57.60 -2.64,-58.35 -2.39,-59.06 -2.12,-59.71 -1.84,-60.32 -1.54,-60.88 -1.22,-61.39 -0.88,-61.85 -0.53,-62.26 -0.15,-62.62 0.24,-62.94 0.65,-63.21 1.07,-63.42 1.52,-63.59 1.98,-63.71 2.46,-63.78 2.96,-63.80"/>
    </edge>
    <edge id=":5_0" function="internal">
        <lane id=":5_0_0" index="0" disallow="bus truck rail_fast" speed="36.11" length="10.81" width="3.46" shape="3.68,-68.28 4.42,-68.12 5.09,-67.98 5.70,-67.86 6.27,-67.75 6.79,-67.66 7.28,-67.58 7.75,-67.51 8.19,-67.45 8.64,-67.40 9.08,-67.36 9.53,-67.32 9.99,-67.29 10.48,-67.26 11.01,-67.23 11.57,-67.20 12.19,-67.16 12.86,-67.12 13.59,-67.08 14.41,-67.03"/>
    </edge>
    <edge id=":5_1" function="internal">
        <lane id=":5_1_0" index="0" disallow="rail_fast" speed="36.11" length="11.13" width="3.46" shape="3.18,-67.20 14.41,-67.03"/>
        <lane id=":5_1_1" index="1" disallow="rail_fast" speed="36.11" length="11.13" width="3.28" shape="3.16,-63.80 14.19,-63.67"/>
    </edge>
    <edge id=":7_0" function="internal">
        <lane id=":7_0_0" index="0" disallow="rail_fast" speed="36.11" length="7.30" width="2.94" shape="-9.62,-59.83 -10.06,-67.12"/>
        <lane id=":7_0_1" index="1" disallow="rail_fast" speed="36.11" length="7.30" width="3.25" shape="-6.57,-59.90 -6.94,-67.19"/>
    </edge>
    <edge id=":7_2" function="internal">
        <lane id=":7_2_0" index="0" disallow="bus truck rail_fast" speed="7.33" length="7.97" width="3.25" shape="-2.25,-61.33 -2.71,-61.53 -3.15,-61.74 -3.56,-61.97 -3.95,-62.20 -4.32,-62.45 -4.66,-62.71 -4.98,-62.98 -5.27,-63.27 -5.54,-63.57 -5.79,-63.87 -6.01,-64.19 -6.21,-64.53 -6.39,-64.87 -6.54,-65.23 -6.67,-65.60 -6.77,-65.98 -6.85,-66.37 -6.91,-66.77 -6.94,-67.19"/>
    </edge>
    <edge id=":8_0" function="internal">
        <lane id=":8_0_0" index="0" disallow="rail_fast" speed="36.11" length="8.73" width="2.52" shape="-10.21,-69.79 -10.67,-78.52"/>
        <lane id=":8_0_1" index="1" disallow="rail_fast" speed="36.11" length="8.73" width="2.84" shape="-7.09,-69.97 -7.54,-78.69"/>
    </edge>
    <edge id=":8_2" function="internal">
        <lane id=":8_2_0" index="0" disallow="bus truck rail_fast" speed="6.95" length="9.35" width="2.52" shape="-14.96,-71.24 -14.49,-71.35 -14.05,-71.49 -13.64,-71.66 -13.25,-71.86 -12.89,-72.09 -12.55,-72.35 -12.25,-72.64 -11.97,-72.96 -11.71,-73.32 -11.49,-73.70 -11.29,-74.11 -11.12,-74.56 -10.97,-75.03 -10.86,-75.54 -10.76,-76.07 -10.70,-76.64 -10.66,-77.23 -10.65,-77.86 -10.67,-78.52"/>
    </edge>
    <edge id=":9_0" function="internal">
        <lane id=":9_0_0" index="0" disallow="bus truck rail_fast" speed="36.11" length="2.73" width="2.51" shape="-11.41,-100.57 -11.37,-103.37"/>
        <lane id=":9_0_1" index="1" disallow="rail_fast" speed="36.11" length="2.73" width="2.84" shape="-8.69,-100.65 -8.70,-100.85 -8.71,-101.03 -8.72,-101.19 -8.72,-101.34 -8.73,-101.47 -8.73,-101.59 -8.73,-101.71 -8.74,-101.82 -8.74,-101.93 -8.73,-102.03 -8.73,-102.14 -8.73,-102.25 -8.72,-102.37 -8.71,-102.49 -8.70,-102.62 -8.69,-102.77 -8.68,-102.93 -8.67,-103.11 -8.65,-103.31"/>
    </edge>

    <edge id="43205" from="23" to="24" priority="1" spreadType="center" length="44.80">
        <lane id="43205_0" index="0" disallow="rail_fast" speed="36.11" length="44.80" width="2.61" customShape="1" shape="3.23,-40.48 4.04,-26.97 4.93,-11.95 5.80,2.73"/>
        <lane id="43205_1" index="1" disallow="rail_fast" speed="36.11" length="44.80" width="2.93" customShape="1" shape="0.46,-40.36 1.25,-26.89 2.01,-11.85 2.85,2.90"/>
    </edge>
    <edge id="43343" from="1" to="2" priority="1" spreadType="center" length="44.97">
        <lane id="43343_0" index="0" disallow="rail_fast" speed="36.11" length="44.97" width="2.89" customShape="1" shape="-5.95,3.42 -6.82,-11.58 -7.68,-26.61 -7.75,-27.75"/>
        <lane id="43343_1" index="1" disallow="rail_fast" speed="36.11" length="44.97" width="2.86" customShape="1" shape="-3.04,3.25 -3.90,-11.67 -4.77,-26.70 -4.83,-27.86"/>
        <lane id="43343_2" index="2" disallow="rail_fast" speed="36.11" length="44.97" width="2.78" customShape="1" shape="-0.19,3.09 -1.02,-11.76 -1.77,-26.79 -1.84,-27.98"/>
    </edge>
    <edge id="43382" from="8" to="9" priority="1" spreadType="center" length="24.84">
        <lane id="43382_0" index="0" disallow="rail_fast" speed="36.11" length="24.84" width="2.52" customShape="1" shape="-10.67,-78.52 -11.16,-89.46 -11.41,-100.57"/>
        <lane id="43382_1" index="1" disallow="rail_fast" speed="36.11" length="24.84" width="2.84" customShape="1" shape="-7.54,-78.69 -8.14,-89.47 -8.69,-100.65"/>
    </edge>
    <edge id="43386" from="9" to="10" priority="1" spreadType="center" length="19.69">
        <lane id="43386_0" index="0" disallow="bus truck rail_fast" speed="36.11" length="19.69" width="2.51" customShape="1" shape="-11.37,-103.37 -11.00,-111.79 -10.86,-120.05"/>
        <lane id="43386_1" index="1" disallow="rail_fast" speed="36.11" length="19.69" width="2.84" customShape="1" shape="-8.65,-103.31 -8.01,-111.84 -7.74,-120.08"/>
    </edge>
    <edge id="43390" from="10" to="11" priority="1" spreadType="center" length="7.33">
        <lane id="43390_0" index="0" disallow="rail_fast" speed="36.11" length="7.33" width="2.37" customShape="1" shape="-10.82,-123.20 -10.81,-125.26 -10.78,-129.00"/>
        <lane id="43390_1" index="1" disallow="rail_fast" speed="36.11" length="7.33" width="3.54" customShape="1" shape="-7.72,-123.28 -7.76,-125.37 -7.82,-129.04"/>
    </edge>
    <edge id="43394" from="16" to="17" priority="1" spreadType="center" length="7.31">
        <lane id="43394_0" index="0" disallow="rail_fast" speed="36.11" length="7.31" width="2.93" customShape="1" shape="-1.36,-129.28 -1.18,-125.83"/>
        <lane id="43394_1" index="1" disallow="rail_fast" speed="36.11" length="7.31" width="3.19" customShape="1" shape="-4.46,-129.16 -4.30,-125.70"/>
    </edge>
    <edge id="43400" from="17" to="18" priority="1" spreadType="center" length="19.77">
        <lane id="43400_0" index="0" disallow="rail_fast" speed="36.11" length="19.77" width="2.91" customShape="1" shape="-0.80,-117.89 -0.52,-112.08 -0.14,-104.10"/>
        <lane id="43400_1" index="1" disallow="rail_fast" speed="36.11" length="19.77" width="2.91" customShape="1" shape="-3.85,-117.86 -3.44,-111.98 -3.06,-104.06"/>
        <lane id="43400_2" index="2" disallow="rail_fast" speed="36.11" length="19.77" width="2.91" customShape="1" shape="-4.44,-117.85 -4.90,-111.93 -5.68,-104.03"/>
    </edge>
    <edge id="43406" from="18" to="19" priority="1" spreadType="center" length="24.58">
        <lane id="43406_0" index="0" disallow="rail_fast" speed="36.11" length="24.58" width="2.68" customShape="1" shape="0.01,-101.00 0.59,-89.91 1.08,-80.34"/>
        <lane id="43406_1" index="1" disallow="rail_fast" speed="36.11" length="24.58" width="2.73" customShape="1" shape="-2.89,-100.89 -2.22,-89.75 -1.64,-80.19"/>
        <lane id="43406_2" index="2" disallow="rail_fast" speed="36.11" length="24.58" width="2.91" customShape="1" shape="-5.80,-100.77 -5.09,-89.58 -4.48,-80.02"/>
    </edge>
    <edge id="43456" from="25" to="26" priority="1" spreadType="center" length="13.04">
        <lane id="43456_0" index="0" disallow="rail_fast" speed="36.11" length="13.04" width="3.26" customShape="1" shape="-67.43,-77.66 -61.12,-75.20 -58.21,-74.07"/>
        <lane id="43456_1" index="1" disallow="rail_fast" speed="36.11" length="13.04" width="3.79" customShape="1" shape="-68.70,-74.34 -62.52,-71.91 -59.50,-70.73"/>
        <lane id="43456_2" index="2" disallow="rail_fast" speed="36.11" length="13.04" width="3.11" customShape="1" shape="-69.97,-71.03 -63.88,-68.69 -60.74,-67.48"/>
    </edge>
    <edge id="43464" from="26" to="27" priority="1" spreadType="center" length="25.05">
        <lane id="43464_0" index="0" disallow="bus rail_fast" speed="36.11" length="25.05" width="2.89" customShape="1" shape="-51.00,-72.23 -48.84,-71.91 -42.58,-71.49 -36.27,-71.47 -32.35,-71.58"/>
        <lane id="43464_1" index="1" disallow="rail_fast" speed="36.11" length="25.05" width="3.30" customShape="1" shape="-51.16,-71.73 -48.97,-71.11 -42.85,-69.64 -36.59,-68.72 -32.58,-68.37"/>
        <lane id="43464_2" index="2" disallow="rail_fast" speed="36.11" length="25.05" width="3.33" customShape="1" shape="-52.27,-68.36 -50.01,-67.73 -43.68,-66.18 -37.13,-65.09 -32.85,-64.69"/>
        <lane id="43464_3" index="3" disallow="rail_fast" speed="36.11" length="25.05" width="3.11" customShape="1" shape="-53.38,-64.97 -51.06,-64.25 -44.54,-62.68 -37.67,-61.69 -33.10,-61.34"/>
    </edge>
    <edge id="43472" from="27" to="28" priority="1" spreadType="center" length="11.85">
        <lane id="43472_0" index="0" disallow="rail_fast" speed="36.11" length="11.85" width="2.89" customShape="1" shape="-28.45,-71.54 -24.17,-71.26 -20.75,-71.05"/>
        <lane id="43472_1" index="1" disallow="rail_fast" speed="36.11" length="11.85" width="3.59" customShape="1" shape="-28.72,-68.07 -24.37,-67.77 -20.86,-67.53"/>
        <lane id="43472_2" index="2" disallow="rail_fast" speed="36.11" length="11.85" width="3.33" customShape="1" shape="-29.01,-64.41 -24.58,-64.19 -20.98,-64.01"/>
        <lane id="43472_3" index="3" disallow="rail_fast" speed="36.11" length="11.85" width="3.01" customShape="1" shape="-29.27,-61.11 -24.77,-60.94 -21.09,-60.81"/>
    </edge>
    <edge id="43476" from="12" to="13" priority="1" spreadType="center" length="12.65">
        <lane id="43476_0" index="0" disallow="rail_fast" speed="36.11" length="12.65" width="3.10" customShape="1" shape="-21.59,-54.27 -25.14,-54.43 -29.97,-54.65"/>
        <lane id="43476_1" index="1" disallow="rail_fast" speed="36.11" length="12.65" width="3.26" customShape="1" shape="-21.48,-57.57 -24.96,-57.68 -29.77,-57.83"/>
    </edge>
    <edge id="43480" from="13" to="14" priority="1" spreadType="center" length="28.07">
        <lane id="43480_0" index="0" disallow="rail_fast" speed="36.11" length="28.07" width="3.10" customShape="1" shape="-33.00,-54.80 -38.64,-55.14 -45.83,-56.30 -52.97,-57.87 -58.43,-59.63"/>
        <lane id="43480_1" index="1" disallow="bus rail_fast" speed="36.11" length="28.07" width="2.98" customShape="1" shape="-32.76,-57.99 -38.19,-58.40 -45.24,-59.49 -51.94,-61.03 -57.32,-62.79"/>
    </edge>
    <edge id="43484" from="14" to="15" priority="1" spreadType="center" length="13.77">
        <lane id="43484_0" index="0" disallow="rail_fast" speed="36.11" length="13.77" width="3.19" customShape="1" shape="-61.26,-60.64 -66.43,-62.66 -72.85,-65.17"/>
        <lane id="43484_1" index="1" disallow="rail_fast" speed="36.11" length="13.77" width="3.30" customShape="1" shape="-60.06,-63.76 -65.14,-65.70 -71.67,-68.19"/>
    </edge>
    <edge id="43488" from="5" to="6" priority="1" spreadType="center" length="37.32">
        <lane id="43488_0" index="0" disallow="rail_fast" speed="36.11" length="37.32" width="3.46" customShape="1" shape="14.41,-67.03 31.40,-65.92 50.10,-64.70"/>
        <lane id="43488_1" index="1" disallow="rail_fast" speed="36.11" length="37.32" width="3.28" customShape="1" shape="14.19,-63.67 31.22,-62.55 49.88,-61.34"/>
    </edge>
    <edge id="43494" from="30" to="31" priority="1" spreadType="center" length="37.32">
        <lane id="43494_0" index="0" disallow="rail_fast" speed="36.11" length="37.32" width="3.02" customShape="1" shape="49.27,-52.14 30.73,-53.35 11.84,-54.58"/>
        <lane id="43494_1" index="1" disallow="rail_fast" speed="36.11" length="37.32" width="3.04" customShape="1" shape="49.47,-55.16 30.89,-56.37 12.04,-57.60"/>
        <lane id="43494_2" index="2" disallow="rail_fast" speed="36.11" length="37.32" width="3.04" customShape="1" shape="49.67,-58.19 31.05,-59.40 12.24,-60.63"/>
    </edge>
    <edge id="43594" from="2" to="3" priority="1" spreadType="center" length="10.99">
        <lane id="43594_0" index="0" disallow="rail_fast" speed="36.11" length="10.99" width="2.98" customShape="1" shape="-9.28,-53.96 -9.29,-54.16"/>
        <lane id="43594_1" index="1" disallow="rail_fast" speed="36.11" length="10.99" width="2.86" customShape="1" shape="-6.27,-54.06 -6.28,-54.26"/>
        <lane id="43594_2" index="2" disallow="rail_fast" speed="36.11" length="10.99" width="3.06" customShape="1" shape="-3.22,-54.16 -3.23,-54.36"/>
    </edge>
    <edge id="43598" from="21" to="23" priority="1" spreadType="center" length="10.92">
        <lane id="43598_0" index="0" disallow="rail_fast" speed="36.11" length="10.92" width="2.61" acceleration="1" customShape="1" shape="2.49,-54.20 2.50,-54.00"/>
        <lane id="43598_1" index="1" disallow="rail_fast" speed="36.11" length="10.92" width="2.87" customShape="1" shape="-0.26,-54.09 -0.25,-53.89"/>
    </edge>
    <edge id="43602" from="4" to="5" priority="1" spreadType="center" length="9.34">
        <lane id="43602_0" index="0" disallow="rail_fast" speed="36.11" length="9.34" width="3.46" acceleration="1" customShape="1" shape="2.98,-67.20 3.18,-67.20"/>
        <lane id="43602_1" index="1" disallow="rail_fast" speed="36.11" length="9.34" width="3.28" customShape="1" shape="2.96,-63.80 3.16,-63.80"/>
    </edge>
    <edge id="43608" from="31" to="32" priority="1" spreadType="center" length="8.24">
        <lane id="43608_0" index="0" disallow="rail_fast" speed="36.11" length="8.24" width="3.02" customShape="1" shape="0.78,-54.41 0.58,-54.41"/>
        <lane id="43608_1" index="1" disallow="rail_fast" speed="36.11" length="8.24" width="3.04" customShape="1" shape="0.79,-57.55 0.58,-57.55"/>
        <lane id="43608_2" index="2" disallow="rail_fast" speed="36.11" length="8.24" width="3.03" customShape="1" shape="0.71,-60.65 7.95,-60.63 0.67,-60.65"/>
    </edge>
    <edge id="43614" from="28" to="29" priority="1" spreadType="center" length="6.80">
        <lane id="43614_0" index="0" disallow="rail_fast" speed="36.11" length="6.80" width="3.57" customShape="1" shape="-16.88,-67.34 -14.96,-67.33 -10.16,-67.29"/>
        <lane id="43614_1" index="1" disallow="rail_fast" speed="36.11" length="6.80" width="3.33" customShape="1" shape="-16.95,-63.88 -14.91,-63.87 -10.03,-63.85"/>
        <lane id="43614_2" index="2" disallow="rail_fast" speed="36.11" length="6.80" width="3.01" customShape="1" shape="-17.02,-60.71 -14.86,-60.70 -9.91,-60.68"/>
    </edge>
    <edge id="43618" from="22" to="12" priority="1" spreadType="center" length="7.65">
        <lane id="43618_0" index="0" disallow="rail_fast" speed="36.11" length="7.65" width="3.16" acceleration="1" customShape="1" shape="-10.45,-54.26 -10.65,-54.25"/>