<routes>
	<vehicle depart="0.1" departLane="1" departPos="0" departSpeed="6.2728" id="88" type="passenger">
		<route edges="43598 43628 43628 43638 43608 43608 43602 43488"/>
	</vehicle>
	<vehicle depart="0.1" departLane="1" departPos="11.030192030388353" departSpeed="6.2911" id="93" type="passenger">
		<route edges="43594 43632 43832 43382 43386 43390"/>
	</vehicle>
	<vehicle depart="0.1" departLane="2" departPos="36.283107905733544" departSpeed="4.5507" id="118" type="passenger">
		<route edges="43343 43594 43652 43602 43488"/>
	</vehicle>
	<vehicle depart="0.1" departLane="1" departPos="43.386084873697314" departSpeed="1.5301" id="124" type="passenger">
		<route edges="43343 43594 43632 43654 43632 43832 43382 43386 43390"/>
	</vehicle>
	<vehicle depart="0.1" departLane="1" departPos="25.834104494702288" departSpeed="0.039624" id="134" type="passenger">
		<route edges="43343 43594 43632 43832 43382 43386 43390"/>
	</vehicle>
	<vehicle depart="0.1" departLane="2" departPos="28.128978265124633" departSpeed="5.7241" id="154" type="passenger">
		<route edges="43343 43594 43652 43602 43488"/>
	</vehicle>
	<vehicle depart="0.1" departLane="1" departPos="34.107902974830054" departSpeed="0.0" id="160" type="passenger">
		<route edges="43343 43594 43632 43832 43382 43386 43390"/>
	</vehicle>
	<vehicle depart="0.1" departLane="1" departPos="0" departSpeed="0.0" id="172" type="passenger">
		<route edges="43343 43594 43632 43832 43382 43386 43390"/>
	</vehicle>
	<vehicle depart="0.1" departLane="1" departPos="0" departSpeed="0.0" id="187" type="passenger">
		<route edges="43343 43594 43632 43832 43382 43386 43390"/>
	</vehicle>
	<vehicle depart="0.1" departLane="0" departPos="10.044951238696472" departSpeed="1.3045" id="192" type="passenger">
		<route edges="43594 43632 43832 43382 43386 43390"/>
	</vehicle>
	<vehicle depart="0.1" departLane="2" departPos="0" departSpeed="5.7729" id="198" type="passenger">
		<route edges="43343 43594 43652 43602 43488"/>
	</vehicle>
	<vehicle depart="0.1" departLane="1" departPos="0" departSpeed="6.8184" id="225" type="passenger">
		<route edges="43602 43488"/>
	</vehicle>
	<vehicle depart="0.1" departLane="0" departPos="0" departSpeed="1.1887" id="249" type="passenger">
		<route edges="43640 43594 43640 43594 43632 43628 43618 43640 43476 43480 43484"/>
	</vehicle>
	<vehicle depart="0.1" departLane="1" departPos="0" departSpeed="0.21641" id="256" type="passenger">
		<route edges="43838 43638 43598 43205"/>
	</vehicle>
	<vehicle depart="0.1" departLane="0" departPos="0" departSpeed="2.3988" id="262" type="passenger">
		<route edges="43838 43646 43838 43638 43598 43205"/>
	</vehicle>
	<vehicle depart="0.1" departLane="0" departPos="24.582552466749814" departSpeed="0.96317" id="271" type="passenger">
		<route edges="43406 43646 43602 43488"/>
	</vehicle>
	<vehicle depart="0.1" departLane="1" departPos="0" departSpeed="0.12497" id="334" type="passenger">
		<route edges="43406 43838 43638 43598 43205"/>
	</vehicle>
	<vehicle depart="0.1" departLane="0" departPos="0" departSpeed="0.070104" id="335" type="passenger">
		<route edges="43406 43646 43488"/>
	</vehicle>
	<vehicle depart="0.1" departLane="0" departPos="0" departSpeed="0.11887" id="347" type="passenger">
		<route edges="43406 43646 43488"/>
	</vehicle>
	<vehicle depart="0.1" departLane="1" departPos="16.497655599778543" departSpeed="0.0" id="1689" type="passenger">
		<route edges="43406 43838 43638 43598 43205"/>
	</vehicle>
</routes>
