<routes>
	<vehicle depart="0.1" departLane="0" departPos="39.247160318489875" departSpeed="6.6634136" id="350" type="bus">
		<route edges=":27_5 2043 3279 1676"/>
	</vehicle>
	<vehicle depart="0.1" departLane="0" departPos="33.63991473472072" departSpeed="9.5376167" id="33" type="passenger">
		<route edges=":27_1 1697"/>
	</vehicle>
	<vehicle depart="0.1" departLane="0" departPos="21.908934894613605" departSpeed="0.10164369" id="38" type="passenger">
		<route edges=":27_3 2698"/>
	</vehicle>
	<vehicle depart="0.1" departLane="0" departPos="72.49998041668934" departSpeed="0.15085149" id="311" type="passenger">
		<route edges="1696 2043"/>
	</vehicle>
	<vehicle depart="0.1" departLane="1" departPos="11.296048818454054" departSpeed="0.008188297" id="326" type="passenger">
		<route edges="2045 1697"/>
	</vehicle>
	<vehicle depart="0.1" departLane="1" departPos="29.370794333494313" departSpeed="3.481743" id="332" type="passenger">
		<route edges=":29_0 2045 1697"/>
	</vehicle>
	<vehicle depart="0.1" departLane="0" departPos="2.5" departSpeed="17.394936" id="343" type="passenger">
		<route edges="1677 2045 2698"/>
	</vehicle>
	<vehicle depart="0.1" departLane="0" departPos="14.334288436503027" departSpeed="17.058981" id="345" type="passenger">
		<route edges="3519 1677 2045"/>
	</vehicle>
	<vehicle depart="0.1" departLane="0" departPos="11.027186171483352" departSpeed="6.367821" id="346" type="passenger">
		<route edges="3279 1676"/>
	</vehicle>
	<vehicle depart="0.1" departLane="0" departPos="10.664872955449212" departSpeed="5.2039274" id="357" type="passenger">
		<route edges="2697 1697"/>
	</vehicle>
</routes>
