<routes>
	<vehicle depart="0.1" departLane="0" departPos="3.394613013014945" departSpeed="1.2686956" id="36" type="bicycle">
		<route edges=":43_4 38565"/>
	</vehicle>
	<vehicle depart="0.1" departLane="0" departPos="57.8639050840963" departSpeed="0.30412932" id="38" type="bicycle">
		<route edges="38564 38561"/>
	</vehicle>
	<vehicle depart="0.1" departLane="0" departPos="58.101584429573265" departSpeed="5.7099876" id="343" type="bicycle">
		<route edges="38562 38565"/>
	</vehicle>
	<vehicle depart="0.1" departLane="0" departPos="7.947332445880872" departSpeed="6.903389" id="37" type="passenger">
		<route edges=":43_4 38565"/>
	</vehicle>
	<vehicle depart="0.1" departLane="0" departPos="44.68962360757022" departSpeed="0.66608039" id="310" type="passenger">
		<route edges="38564 38561"/>
	</vehicle>
	<vehicle depart="0.1" departLane="0" departPos="21.288125774073063" departSpeed="0.0" id="319" type="passenger">
		<route edges=":42_0 38161"/>
	</vehicle>
	<vehicle depart="0.1" departLane="0" departPos="68.38824798108797" departSpeed="0.048937506" id="323" type="passenger">
		<route edges="38564 38561"/>
	</vehicle>
	<vehicle depart="0.1" departLane="0" departPos="38.31661829031413" departSpeed="4.0088961" id="329" type="passenger">
		<route edges="38562 38565"/>
	</vehicle>
	<vehicle depart="0.1" departLane="0" departPos="26.99291106810107" departSpeed="2.0556316" id="334" type="passenger">
		<route edges="38562 38565"/>
	</vehicle>
	<vehicle depart="0.1" departLane="0" departPos="16.21747728036079" departSpeed="1.3786547" id="30" type="truck">
		<route edges=":43_2 38163"/>
	</vehicle>
</routes>
