<!-- generated on 2020-12-18 16:44:33.557894 by ipykernel_launcher.py v1_2_0+5214-53edc58fcd
-->
<connections>
	<connection contPos="-4.0" from="29" fromLane="0" keepClear="true" to="49" toLane="0"/>
	<connection contPos="-4.0" from="29" fromLane="0" keepClear="true" to="43" toLane="0"/>
	<connection contPos="-4.0" from="31" fromLane="0" keepClear="true" to="39" toLane="0"/>
	<connection contPos="-4.0" from="31" fromLane="0" keepClear="true" to="45" toLane="0"/>
	<connection contPos="-4.0" from="31" fromLane="0" keepClear="true" to="44" toLane="0"/>
	<connection contPos="-4.0" from="32" fromLane="0" keepClear="true" to="46" toLane="0"/>
	<connection contPos="-4.0" from="32" fromLane="0" keepClear="true" to="48" toLane="0"/>
	<connection contPos="-4.0" from="34" fromLane="0" keepClear="true" to="51" toLane="0"/>
	<connection contPos="-4.0" from="34" fromLane="0" keepClear="true" to="50" toLane="0"/>
	<connection contPos="-4.0" from="35" fromLane="0" keepClear="true" to="41" toLane="0"/>
	<connection contPos="-4.0" from="35" fromLane="0" keepClear="true" to="40" toLane="0"/>
	<connection contPos="-4.0" from="37" fromLane="0" keepClear="true" to="42" toLane="0"/>
	<connection contPos="-4.0" from="37" fromLane="0" keepClear="true" to="47" toLane="0"/>
	<connection contPos="-4.0" from="39" fromLane="0" keepClear="true" to="38" toLane="0"/>
	<connection contPos="-4.0" from="40" fromLane="0" keepClear="true" to="33" toLane="0"/>
	<connection contPos="-4.0" from="41" fromLane="0" keepClear="true" to="36" toLane="0"/>
	<connection contPos="-4.0" from="42" fromLane="0" keepClear="true" to="33" toLane="0"/>
	<connection contPos="-4.0" from="43" fromLane="0" keepClear="true" to="35" toLane="0"/>
	<connection contPos="-4.0" from="44" fromLane="0" keepClear="true" to="30" toLane="0"/>
	<connection contPos="-4.0" from="45" fromLane="0" keepClear="true" to="35" toLane="0"/>
	<connection contPos="-4.0" from="46" fromLane="0" keepClear="true" to="36" toLane="0"/>
	<connection contPos="-4.0" from="47" fromLane="0" keepClear="true" to="34" toLane="0"/>
	<connection contPos="-4.0" from="48" fromLane="0" keepClear="true" to="34" toLane="0"/>
	<connection contPos="-4.0" from="49" fromLane="0" keepClear="true" to="38" toLane="0"/>
	<connection contPos="-4.0" from="50" fromLane="0" keepClear="true" to="30" toLane="0"/>
	<connection contPos="-4.0" from="51" fromLane="0" keepClear="true" to="38" toLane="0"/>
</connections>
