<?xml version="1.0" encoding="UTF-8"?>

<!-- generated on Fri Dec 18 16:44:33 2020 by Eclipse SUMO netconvert Version 1.8.0
<configuration xmlns:xsi="http://www.w3.org/2001/XMLSchema-instance" xsi:noNamespaceSchemaLocation="http://sumo.dlr.de/xsd/netconvertConfiguration.xsd">

    <input>
        <node-files value="./converted_scenarios/SUMO/DEU_Muc-11_1_I-1-1/nodes.net.xml"/>
        <edge-files value="./converted_scenarios/SUMO/DEU_Muc-11_1_I-1-1/edges.net.xml"/>
        <connection-files value="./converted_scenarios/SUMO/DEU_Muc-11_1_I-1-1/_connections.net.xml"/>
        <tllogic-files value="./converted_scenarios/SUMO/DEU_Muc-11_1_I-1-1/_tll.net.xml"/>
    </input>

    <output>
        <output-file value="./converted_scenarios/SUMO/DEU_Muc-11_1_I-1-1/DEU_Muc-11_1_I-1-1.net.xml"/>
    </output>

    <processing>
        <plain.extend-edge-shape value="true"/>
        <geometry.remove.keep-edges.explicit value="true"/>
        <geometry.avoid-overlap value="true"/>
        <offset.disable-normalization value="true"/>
    </processing>

    <junctions>
        <no-turnarounds value="true"/>
        <junctions.internal-link-detail value="20"/>
    </junctions>

    <report>
        <aggregate-warnings value="5"/>
    </report>

    <random_number>
        <seed value="1234"/>
    </random_number>

</configuration>
-->

<net version="1.6" junctionCornerDetail="5" junctionLinkDetail="20" limitTurnSpeed="5.50" xmlns:xsi="http://www.w3.org/2001/XMLSchema-instance" xsi:noNamespaceSchemaLocation="http://sumo.dlr.de/xsd/net_file.xsd">

    <location netOffset="0.00,0.00" convBoundary="-26.14,-56.86,87.61,69.35" origBoundary="-26.14,-56.86,87.61,69.35" projParameter="!"/>

    <edge id=":11_0" function="internal">
        <lane id=":11_0_0" index="0" disallow="bus truck rail_fast" speed="36.11" length="8.37" width="2.50" shape="-20.05,44.57 -19.44,44.40 -18.90,44.24 -18.41,44.10 -17.97,43.96 -17.57,43.84 -17.20,43.72 -16.85,43.61 -16.52,43.50 -16.21,43.39 -15.90,43.27 -15.58,43.15 -15.26,43.03 -14.92,42.89 -14.56,42.74 -14.17,42.58 -13.75,42.40 -13.28,42.21 -12.76,41.99 -12.18,41.75"/>
    </edge>
    <edge id=":11_1" function="internal">
        <lane id=":11_1_0" index="0" disallow="bus truck rail_fast" speed="10.54" length="9.46" width="2.50" shape="-19.11,47.59 -18.82,46.97 -18.54,46.42 -18.27,45.93 -18.01,45.49 -17.75,45.09 -17.49,44.74 -17.22,44.43 -16.95,44.15 -16.66,43.90 -16.35,43.67 -16.02,43.45 -15.67,43.25 -15.28,43.06 -14.87,42.87 -14.42,42.67 -13.93,42.46 -13.39,42.25 -12.81,42.01 -12.18,41.75"/>
    </edge>
    <edge id=":12_0" function="internal">
        <lane id=":12_0_0" index="0" disallow="bus truck rail_fast" speed="36.11" length="2.98" width="2.48" shape="-2.10,36.99 -1.90,36.88 -1.73,36.78 -1.57,36.69 -1.42,36.61 -1.29,36.54 -1.17,36.47 -1.06,36.41 -0.95,36.34 -0.85,36.28 -0.75,36.22 -0.65,36.16 -0.55,36.09 -0.44,36.02 -0.32,35.94 -0.20,35.85 -0.06,35.76 0.09,35.66 0.25,35.54 0.43,35.41"/>
    </edge>
    <edge id=":12_1" function="internal">
        <lane id=":12_1_0" index="0" disallow="bus truck rail_fast" speed="36.11" length="2.99" width="2.50" shape="-2.10,36.99 -1.90,36.88 -1.73,36.78 -1.57,36.69 -1.42,36.61 -1.29,36.54 -1.17,36.47 -1.06,36.41 -0.95,36.35 -0.85,36.28 -0.75,36.22 -0.65,36.16 -0.54,36.09 -0.44,36.02 -0.32,35.94 -0.20,35.86 -0.06,35.76 0.09,35.66 0.26,35.55 0.44,35.42"/>
    </edge>
    <edge id=":13_0" function="internal">
        <lane id=":13_0_0" index="0" disallow="bus truck rail_fast" speed="36.11" length="6.19" width="2.50" shape="4.74,36.58 4.31,36.74 3.92,36.89 3.56,37.02 3.24,37.14 2.95,37.25 2.69,37.36 2.44,37.46 2.20,37.56 1.98,37.66 1.75,37.77 1.53,37.87 1.30,37.99 1.06,38.11 0.81,38.25 0.53,38.39 0.23,38.56 -0.10,38.74 -0.46,38.94 -0.87,39.16"/>
    </edge>
    <edge id=":13_1" function="internal">
        <lane id=":13_1_0" index="0" disallow="bus truck rail_fast" speed="18.75" length="9.09" width="2.50" shape="5.95,33.32 5.53,33.85 5.15,34.33 4.81,34.76 4.49,35.15 4.20,35.51 3.92,35.83 3.65,36.12 3.38,36.39 3.11,36.64 2.84,36.88 2.55,37.10 2.25,37.33 1.92,37.55 1.56,37.78 1.17,38.02 0.73,38.27 0.25,38.54 -0.28,38.84 -0.87,39.16"/>
    </edge>
    <edge id=":14_0" function="internal">
        <lane id=":14_0_0" index="0" disallow="bus truck rail_fast" speed="6.89" length="7.47" width="2.50" shape="-11.21,44.05 -11.80,44.30 -12.35,44.55 -12.88,44.79 -13.37,45.04 -13.83,45.28 -14.25,45.52 -14.65,45.76 -15.01,45.99 -15.34,46.22 -15.64,46.45 -15.91,46.68 -16.15,46.90 -16.35,47.13 -16.52,47.35 -16.66,47.57 -16.77,47.78 -16.85,48.00 -16.89,48.21 -16.90,48.42"/>
    </edge>
    <edge id=":14_1" function="internal">
        <lane id=":14_1_0" index="0" disallow="bus truck rail_fast" speed="36.11" length="8.59" width="2.49" shape="-11.21,44.05 -11.80,44.30 -12.34,44.52 -12.82,44.73 -13.26,44.91 -13.66,45.08 -14.03,45.23 -14.37,45.37 -14.70,45.50 -15.03,45.63 -15.34,45.74 -15.67,45.86 -16.00,45.97 -16.36,46.09 -16.74,46.20 -17.16,46.33 -17.61,46.46 -18.12,46.60 -18.67,46.76 -19.30,46.93"/>
    </edge>
    <edge id=":15_0" function="internal">
        <lane id=":15_0_0" index="0" disallow="bus truck rail_fast" speed="19.44" length="5.92" width="2.50" shape="-16.90,48.62 -16.89,49.06 -16.88,49.45 -16.86,49.81 -16.85,50.14 -16.83,50.44 -16.81,50.71 -16.78,50.97 -16.74,51.21 -16.70,51.45 -16.65,51.67 -16.59,51.91 -16.52,52.14 -16.44,52.39 -16.35,52.65 -16.25,52.93 -16.13,53.24 -16.00,53.57 -15.86,53.95 -15.70,54.36"/>
    </edge>
    <edge id=":15_1" function="internal">
        <lane id=":15_1_0" index="0" disallow="bus truck rail_fast" speed="13.28" length="7.92" width="2.50" shape="-19.95,47.86 -19.50,48.24 -19.10,48.58 -18.75,48.90 -18.43,49.20 -18.15,49.48 -17.90,49.75 -17.68,50.01 -17.49,50.28 -17.31,50.54 -17.15,50.81 -16.99,51.10 -16.85,51.40 -16.71,51.72 -16.57,52.07 -16.42,52.45 -16.26,52.86 -16.09,53.31 -15.91,53.81 -15.70,54.36"/>
    </edge>
    <edge id=":18_0" function="internal">
        <lane id=":18_0_0" index="0" disallow="bus truck rail_fast" speed="9.38" length="6.74" width="2.49" shape="-18.11,55.05 -18.28,54.59 -18.43,54.16 -18.55,53.77 -18.66,53.40 -18.77,53.05 -18.86,52.73 -18.95,52.44 -19.05,52.15 -19.15,51.89 -19.26,51.64 -19.39,51.40 -19.54,51.16 -19.72,50.94 -19.92,50.71 -20.16,50.49 -20.44,50.27 -20.76,50.04 -21.13,49.81 -21.55,49.57"/>
    </edge>
    <edge id=":18_1" function="internal">
        <lane id=":18_1_0" index="0" disallow="bus truck rail_fast" speed="8.96" length="7.51" width="2.50" shape="-18.11,55.05 -18.32,54.51 -18.50,53.98 -18.67,53.47 -18.83,52.98 -18.97,52.51 -19.09,52.06 -19.20,51.62 -19.29,51.21 -19.36,50.80 -19.42,50.42 -19.46,50.06 -19.48,49.71 -19.49,49.38 -19.48,49.07 -19.46,48.77 -19.42,48.50 -19.36,48.24 -19.28,48.00 -19.19,47.77"/>
    </edge>
    <edge id=":19_0" function="internal">
        <lane id=":19_0_0" index="0" disallow="bus truck rail_fast" speed="36.11" length="8.59" width="2.50" shape="5.35,29.69 2.75,21.50"/>
    </edge>
    <edge id=":19_1" function="internal">
        <lane id=":19_1_0" index="0" disallow="bus truck rail_fast" speed="10.92" length="7.99" width="2.50" shape="6.92,28.02 6.45,27.68 6.03,27.36 5.66,27.06 5.33,26.77 5.04,26.50 4.78,26.23 4.55,25.97 4.35,25.70 4.17,25.43 4.01,25.16 3.87,24.86 3.73,24.55 3.60,24.22 3.48,23.86 3.35,23.47 3.22,23.04 3.07,22.57 2.92,22.06 2.75,21.50"/>
    </edge>
    <edge id=":19_2" function="internal">
        <lane id=":19_2_0" index="0" disallow="bus truck rail_fast" speed="10.11" length="12.03" width="2.50" shape="2.58,33.13 2.84,32.73 3.08,32.32 3.29,31.87 3.47,31.41 3.62,30.91 3.74,30.40 3.83,29.86 3.90,29.30 3.94,28.71 3.95,28.10 3.93,27.46 3.88,26.80 3.80,26.12 3.70,25.41 3.57,24.68 3.40,23.92 3.21,23.14 3.00,22.33 2.75,21.50"/>
    </edge>
    <edge id=":2_0" function="internal">
        <lane id=":2_0_0" index="0" disallow="bus truck rail_fast" speed="30.33" length="9.14" width="2.50" shape="13.99,24.81 13.43,25.19 12.93,25.54 12.48,25.86 12.07,26.16 11.71,26.45 11.38,26.72 11.08,26.98 10.81,27.24 10.55,27.50 10.30,27.76 10.06,28.04 9.82,28.33 9.57,28.65 9.31,28.99 9.03,29.36 8.72,29.76 8.38,30.21 8.01,30.69 7.59,31.23"/>
    </edge>
    <edge id=":2_1" function="internal">
        <lane id=":2_1_0" index="0" disallow="bus truck rail_fast" speed="6.96" length="7.83" width="2.50" shape="13.99,24.81 13.38,25.22 12.79,25.60 12.23,25.96 11.70,26.29 11.19,26.60 10.72,26.88 10.27,27.13 9.85,27.36 9.46,27.56 9.09,27.73 8.76,27.88 8.45,28.00 8.17,28.10 7.92,28.17 7.69,28.22 7.50,28.24 7.33,28.23 7.19,28.20 7.08,28.14"/>
    </edge>
    <edge id=":3_0" function="internal">
        <lane id=":3_0_0" index="0" disallow="bus truck rail_fast" speed="12.85" length="3.45" width="2.50" shape="9.93,24.69 10.10,24.49 10.25,24.32 10.39,24.16 10.52,24.02 10.64,23.90 10.75,23.78 10.86,23.68 10.97,23.58 11.07,23.49 11.18,23.41 11.30,23.33 11.41,23.25 11.54,23.17 11.68,23.09 11.84,23.00 12.00,22.91 12.19,22.81 12.40,22.71 12.63,22.59"/>
    </edge>
    <edge id=":3_1" function="internal">
        <lane id=":3_1_0" index="0" disallow="bus truck rail_fast" speed="8.93" length="3.25" width="2.50" shape="10.08,24.50 10.22,24.31 10.35,24.14 10.47,23.98 10.58,23.85 10.69,23.73 10.79,23.62 10.90,23.52 11.00,23.44 11.11,23.36 11.22,23.29 11.33,23.23 11.45,23.16 11.58,23.09 11.72,23.03 11.87,22.96 12.03,22.88 12.21,22.79 12.41,22.70 12.63,22.59"/>
    </edge>
    <edge id=":6_0" function="internal">
        <lane id=":6_0_0" index="0" disallow="bus truck rail_fast" speed="5.97" length="7.70" width="2.50" shape="9.58,41.80 9.35,41.17 9.11,40.58 8.88,40.03 8.64,39.51 8.40,39.04 8.16,38.61 7.92,38.21 7.68,37.85 7.43,37.53 7.19,37.26 6.94,37.02 6.69,36.82 6.45,36.66 6.20,36.53 5.95,36.45 5.69,36.41 5.44,36.40 5.19,36.44 4.93,36.51"/>
    </edge>
    <edge id=":6_1" function="internal">
        <lane id=":6_1_0" index="0" disallow="bus truck rail_fast" speed="36.11" length="12.64" width="2.50" shape="9.58,41.80 5.41,29.88"/>
    </edge>
    <edge id=":6_2" function="internal">
        <lane id=":6_2_0" index="0" disallow="bus truck rail_fast" speed="11.45" length="16.06" width="2.50" shape="9.58,41.80 9.19,40.67 8.83,39.57 8.52,38.50 8.24,37.47 8.01,36.48 7.81,35.52 7.65,34.60 7.53,33.71 7.45,32.86 7.41,32.04 7.41,31.26 7.45,30.52 7.53,29.81 7.65,29.13 7.81,28.49 8.00,27.89 8.24,27.32 8.52,26.79 8.83,26.29"/>
    </edge>
    <edge id=":8_0" function="internal">
        <lane id=":8_0_0" index="0" disallow="bus truck rail_fast" speed="9.28" length="5.80" width="2.49" shape="-25.85,44.79 -25.45,44.94 -25.09,45.06 -24.76,45.17 -24.46,45.25 -24.18,45.31 -23.91,45.36 -23.66,45.38 -23.42,45.39 -23.19,45.39 -22.96,45.36 -22.72,45.33 -22.48,45.28 -22.22,45.21 -21.95,45.14 -21.67,45.06 -21.35,44.96 -21.02,44.86 -20.64,44.75 -20.24,44.63"/>
    </edge>
    <edge id=":8_1" function="internal">
        <lane id=":8_1_0" index="0" disallow="bus truck rail_fast" speed="24.82" length="6.51" width="2.50" shape="-25.85,44.79 -25.39,44.96 -24.98,45.11 -24.61,45.25 -24.27,45.37 -23.95,45.48 -23.67,45.58 -23.40,45.68 -23.14,45.78 -22.90,45.88 -22.66,45.98 -22.43,46.10 -22.19,46.23 -21.95,46.37 -21.70,46.53 -21.43,46.71 -21.14,46.92 -20.82,47.16 -20.48,47.43 -20.11,47.74"/>
    </edge>
    <edge id=":9_0" function="internal">
        <lane id=":9_0_0" index="0" disallow="bus truck rail_fast" speed="36.11" length="5.47" width="2.49" shape="-21.73,49.47 -22.08,49.28 -22.41,49.10 -22.70,48.94 -22.96,48.79 -23.20,48.65 -23.43,48.53 -23.64,48.42 -23.84,48.31 -24.03,48.22 -24.23,48.12 -24.43,48.03 -24.63,47.94 -24.85,47.85 -25.09,47.75 -25.34,47.65 -25.63,47.54 -25.94,47.43 -26.28,47.30 -26.67,47.17"/>
    </edge>
    <edge id=":9_1" function="internal">
        <lane id=":9_1_0" index="0" disallow="bus truck rail_fast" speed="10.89" length="7.20" width="2.49" shape="-19.67,47.03 -20.18,47.17 -20.64,47.30 -21.06,47.42 -21.45,47.53 -21.81,47.63 -22.15,47.71 -22.46,47.78 -22.76,47.83 -23.05,47.87 -23.34,47.89 -23.63,47.89 -23.93,47.88 -24.24,47.84 -24.57,47.78 -24.92,47.71 -25.30,47.61 -25.72,47.48 -26.17,47.34 -26.67,47.17"/>
    </edge>

    <edge id="29" from="1" to="2" priority="1" spreadType="center" length="76.05">
        <lane id="29_0" index="0" disallow="bus truck rail_fast" speed="36.11" length="76.05" width="2.50" customShape="1" shape="87.61,18.60 83.61,18.70 60.09,18.88 47.09,19.13 37.10,19.65 28.13,20.46 24.16,21.01 20.75,21.81 17.45,22.98 14.76,24.30 13.99,24.81"/>
    </edge>
    <edge id="30" from="3" to="4" priority="1" spreadType="center" length="77.64">
        <lane id="30_0" index="0" disallow="bus truck rail_fast" speed="36.11" length="77.64" width="2.50" customShape="1" shape="12.63,22.59 16.22,20.79 19.67,19.53 23.23,18.65 27.32,18.04 36.44,17.19 46.58,16.65 59.75,16.39 83.51,16.20 87.54,16.10"/>
    </edge>
    <edge id="31" from="5" to="6" priority="1" spreadType="center" length="23.17">
        <lane id="31_0" index="0" disallow="rail_fast" speed="36.11" length="23.17" width="2.50" customShape="1" shape="16.55,61.24 12.64,50.33 9.58,41.80"/>
    </edge>
    <edge id="32" from="7" to="8" priority="1" spreadType="center" length="0.23">
        <lane id="32_0" index="0" disallow="bus truck rail_fast" speed="36.11" length="0.23" width="2.50" customShape="1" shape="-26.03,44.72 -25.85,44.79"/>
    </edge>
    <edge id="33" from="9" to="10" priority="1" spreadType="center" length="0.27">
        <lane id="33_0" index="0" disallow="bus truck rail_fast" speed="36.11" length="0.27" width="2.49" customShape="1" shape="-26.67,47.17 -26.86,47.10"/>
    </edge>
    <edge id="34" from="11" to="12" priority="1" spreadType="center" length="14.17">
        <lane id="34_0" index="0" disallow="bus truck rail_fast" speed="36.11" length="14.17" width="2.50" customShape="1" shape="-12.18,41.75 -9.84,40.77 -4.77,38.44 -2.10,36.99"/>
    </edge>
    <edge id="35" from="13" to="14" priority="1" spreadType="center" length="14.55">
        <lane id="35_0" index="0" disallow="bus truck rail_fast" speed="36.11" length="14.55" width="2.50" customShape="1" shape="-0.87,39.16 -3.62,40.66 -8.81,43.05 -11.21,44.05"/>
    </edge>
    <edge id="36" from="15" to="16" priority="1" spreadType="center" length="16.81">
        <lane id="36_0" index="0" disallow="rail_fast" speed="36.11" length="16.81" width="2.50" customShape="1" shape="-15.70,54.36 -13.28,60.62 -10.26,68.45"/>
    </edge>
    <edge id="37" from="17" to="18" priority="1" spreadType="center" length="16.81">
        <lane id="37_0" index="0" disallow="rail_fast" speed="36.11" length="16.81" width="2.50" customShape="1" shape="-12.59,69.35 -15.61,61.52 -18.11,55.05"/>
    </edge>
    <edge id="38" from="19" to="20" priority="1" spreadType="center" length="83.46">
        <lane id="38_0" index="0" disallow="rail_fast" speed="36.11" length="83.46" width="2.50" customShape="1" shape="2.75,21.50 -4.24,-1.03 -21.10,-56.86"/>
    </edge>
    <edge id="39" from="6" to="19" priority="1" spreadType="center" length="17.36">
        <lane id="39_0" index="0" disallow="bus truck rail_fast" speed="36.11" length="17.36" width="2.50" customShape="1" shape="5.41,29.88 5.35,29.69"/>
    </edge>
    <edge id="40" from="14" to="9" priority="1" spreadType="center" length="13.75">
        <lane id="40_0" index="0" disallow="bus truck rail_fast" speed="36.11" length="13.75" width="2.49" customShape="1" shape="-19.30,46.93 -19.67,47.03"/>
    </edge>
    <edge id="41" from="14" to="15" priority="1" spreadType="center" length="10.15">
        <lane id="41_0" index="0" disallow="bus truck rail_fast" speed="36.11" length="10.15" width="2.50" customShape="1" shape="-16.90,48.42 -16.90,48.62"/>
    </edge>
    <edge id="42" from="18" to="9" priority="1" spreadType="center" length="9.86">
        <lane id="42_0" index="0" disallow="bus truck rail_fast" speed="36.11" length="9.86" width="2.49" customShape="1" shape="-21.55,49.57 -21.73,49.47"/>
    </edge>
    <edge id="43" from="2" to="13" priority="1" spreadType="center" length="17.69">
        <lane id="43_0" index="0" disallow="bus truck rail_fast" speed="36.11" length="17.69" width="2.50" customShape="1" shape="7.59,31.23 5.95,33.32"/>
    </edge>
    <edge id="44" from="6" to="3" priority="1" spreadType="center" length="17.07">
        <lane id="44_0" index="0" disallow="bus truck rail_fast" speed="36.11" length="17.07" width="2.50" customShape="1" shape="8.83,26.29 10.08,24.50"/>
    </edge>
    <edge id="45" from="6" to="13" priority="1" spreadType="center" length="9.85">
        <lane id="45_0" index="0" disallow="bus truck rail_fast" speed="36.11" length="9.85" width="2.50" customShape="1" shape="4.93,36.51 4.74,36.58"/>
    </edge>
    <edge id="46" from="8" to="15" priority="1" spreadType="center" length="12.06">
        <lane id="46_0" index="0" disallow="bus truck rail_fast" speed="36.11" length="12.06" width="2.50" customShape="1" shape="-20.11,47.74 -19.95,47.86"/>
    </edge>
    <edge id="47" from="18" to="11" priority="1" spreadType="center" length="14.06">
        <lane id="47_0" index="0" disallow="bus truck rail_fast" speed="36.11" length="14.06" width="2.50" customShape="1" shape="-19.19,47.77 -19.11,47.59"/>
    </edge>
    <edge id="48" from="8" to="11" priority="1" spreadType="center" length="11.97">
        <lane id="48_0" index="0" disallow="bus truck rail_fast" speed="36.11" length="11.97" width="2.49" customShape="1" shape="-20.24,44.63 -20.05,44.57"/>
    </edge>
    <edge id="49" from="2" to="19" priority="1" spreadType="center" length="12.62">
        <lane id="49_0" index="0" disallow="bus truck rail_fast" speed="36.11" length="12.62" width="2.50" customShape="1" shape="7.08,28.14 6.92,28.02"/>
    </edge>
    <edge id="50" from="12" to="3" priority="1" spreadType="center" length="17.40">
        <lane id="50_0" index="0" disallow="bus truck rail_fast" speed="36.11" length="17.40" width="2.48" customShape="1" shape="0.43,35.41 0.88,35.10 2.38,33.71 3.77,32.15 7.14,27.83 9.93,24.69"/>
    </edge>
    <edge id="51" from="12" to="19" priority="1" spreadType="center" length="15.19">
        <lane id="51_0" index="0" disallow="bus truck rail_fast" speed="36.11" length="15.19" width="2.50" customShape="1" shape="0.44,35.42 0.62,35.30 1.84,34.14 2.58,33.13"/>
    </edge>

    <junction id="1" type="dead_end" x="87.61" y="18.60" incLanes="" intLanes="" shape="87.58,17.35 87.64,19.85"/>
    <junction id="10" type="dead_end" x="-26.14" y="47.35" incLanes="33_0" intLanes="" shape="-26.56,48.53 -25.73,46.18"/>
    <junction id="11" type="priority" x="-13.59" y="42.34" incLanes="48_0 47_0" intLanes=":11_0_0 :11_1_0" shape="-11.70,42.90 -12.66,40.59 -14.59,41.43 -16.01,42.08 -17.20,42.59 -18.41,43.01 -19.91,43.38 -21.98,43.76 -21.09,46.13 -20.55,46.18 -20.38,46.31 -20.28,46.53 -20.26,46.82 -20.27,47.11 -18.14,49.90 -17.46,47.22 -16.57,46.01 -15.32,44.89 -13.69,43.85">
        <request index="0" response="00" foes="10" cont="0"/>
        <request index="1" response="01" foes="01" cont="0"/>
    </junction>
    <junction id="12" type="priority" x="-0.80" y="36.28" incLanes="34_0" intLanes=":12_0_0 :12_1_0" shape="1.16,36.44 -0.27,34.40 -1.14,34.99 -1.45,35.19 -1.77,35.38 -2.16,35.60 -2.70,35.89 -1.50,38.08 -0.49,37.52 -0.14,37.31 0.20,37.09 0.61,36.82">
        <request index="0" response="00" foes="00" cont="0"/>
        <request index="1" response="00" foes="00" cont="0"/>
    </junction>
    <junction id="13" type="priority" x="0.50" y="38.41" incLanes="45_0 43_0" intLanes=":13_0_0 :13_1_0" shape="7.55,39.84 7.18,35.84 6.58,35.46 6.44,35.23 6.42,34.98 6.50,34.69 6.70,34.38 5.19,32.26 3.12,34.84 2.29,35.67 1.37,36.39 0.18,37.14 -1.47,38.06 -0.27,40.25 1.71,39.28 3.42,38.66 4.86,38.41 6.03,38.53 6.92,39.00">
        <request index="0" response="00" foes="10" cont="0"/>
        <request index="1" response="01" foes="01" cont="0"/>
    </junction>
    <junction id="14" type="priority" x="-12.63" y="44.64" incLanes="35_0" intLanes=":14_0_0 :14_1_0" shape="-10.73,45.20 -11.69,42.90 -14.75,44.17 -15.83,44.58 -16.93,44.95 -18.27,45.35 -20.11,45.86 -19.23,48.20 -18.63,48.20 -18.42,48.35 -18.27,48.59 -18.17,48.93 -18.11,49.27 -15.23,52.05 -15.35,49.34 -14.81,48.15 -13.85,47.06 -12.49,46.08">
        <request index="0" response="00" foes="00" cont="0"/>
        <request index="1" response="00" foes="00" cont="0"/>
    </junction>
    <junction id="15" type="priority" x="-16.31" y="52.77" incLanes="41_0 46_0" intLanes=":15_0_0 :15_1_0" shape="-16.86,54.81 -14.53,53.91 -15.35,50.65 -15.31,49.31 -14.98,48.16 -14.35,47.21 -13.43,46.46 -17.17,46.57 -17.81,47.14 -18.13,47.25 -18.45,47.26 -18.78,47.15 -19.11,46.94 -21.60,48.19 -19.20,50.07 -18.52,50.93 -17.99,51.91 -17.49,53.16">
        <request index="0" response="00" foes="10" cont="0"/>
        <request index="1" response="01" foes="01" cont="0"/>
    </junction>
    <junction id="16" type="dead_end" x="-10.26" y="68.45" incLanes="36_0" intLanes="" shape="-9.09,68.00 -11.42,68.90"/>
    <junction id="17" type="dead_end" x="-12.59" y="69.35" incLanes="" intLanes="" shape="-11.43,68.90 -13.76,69.80"/>
    <junction id="18" type="priority" x="-18.64" y="53.67" incLanes="37_0" intLanes=":18_0_0 :18_1_0" shape="-19.28,55.50 -16.94,54.60 -17.95,51.23 -18.13,49.82 -18.08,48.60 -17.82,47.57 -17.37,46.79 -20.35,47.45 -20.63,48.13 -20.86,48.29 -21.13,48.33 -21.46,48.24 -21.84,48.04 -24.40,49.42 -22.36,50.72 -21.46,51.64 -20.65,52.75 -19.92,54.03">
        <request index="0" response="00" foes="00" cont="0"/>
        <request index="1" response="00" foes="00" cont="0"/>
    </junction>
    <junction id="19" type="priority" x="3.21" y="22.97" incLanes="39_0 49_0 51_0" intLanes=":19_0_0 :19_1_0 :19_2_0" shape="5.22,33.02 7.60,32.26 7.18,30.58 7.17,29.98 7.30,29.53 7.55,29.25 7.93,29.13 10.75,25.51 8.00,26.41 6.81,25.98 5.73,24.95 4.78,23.34 3.94,21.13 1.56,21.87 2.26,24.51 2.64,26.86 2.69,28.91 2.42,30.67 1.82,32.14 0.91,33.30 4.12,32.97 4.52,32.38 4.71,32.31 4.89,32.39 5.06,32.63">
        <request index="0" response="110" foes="110" cont="0"/>
        <request index="1" response="100" foes="101" cont="0"/>
        <request index="2" response="000" foes="011" cont="0"/>
    </junction>
    <junction id="2" type="priority" x="12.67" y="25.70" incLanes="29_0" intLanes=":2_0_0 :2_1_0" shape="14.69,25.85 13.30,23.78 11.35,24.96 9.65,25.75 8.20,26.13 7.01,26.10 6.08,25.67 5.40,24.83 6.20,28.84 6.79,29.26 6.94,29.50 6.98,29.75 6.91,30.01 6.74,30.29 8.43,32.17 10.45,29.53 11.20,28.63 12.03,27.81 13.13,26.93">
        <request index="0" response="00" foes="00" cont="0"/>
        <request index="1" response="00" foes="00" cont="0"/>
    </junction>
    <junction id="20" type="dead_end" x="-21.10" y="-56.86" incLanes="38_0" intLanes="" shape="-22.30,-56.50 -19.90,-57.22"/>
    <junction id="3" type="priority" x="11.14" y="23.73" incLanes="50_0 44_0" intLanes=":3_0_0 :3_1_0" shape="13.19,23.71 12.06,21.48 10.77,22.11 10.33,22.37 9.94,22.69 9.54,23.14 9.06,23.79 11.10,25.22 14.43,20.33 16.28,17.31 16.66,16.15 15.58,16.86 13.02,19.43 9.00,23.86 10.85,25.51 11.60,24.70 11.89,24.44 12.21,24.23 12.62,24.00">
        <request index="0" response="10" foes="10" cont="0"/>
        <request index="1" response="00" foes="01" cont="0"/>
    </junction>
    <junction id="4" type="dead_end" x="87.54" y="16.10" incLanes="30_0" intLanes="" shape="87.51,14.85 87.57,17.35"/>
    <junction id="5" type="dead_end" x="16.55" y="61.24" incLanes="" intLanes="" shape="17.73,60.81 15.38,61.66"/>
    <junction id="6" type="priority" x="8.73" y="39.43" incLanes="31_0" intLanes=":6_0_0 :6_1_0 :6_2_0" shape="8.41,42.23 10.76,41.38 9.61,37.79 8.91,34.61 8.65,31.85 8.83,29.50 9.45,27.57 10.52,26.05 7.28,26.52 6.67,27.44 6.38,27.55 6.12,27.42 5.87,27.07 5.64,26.48 3.28,27.29 3.96,29.64 4.39,31.61 4.56,33.19 4.48,34.40 4.15,35.24 3.65,35.67 1.13,39.49">
        <request index="0" response="000" foes="000" cont="0"/>
        <request index="1" response="000" foes="000" cont="0"/>
        <request index="2" response="000" foes="000" cont="0"/>
    </junction>
    <junction id="7" type="dead_end" x="-25.31" y="45.00" incLanes="" intLanes="" shape="-25.76,46.16 -24.86,43.83"/>
    <junction id="8" type="priority" x="-25.10" y="45.08" incLanes="32_0" intLanes=":8_0_0 :8_1_0" shape="-20.24,49.24 -19.21,46.85 -19.68,46.31 -19.71,46.08 -19.60,45.87 -19.36,45.70 -18.98,45.56 -18.56,42.85 -26.12,43.34 -27.02,45.67">
        <request index="0" response="00" foes="00" cont="0"/>
        <request index="1" response="00" foes="00" cont="0"/>
    </junction>
    <junction id="9" type="priority" x="-25.89" y="47.44" incLanes="42_0 40_0" intLanes=":9_0_0 :9_1_0" shape="-20.99,52.11 -19.86,49.63 -20.26,49.04 -20.27,48.80 -20.15,48.59 -19.91,48.42 -19.53,48.28 -19.06,45.57 -26.97,45.74 -27.80,48.09">
        <request index="0" response="00" foes="10" cont="0"/>
        <request index="1" response="01" foes="01" cont="0"/>
    </junction>

    <connection from="29" to="43" fromLane="0" toLane="0" contPos="-4.00" via=":2_0_0" dir="R" state="M"/>
    <connection from="29" to="49" fromLane="0" toLane="0" contPos="-4.00" via=":2_1_0" dir="s" state="M"/>
    <connection from="31" to="45" fromLane="0" toLane="0" contPos="-4.00" via=":6_0_0" dir="r" state="M"/>
    <connection from="31" to="39" fromLane="0" toLane="0" contPos="-4.00" via=":6_1_0" dir="s" state="M"/>
    <connection from="31" to="44" fromLane="0" toLane="0" contPos="-4.00" via=":6_2_0" dir="L" state="M"/>
    <connection from="32" to="48" fromLane="0" toLane="0" contPos="-4.00" via=":8_0_0" dir="R" state="M"/>
    <connection from="32" to="46" fromLane="0" toLane="0" contPos="-4.00" via=":8_1_0" dir="s" state="M"/>
    <connection from="34" to="50" fromLane="0" toLane="0" contPos="-4.00" via=":12_0_0" dir="s" state="M"/>
    <connection from="34" to="51" fromLane="0" toLane="0" contPos="-4.00" via=":12_1_0" dir="R" state="M"/>
    <connection from="35" to="41" fromLane="0" toLane="0" contPos="-4.00" via=":14_0_0" dir="R" state="M"/>
    <connection from="35" to="40" fromLane="0" toLane="0" contPos="-4.00" via=":14_1_0" dir="s" state="M"/>
    <connection from="37" to="42" fromLane="0" toLane="0" contPos="-4.00" via=":18_0_0" dir="s" state="M"/>
    <connection from="37" to="47" fromLane="0" toLane="0" contPos="-4.00" via=":18_1_0" dir="l" state="M"/>
    <connection from="39" to="38" fromLane="0" toLane="0" contPos="-4.00" via=":19_0_0" dir="s" state="m"/>
    <connection from="40" to="33" fromLane="0" toLane="0" contPos="-4.00" via=":9_1_0" dir="s" state="m"/>
    <connection from="41" to="36" fromLane="0" toLane="0" contPos="-4.00" via=":15_0_0" dir="r" state="M"/>
    <connection from="42" to="33" fromLane="0" toLane="0" contPos="-4.00" via=":9_0_0" dir="s" state="M"/>
    <connection from="43" to="35" fromLane="0" toLane="0" contPos="-4.00" via=":13_1_0" dir="s" state="m"/>
    <connection from="44" to="30" fromLane="0" toLane="0" contPos="-4.00" via=":3_1_0" dir="l" state="M"/>
    <connection from="45" to="35" fromLane="0" toLane="0" contPos="-4.00" via=":13_0_0" dir="s" state="M"/>
    <connection from="46" to="36" fromLane="0" toLane="0" contPos="-4.00" via=":15_1_0" dir="s" state="m"/>
    <connection from="47" to="34" fromLane="0" toLane="0" contPos="-4.00" via=":11_1_0" dir="s" state="m"/>
    <connection from="48" to="34" fromLane="0" toLane="0" contPos="-4.00" via=":11_0_0" dir="s" state="M"/>
    <connection from="49" to="38" fromLane="0" toLane="0" contPos="-4.00" via=":19_1_0" dir="l" state="m"/>
    <connection from="50" to="30" fromLane="0" toLane="0" contPos="-4.00" via=":3_0_0" dir="s" state="m"/>
    <connection from="51" to="38" fromLane="0" toLane="0" contPos="-4.00" via=":19_2_0" dir="s" state="M"/>

    <connection from=":11_0" to="34" fromLane="0" toLane="0" dir="s" state="M"/>
    <connection from=":11_1" to="34" fromLane="0" toLane="0" dir="s" state="M"/>
    <connection from=":12_0" to="50" fromLane="0" toLane="0" dir="s" state="M"/>
    <connection from=":12_1" to="51" fromLane="0" toLane="0" dir="R" state="M"/>
    <connection from=":13_0" to="35" fromLane="0" toLane="0" dir="s" state="M"/>
    <connection from=":13_1" to="35" fromLane="0" toLane="0" dir="s" state="M"/>
    <connection from=":14_0" to="41" fromLane="0" toLane="0" dir="R" state="M"/>
    <connection from=":14_1" to="40" fromLane="0" toLane="0" dir="s" state="M"/>
    <connection from=":15_0" to="36" fromLane="0" toLane="0" dir="r" state="M"/>
    <connection from=":15_1" to="36" fromLane="0" toLane="0" dir="s" state="M"/>
    <connection from=":18_0" to="42" fromLane="0" toLane="0" dir="s" state="M"/>
    <connection from=":18_1" to="47" fromLane="0" toLane="0" dir="l" state="M"/>
    <connection from=":19_0" to="38" fromLane="0" toLane="0" dir="s" state="M"/>
    <connection from=":19_1" to="38" fromLane="0" toLane="0" dir="l" state="M"/>
    <connection from=":19_2" to="38" fromLane="0" toLane="0" dir="s" state="M"/>
    <connection from=":2_0" to="43" fromLane="0" toLane="0" dir="R" state="M"/>
    <connection from=":2_1" to="49" fromLane="0" toLane="0" dir="s" state="M"/>
    <connection from=":3_0" to="30" fromLane="0" toLane="0" dir="s" state="M"/>
    <connection from=":3_1" to="30" fromLane="0" toLane="0" dir="l" state="M"/>
    <connection from=":6_0" to="45" fromLane="0" toLane="0" dir="r" state="M"/>
    <connection from=":6_1" to="39" fromLane="0" toLane="0" dir="s" state="M"/>
    <connection from=":6_2" to="44" fromLane="0" toLane="0" dir="L" state="M"/>
    <connection from=":8_0" to="48" fromLane="0" toLane="0" dir="R" state="M"/>
    <connection from=":8_1" to="46" fromLane="0" toLane="0" dir="s" state="M"/>
    <connection from=":9_0" to="33" fromLane="0" toLane="0" dir="s" state="M"/>
    <connection from=":9_1" to="33" fromLane="0" toLane="0" dir="s" state="M"/>

</net>
