<routes>
	<vehicle depart="0.1" departLane="0" departPos="11.271916117066175" departSpeed="2.8845" id="52" type="passenger">
		<route edges="36"/>
	</vehicle>
	<vehicle depart="0.1" departLane="0" departPos="0" departSpeed="5.0876" id="53" type="passenger">
		<route edges="38"/>
	</vehicle>
	<vehicle depart="0.1" departLane="0" departPos="13.561433127569444" departSpeed="5.579" id="54" type="passenger">
		<route edges="30"/>
	</vehicle>
	<vehicle depart="0.1" departLane="0" departPos="17.69050824547351" departSpeed="5.9293" id="55" type="passenger">
		<route edges="43 35 41 36"/>
	</vehicle>
	<vehicle depart="0.1" departLane="0" departPos="19.596500785041503" departSpeed="0.0" id="56" type="passenger">
		<route edges="31 44 50 44 30"/>
	</vehicle>
</routes>
