<!-- generated on 2020-12-18 16:44:33.358451 by ipykernel_launcher.py v1_2_0+5214-53edc58fcd
-->
<edges>
	<edge from="1" function="normal" id="29" length="76.0509281254424" numLanes="1" priority="1" speed="36.11111111111111" spreadType="center" to="2">
		<lane allow="moped bicycle pedestrian custom1 trailer evehicle rail_urban ship private vip custom2 authority delivery rail_electric taxi tram army hov coach motorcycle passenger rail emergency" index="0" length="76.0509281254424" shape="87.61,18.6005 83.60865000000001,18.702350000000003 60.094049999999996,18.88395 47.08815,19.1303 37.09555,19.65 28.1271,20.465 24.1627,21.0118 20.75475,21.81105 17.453699999999998,22.9769 14.76135,24.29985 12.67475,25.69525" speed="36.11111111111111" width="2.4950912808953505"/>
	</edge>
	<edge from="3" function="normal" id="30" length="77.63840365829198" numLanes="1" priority="1" speed="36.11111111111111" spreadType="center" to="4">
		<lane allow="moped bicycle pedestrian custom1 trailer evehicle rail_urban ship private vip custom2 authority delivery rail_electric taxi tram army hov coach motorcycle passenger rail emergency" index="0" length="77.63840365829198" shape="11.1367,23.7274 13.3695,22.220100000000002 16.2161,20.788899999999998 19.66845,19.53165 23.228250000000003,18.64645 27.3232,18.04165 36.4376,17.1916 46.58005,16.64715 59.75105,16.38655 83.5087,16.20395 87.54105,16.1015" speed="36.11111111111111" width="2.4999043841715216"/>
	</edge>
	<edge from="5" function="normal" id="31" length="23.16802642441595" numLanes="1" priority="1" speed="36.11111111111111" spreadType="center" to="6">
		<lane allow="moped bicycle pedestrian custom1 trailer evehicle rail_urban ship private truck vip custom2 authority delivery rail_electric taxi tram army hov coach motorcycle passenger bus rail emergency" index="0" length="23.16802642441595" shape="16.5517,61.23505 12.640699999999999,50.33125 8.72955,39.42744999999999" speed="36.11111111111111" width="2.495944009788681"/>
	</edge>
	<edge from="7" function="normal" id="32" length="0.22611441388114345" numLanes="1" priority="1" speed="36.11111111111111" spreadType="center" to="8">
		<lane allow="moped bicycle pedestrian custom1 trailer evehicle rail_urban ship private vip custom2 authority delivery rail_electric taxi tram army hov coach motorcycle passenger rail emergency" index="0" length="0.22611441388114345" shape="-25.3075,44.996399999999994 -25.181350000000002,45.040949999999995 -25.09665,45.0777" speed="36.11111111111111" width="2.4978247196310654"/>
	</edge>
	<edge from="9" function="normal" id="33" length="0.26552154935561634" numLanes="1" priority="1" speed="36.11111111111111" spreadType="center" to="10">
		<lane allow="moped bicycle pedestrian custom1 trailer evehicle rail_urban ship private vip custom2 authority delivery rail_electric taxi tram army hov coach motorcycle passenger rail emergency" index="0" length="0.26552154935561634" shape="-25.89,47.442350000000005 -26.0141,47.3982 -26.14025,47.3536" speed="36.11111111111111" width="2.490882423961436"/>
	</edge>
	<edge from="11" function="normal" id="34" length="14.171663984933797" numLanes="1" priority="1" speed="36.11111111111111" spreadType="center" to="12">
		<lane allow="moped bicycle pedestrian custom1 trailer evehicle rail_urban ship private vip custom2 authority delivery rail_electric taxi tram army hov coach motorcycle passenger rail emergency" index="0" length="14.171663984933797" shape="-13.594000000000001,42.3371 -9.840250000000001,40.771550000000005 -4.77015,38.44455000000001 -0.7979,36.275400000000005" speed="36.11111111111111" width="2.4987045043381984"/>
	</edge>
	<edge from="13" function="normal" id="35" length="14.5481114940266" numLanes="1" priority="1" speed="36.11111111111111" spreadType="center" to="14">
		<lane allow="moped bicycle pedestrian custom1 trailer evehicle rail_urban ship private vip custom2 authority delivery rail_electric taxi tram army hov coach motorcycle passenger rail emergency" index="0" length="14.5481114940266" shape="0.49775,38.411 -3.62035,40.66385 -8.8149,43.0518 -12.63305,44.64425" speed="36.11111111111111" width="2.4971151134859606"/>
	</edge>
	<edge from="15" function="normal" id="36" length="16.807335363380197" numLanes="1" priority="1" speed="36.11111111111111" spreadType="center" to="16">
		<lane allow="moped bicycle pedestrian custom1 trailer evehicle rail_urban ship private truck vip custom2 authority delivery rail_electric taxi tram army hov coach motorcycle passenger bus rail emergency" index="0" length="16.807335363380197" shape="-16.3127,52.7669 -13.2804,60.619749999999996 -10.2591,68.4462" speed="36.11111111111111" width="2.4993966391911453"/>
	</edge>
	<edge from="17" function="normal" id="37" length="16.805021780869566" numLanes="1" priority="1" speed="36.11111111111111" spreadType="center" to="18">
		<lane allow="moped bicycle pedestrian custom1 trailer evehicle rail_urban ship private truck vip custom2 authority delivery rail_electric taxi tram army hov coach motorcycle passenger bus rail emergency" index="0" length="16.805021780869566" shape="-12.59135,69.34655000000001 -15.61265,61.5201 -18.6428,53.6689" speed="36.11111111111111" width="2.4991150433703546"/>
	</edge>
	<edge from="19" function="normal" id="38" length="83.45585083529484" numLanes="1" priority="1" speed="36.11111111111111" spreadType="center" to="20">
		<lane allow="moped bicycle pedestrian custom1 trailer evehicle rail_urban ship private truck vip custom2 authority delivery rail_electric taxi tram army hov coach motorcycle passenger bus rail emergency" index="0" length="83.45585083529484" shape="3.205,22.9743 -4.24385,-1.0339 -21.100050000000003,-56.8634" speed="36.11111111111111" width="2.4980243153340194"/>
	</edge>
	<edge from="6" function="normal" id="39" length="17.35653428177016" numLanes="1" priority="1" speed="36.11111111111111" spreadType="center" to="19">
		<lane allow="moped bicycle pedestrian custom1 trailer evehicle rail_urban ship private vip custom2 authority delivery rail_electric taxi tram army hov coach motorcycle passenger rail emergency" index="0" length="17.35653428177016" shape="8.72955,39.42744999999999 4.6046000000000005,27.3504 3.205,22.9743" speed="36.11111111111111" width="2.495944009788681"/>
	</edge>
	<edge from="14" function="normal" id="40" length="13.751572365071782" numLanes="1" priority="1" speed="36.11111111111111" spreadType="center" to="9">
		<lane allow="moped bicycle pedestrian custom1 trailer evehicle rail_urban ship private vip custom2 authority delivery rail_electric taxi tram army hov coach motorcycle passenger rail emergency" index="0" length="13.751572365071782" shape="-12.63305,44.64425 -17.3213,46.3908 -20.939799999999998,47.376000000000005 -23.4159,47.71225 -24.6652,47.69235 -25.89,47.442350000000005" speed="36.11111111111111" width="2.490882423961436"/>
	</edge>
	<edge from="14" function="normal" id="41" length="10.154394174029965" numLanes="1" priority="1" speed="36.11111111111111" spreadType="center" to="15">
		<lane allow="moped bicycle pedestrian custom1 trailer evehicle rail_urban ship private vip custom2 authority delivery rail_electric taxi tram army hov coach motorcycle passenger rail emergency" index="0" length="10.154394174029965" shape="-12.63305,44.64425 -13.6582,45.1287 -14.62215,45.72235 -15.484100000000002,46.45495 -16.1887,47.33895 -16.6665,48.3631 -16.881050000000002,49.47255 -16.8587,50.60325 -16.64915,51.7154 -16.3127,52.7669" speed="36.11111111111111" width="2.4983972342283742"/>
	</edge>
	<edge from="18" function="normal" id="42" length="9.863349936743088" numLanes="1" priority="1" speed="36.11111111111111" spreadType="center" to="9">
		<lane allow="moped bicycle pedestrian custom1 trailer evehicle rail_urban ship private vip custom2 authority delivery rail_electric taxi tram army hov coach motorcycle passenger rail emergency" index="0" length="9.863349936743088" shape="-18.6428,53.6689 -19.09375,52.695949999999996 -19.669649999999997,51.76065 -20.3526,50.90035 -21.1294,50.12355 -21.9844,49.43345 -22.90145,48.82805 -23.86465,48.29905 -25.89,47.442350000000005" speed="36.11111111111111" width="2.490882423961436"/>
	</edge>
	<edge from="2" function="normal" id="43" length="17.69050824547351" numLanes="1" priority="1" speed="36.11111111111111" spreadType="center" to="13">
		<lane allow="moped bicycle pedestrian custom1 trailer evehicle rail_urban ship private vip custom2 authority delivery rail_electric taxi tram army hov coach motorcycle passenger rail emergency" index="0" length="17.69050824547351" shape="12.67475,25.69525 11.036,27.16165 8.834299999999999,29.6402 5.4246,33.99125 3.9507000000000003,35.638850000000005 2.32265,37.133250000000004 0.49775,38.411" speed="36.11111111111111" width="2.4950912808953505"/>
	</edge>
	<edge from="6" function="normal" id="44" length="17.07215236630931" numLanes="1" priority="1" speed="36.11111111111111" spreadType="center" to="3">
		<lane allow="moped bicycle pedestrian custom1 trailer evehicle rail_urban ship private vip custom2 authority delivery rail_electric taxi tram army hov coach motorcycle passenger rail emergency" index="0" length="17.07215236630931" shape="8.72955,39.42744999999999 7.78395,36.2607 7.33095,33.544799999999995 7.2787500000000005,31.343 7.47535,29.70275 7.91205,28.11005 8.60735,26.6124 9.5521,25.258200000000002 10.7091,24.07965 11.1367,23.7274" speed="36.11111111111111" width="2.495944009788681"/>
	</edge>
	<edge from="6" function="normal" id="45" length="9.847358856062485" numLanes="1" priority="1" speed="36.11111111111111" spreadType="center" to="13">
		<lane allow="moped bicycle pedestrian custom1 trailer evehicle rail_urban ship private vip custom2 authority delivery rail_electric taxi tram army hov coach motorcycle passenger rail emergency" index="0" length="9.847358856062485" shape="8.72955,39.42744999999999 8.2003,38.318749999999994 7.8347,37.82455 7.393599999999999,37.396950000000004 6.87865,37.06275 6.30715,36.837900000000005 5.0888,36.7103 3.875,36.90145 2.1439000000000004,37.5364 0.49775,38.411" speed="36.11111111111111" width="2.495944009788681"/>
	</edge>
	<edge from="8" function="normal" id="46" length="12.055896266073267" numLanes="1" priority="1" speed="36.11111111111111" spreadType="center" to="15">
		<lane allow="moped bicycle pedestrian custom1 trailer evehicle rail_urban ship private vip custom2 authority delivery rail_electric taxi tram army hov coach motorcycle passenger rail emergency" index="0" length="12.055896266073267" shape="-25.09665,45.0777 -22.6796,46.098299999999995 -21.511850000000003,46.746700000000004 -20.40785,47.4889 -19.368949999999998,48.3433 -18.4197,49.310649999999995 -17.582349999999998,50.3838 -16.8741,51.5488 -16.3127,52.7669" speed="36.11111111111111" width="2.4978247196310654"/>
	</edge>
	<edge from="18" function="normal" id="47" length="14.064210100307493" numLanes="1" priority="1" speed="36.11111111111111" spreadType="center" to="11">
		<lane allow="moped bicycle pedestrian custom1 trailer evehicle rail_urban ship private vip custom2 authority delivery rail_electric taxi tram army hov coach motorcycle passenger rail emergency" index="0" length="14.064210100307493" shape="-18.6428,53.6689 -19.093449999999997,52.2646 -19.37705,50.7566 -19.40785,49.1719 -19.10005,47.567750000000004 -18.410600000000002,46.06805 -17.409750000000003,44.79325 -16.22,43.7722 -14.92915,42.96995 -13.594000000000001,42.3371" speed="36.11111111111111" width="2.4991150433703546"/>
	</edge>
	<edge from="8" function="normal" id="48" length="11.969159340964097" numLanes="1" priority="1" speed="36.11111111111111" spreadType="center" to="11">
		<lane allow="moped bicycle pedestrian custom1 trailer evehicle rail_urban ship private vip custom2 authority delivery rail_electric taxi tram army hov coach motorcycle passenger rail emergency" index="0" length="11.969159340964097" shape="-25.09665,45.0777 -24.22785,45.2389 -23.26255,45.22265 -21.1173,44.87895 -17.8705,43.9482 -13.594000000000001,42.3371" speed="36.11111111111111" width="2.4858026570908636"/>
	</edge>
	<edge from="2" function="normal" id="49" length="12.623818224605419" numLanes="1" priority="1" speed="36.11111111111111" spreadType="center" to="19">
		<lane allow="moped bicycle pedestrian custom1 trailer evehicle rail_urban ship private vip custom2 authority delivery rail_electric taxi tram army hov coach motorcycle passenger rail emergency" index="0" length="12.623818224605419" shape="12.67475,25.69525 11.044550000000001,26.82865 9.8576,27.430500000000002 8.58385,27.8097 7.9219,27.8747 7.25885,27.8286 6.6159,27.659950000000002 6.0179,27.3698 5.48005,26.9785 4.597300000000001,25.98575 3.6590000000000003,24.22615 3.205,22.9743" speed="36.11111111111111" width="2.4950912808953505"/>
	</edge>
	<edge from="12" function="normal" id="50" length="17.399837772962666" numLanes="1" priority="1" speed="36.11111111111111" spreadType="center" to="3">
		<lane allow="moped bicycle pedestrian custom1 trailer evehicle rail_urban ship private vip custom2 authority delivery rail_electric taxi tram army hov coach motorcycle passenger rail emergency" index="0" length="17.399837772962666" shape="-0.7979,36.275400000000005 0.88195,35.0992 2.38485,33.711 3.77165,32.14945 7.1373,27.8283 9.3918,25.28655 11.1367,23.7274" speed="36.11111111111111" width="2.4764824267496857"/>
	</edge>
	<edge from="12" function="normal" id="51" length="15.188858352530058" numLanes="1" priority="1" speed="36.11111111111111" spreadType="center" to="19">
		<lane allow="moped bicycle pedestrian custom1 trailer evehicle rail_urban ship private vip custom2 authority delivery rail_electric taxi tram army hov coach motorcycle passenger rail emergency" index="0" length="15.188858352530058" shape="-0.7979,36.275400000000005 0.6193000000000001,35.29685 1.84105,34.138850000000005 2.83275,32.77945 3.5382000000000002,31.25205 3.93985,29.6177 4.06095,27.93835 3.8660499999999995,25.70205 3.205,22.9743" speed="36.11111111111111" width="2.4980243153340194"/>
	</edge>
</edges>
