<!-- generated on 2020-12-18 16:44:33.465924 by ipykernel_launcher.py v1_2_0+5214-53edc58fcd
-->
<nodes>
	<node id="1" type="from" x="87.61" y="18.6005"/>
	<node id="2" type="to" x="12.67475" y="25.69525"/>
	<node id="3" type="from" x="11.1367" y="23.7274"/>
	<node id="4" type="to" x="87.54105" y="16.1015"/>
	<node id="5" type="from" x="16.5517" y="61.23505"/>
	<node id="6" type="to" x="8.72955" y="39.42744999999999"/>
	<node id="7" type="from" x="-25.3075" y="44.996399999999994"/>
	<node id="8" type="to" x="-25.09665" y="45.0777"/>
	<node id="9" type="from" x="-25.89" y="47.442350000000005"/>
	<node id="10" type="to" x="-26.14025" y="47.3536"/>
	<node id="11" type="from" x="-13.594000000000001" y="42.3371"/>
	<node id="12" type="to" x="-0.7979" y="36.275400000000005"/>
	<node id="13" type="from" x="0.49775" y="38.411"/>
	<node id="14" type="to" x="-12.63305" y="44.64425"/>
	<node id="15" type="from" x="-16.3127" y="52.7669"/>
	<node id="16" type="to" x="-10.2591" y="68.4462"/>
	<node id="17" type="from" x="-12.59135" y="69.34655000000001"/>
	<node id="18" type="to" x="-18.6428" y="53.6689"/>
	<node id="19" type="from" x="3.205" y="22.9743"/>
	<node id="20" type="to" x="-21.100050000000003" y="-56.8634"/>
</nodes>
