<routes>
	<vehicle depart="0.1" departLane="0" departPos="62.113697039508494" departSpeed="0.67370232" id="34" type="passenger">
		<route edges="10234 10168"/>
	</vehicle>
	<vehicle depart="0.1" departLane="0" departPos="54.22417753305997" departSpeed="0.025502819" id="311" type="passenger">
		<route edges="10234 10168"/>
	</vehicle>
	<vehicle depart="0.1" departLane="0" departPos="45.992511043462585" departSpeed="0.71529115" id="313" type="passenger">
		<route edges="10234 10168"/>
	</vehicle>
	<vehicle depart="0.1" departLane="0" departPos="20.221576178811212" departSpeed="2.0023157" id="320" type="passenger">
		<route edges=":266_6 10237"/>
	</vehicle>
	<vehicle depart="0.1" departLane="0" departPos="13.522725629567377" departSpeed="0.0" id="367" type="passenger">
		<route edges="10165 10168"/>
	</vehicle>
	<vehicle depart="0.1" departLane="0" departPos="36.98136536099462" departSpeed="0.53814331" id="380" type="passenger">
		<route edges="10234 10168"/>
	</vehicle>
	<vehicle depart="0.1" departLane="0" departPos="27.240737400299086" departSpeed="0.13709434" id="391" type="passenger">
		<route edges="10234 10168"/>
	</vehicle>
	<vehicle depart="0.1" departLane="0" departPos="19.74187615731191" departSpeed="0.48345733" id="3103" type="passenger">
		<route edges="10234 10168"/>
	</vehicle>
	<vehicle depart="0.1" departLane="0" departPos="69.36684738571624" departSpeed="0.57920824" id="370" type="motorcycle">
		<route edges="10234 10237"/>
	</vehicle>
</routes>
