<!-- generated on 2020-12-18 15:56:55.076992 by ipykernel_launcher.py v1_2_0+5214-53edc58fcd
-->
<connections>
	<connection contPos="-4.0" from="53760" fromLane="1" keepClear="true" to="53850" toLane="1"/>
	<connection contPos="-4.0" from="53760" fromLane="0" keepClear="true" to="53874" toLane="0"/>
	<connection contPos="-4.0" from="53760" fromLane="0" keepClear="true" to="53850" toLane="0"/>
	<connection contPos="-4.0" from="53770" fromLane="1" keepClear="true" to="53774" toLane="1"/>
	<connection contPos="-4.0" from="53770" fromLane="0" keepClear="true" to="53774" toLane="0"/>
	<connection contPos="-4.0" from="53774" fromLane="1" keepClear="true" to="53778" toLane="1"/>
	<connection contPos="-4.0" from="53774" fromLane="0" keepClear="true" to="53778" toLane="0"/>
	<connection contPos="-4.0" from="53778" fromLane="1" keepClear="true" to="53784" toLane="1"/>
	<connection contPos="-4.0" from="53778" fromLane="1" keepClear="true" to="53784" toLane="2"/>
	<connection contPos="-4.0" from="53778" fromLane="0" keepClear="true" to="53784" toLane="0"/>
	<connection contPos="-4.0" from="53784" fromLane="2" keepClear="true" to="53790" toLane="2"/>
	<connection contPos="-4.0" from="53784" fromLane="1" keepClear="true" to="53790" toLane="1"/>
	<connection contPos="-4.0" from="53784" fromLane="0" keepClear="true" to="53790" toLane="0"/>
	<connection contPos="-4.0" from="53794" fromLane="1" keepClear="true" to="53800" toLane="1"/>
	<connection contPos="-4.0" from="53794" fromLane="1" keepClear="true" to="53800" toLane="2"/>
	<connection contPos="-4.0" from="53794" fromLane="0" keepClear="true" to="53832" toLane="0"/>
	<connection contPos="-4.0" from="53794" fromLane="0" keepClear="true" to="53800" toLane="0"/>
	<connection contPos="-4.0" from="53800" fromLane="2" keepClear="true" to="53806" toLane="2"/>
	<connection contPos="-4.0" from="53800" fromLane="1" keepClear="true" to="53806" toLane="1"/>
	<connection contPos="-4.0" from="53800" fromLane="0" keepClear="true" to="53806" toLane="0"/>
	<connection contPos="-4.0" from="53806" fromLane="2" keepClear="true" to="53812" toLane="2"/>
	<connection contPos="-4.0" from="53806" fromLane="1" keepClear="true" to="53812" toLane="1"/>
	<connection contPos="-4.0" from="53806" fromLane="0" keepClear="true" to="53824" toLane="0"/>
	<connection contPos="-4.0" from="53806" fromLane="0" keepClear="true" to="53812" toLane="0"/>
	<connection contPos="-4.0" from="53812" fromLane="2" keepClear="true" to="53818" toLane="2"/>
	<connection contPos="-4.0" from="53812" fromLane="1" keepClear="true" to="53818" toLane="1"/>
	<connection contPos="-4.0" from="53812" fromLane="0" keepClear="true" to="53818" toLane="0"/>
	<connection contPos="-4.0" from="53818" fromLane="2" keepClear="true" to="53866" toLane="2"/>
	<connection contPos="-4.0" from="53818" fromLane="1" keepClear="true" to="53866" toLane="1"/>
	<connection contPos="-4.0" from="53818" fromLane="0" keepClear="true" to="53878" toLane="0"/>
	<connection contPos="-4.0" from="53818" fromLane="0" keepClear="true" to="53866" toLane="0"/>
	<connection contPos="-4.0" from="53822" fromLane="0" keepClear="true" to="53774" toLane="0"/>
	<connection contPos="-4.0" from="53824" fromLane="0" keepClear="true" to="53826" toLane="0"/>
	<connection contPos="-4.0" from="53828" fromLane="0" keepClear="true" to="53830" toLane="0"/>
	<connection contPos="-4.0" from="53830" fromLane="0" keepClear="true" to="53818" toLane="0"/>
	<connection contPos="-4.0" from="53832" fromLane="0" keepClear="true" to="53834" toLane="0"/>
	<connection contPos="-4.0" from="53836" fromLane="0" keepClear="true" to="53838" toLane="0"/>
	<connection contPos="-4.0" from="53838" fromLane="0" keepClear="true" to="53806" toLane="0"/>
	<connection contPos="-4.0" from="53840" fromLane="0" keepClear="true" to="53880" toLane="0"/>
	<connection contPos="-4.0" from="53840" fromLane="0" keepClear="true" to="53872" toLane="0"/>
	<connection contPos="-4.0" from="53846" fromLane="0" keepClear="true" to="53876" toLane="0"/>
	<connection contPos="-4.0" from="53846" fromLane="0" keepClear="true" to="53870" toLane="0"/>
	<connection contPos="-4.0" from="53850" fromLane="1" keepClear="true" to="53896" toLane="0"/>
	<connection contPos="-4.0" from="53850" fromLane="1" keepClear="true" to="53888" toLane="1"/>
	<connection contPos="-4.0" from="53850" fromLane="0" keepClear="true" to="53888" toLane="0"/>
	<connection contPos="-4.0" from="53856" fromLane="2" keepClear="true" to="53766" toLane="2"/>
	<connection contPos="-4.0" from="53856" fromLane="1" keepClear="true" to="53766" toLane="1"/>
	<connection contPos="-4.0" from="53856" fromLane="0" keepClear="true" to="53766" toLane="0"/>
	<connection contPos="-4.0" from="53860" fromLane="1" keepClear="true" to="53770" toLane="1"/>
	<connection contPos="-4.0" from="53860" fromLane="0" keepClear="true" to="53820" toLane="0"/>
	<connection contPos="-4.0" from="53860" fromLane="0" keepClear="true" to="53770" toLane="0"/>
	<connection contPos="-4.0" from="53866" fromLane="2" keepClear="true" to="53892" toLane="2"/>
	<connection contPos="-4.0" from="53866" fromLane="2" keepClear="true" to="53894" toLane="0"/>
	<connection contPos="-4.0" from="53866" fromLane="1" keepClear="true" to="53892" toLane="1"/>
	<connection contPos="-4.0" from="53866" fromLane="0" keepClear="true" to="53892" toLane="0"/>
	<connection contPos="-4.0" from="53868" fromLane="0" keepClear="true" to="53844" toLane="0"/>
	<connection contPos="-4.0" from="53870" fromLane="0" keepClear="true" to="53900" toLane="0"/>
	<connection contPos="-4.0" from="53870" fromLane="0" keepClear="true" to="53884" toLane="0"/>
	<connection contPos="-4.0" from="53872" fromLane="0" keepClear="true" to="53898" toLane="0"/>
	<connection contPos="-4.0" from="53872" fromLane="0" keepClear="true" to="53882" toLane="0"/>
	<connection contPos="-4.0" from="53874" fromLane="0" keepClear="true" to="53842" toLane="0"/>
	<connection contPos="-4.0" from="53876" fromLane="0" keepClear="true" to="53766" toLane="0"/>
	<connection contPos="-4.0" from="53878" fromLane="0" keepClear="true" to="53844" toLane="0"/>
	<connection contPos="-4.0" from="53880" fromLane="0" keepClear="true" to="53820" toLane="0"/>
	<connection contPos="-4.0" from="53880" fromLane="0" keepClear="true" to="53770" toLane="0"/>
	<connection contPos="-4.0" from="53882" fromLane="0" keepClear="true" to="53868" toLane="0"/>
	<connection contPos="-4.0" from="53884" fromLane="0" keepClear="true" to="53902" toLane="0"/>
	<connection contPos="-4.0" from="53888" fromLane="1" keepClear="true" to="53860" toLane="1"/>
	<connection contPos="-4.0" from="53888" fromLane="0" keepClear="true" to="53860" toLane="0"/>
	<connection contPos="-4.0" from="53892" fromLane="1" keepClear="true" to="53856" toLane="1"/>
	<connection contPos="-4.0" from="53892" fromLane="0" keepClear="true" to="53856" toLane="0"/>
	<connection contPos="-4.0" from="53894" fromLane="0" keepClear="true" to="53902" toLane="0"/>
	<connection contPos="-4.0" from="53896" fromLane="0" keepClear="true" to="53868" toLane="0"/>
	<connection contPos="-4.0" from="53898" fromLane="0" keepClear="true" to="53766" toLane="2"/>
	<connection contPos="-4.0" from="53900" fromLane="0" keepClear="true" to="53770" toLane="1"/>
	<connection contPos="-4.0" from="53902" fromLane="0" keepClear="true" to="53842" toLane="0"/>
	<connection contPos="-4.0" from="53892" fromLane="2" keepClear="true" to="53856" toLane="2"/>
</connections>
