<!-- generated on 2020-12-18 15:56:54.913066 by ipykernel_launcher.py v1_2_0+5214-53edc58fcd
-->
<edges>
	<edge from="1" function="normal" id="53760" length="11.724004996587123" numLanes="2" priority="1" speed="36.11111111111111" spreadType="center" to="2">
		<lane allow="moped bicycle pedestrian custom1 trailer evehicle rail_urban ship private truck vip custom2 authority delivery rail_electric taxi tram army hov coach motorcycle passenger bus rail emergency" index="0" length="11.724004996587123" shape="-21.8876,96.67505 -21.1657,84.9645" speed="36.11111111111111" width="2.578245023266797"/>
		<lane allow="moped bicycle pedestrian custom1 trailer evehicle rail_urban ship private truck vip custom2 authority delivery rail_electric taxi tram army hov coach motorcycle passenger bus rail emergency" index="1" length="11.724004996587123" shape="-18.978,96.7503 -18.2934,85.0463" speed="36.11111111111111" width="3.06728219112621"/>
	</edge>
	<edge from="3" function="normal" id="53766" length="11.75298092113232" numLanes="3" priority="1" speed="36.11111111111111" spreadType="center" to="4">
		<lane allow="moped bicycle pedestrian custom1 trailer evehicle rail_urban ship private truck vip custom2 authority delivery rail_electric taxi tram army hov coach motorcycle passenger bus rail emergency" index="0" length="11.75298092113232" shape="-8.955350000000001,85.31235000000001 -9.7179,97.08465000000001" speed="36.11111111111111" width="2.5317268612549815"/>
		<lane allow="moped bicycle pedestrian custom1 trailer evehicle rail_urban ship private truck vip custom2 authority delivery rail_electric taxi tram army hov coach motorcycle passenger bus rail emergency" index="1" length="11.75298092113232" shape="-11.819600000000001,85.23075 -12.65455,96.9834" speed="36.11111111111111" width="3.116015444441827"/>
		<lane allow="moped bicycle pedestrian custom1 trailer evehicle rail_urban ship private truck vip custom2 authority delivery rail_electric taxi tram army hov coach motorcycle passenger bus rail emergency" index="2" length="11.75298092113232" shape="-15.0641,85.13829999999999 -15.82845,96.8664" speed="36.11111111111111" width="3.236096081700913"/>
	</edge>
	<edge from="5" function="normal" id="53770" length="20.88644762064645" numLanes="2" priority="1" speed="36.11111111111111" spreadType="center" to="6">
		<lane allow="moped bicycle pedestrian custom1 trailer evehicle rail_urban ship private truck vip custom2 authority delivery rail_electric taxi tram army hov coach motorcycle passenger bus rail emergency" index="0" length="20.88644762064645" shape="-19.9103,65.0298 -19.67265,54.5869 -19.435000000000002,44.1439" speed="36.11111111111111" width="2.7635786943743783"/>
		<lane allow="moped bicycle pedestrian custom1 trailer evehicle rail_urban ship private truck vip custom2 authority delivery rail_electric taxi tram army hov coach motorcycle passenger bus rail emergency" index="1" length="20.88644762064645" shape="-16.97755,65.0994 -16.6913,54.66015 -16.405050000000003,44.2208" speed="36.11111111111111" width="3.103572820154217"/>
	</edge>
	<edge from="6" function="normal" id="53774" length="18.616247445846838" numLanes="2" priority="1" speed="36.11111111111111" spreadType="center" to="7">
		<lane allow="moped bicycle pedestrian custom1 trailer evehicle rail_urban ship private truck vip custom2 authority delivery rail_electric taxi tram army hov coach motorcycle passenger bus rail emergency" index="0" length="18.616247445846838" shape="-19.435000000000002,44.1439 -19.22705,34.8381 -19.01905,25.5323" speed="36.11111111111111" width="2.9483489956244986"/>
		<lane allow="moped bicycle pedestrian custom1 trailer evehicle rail_urban ship private truck vip custom2 authority delivery rail_electric taxi tram army hov coach motorcycle passenger bus rail emergency" index="1" length="18.616247445846838" shape="-16.405050000000003,44.2208 -16.165950000000002,34.87165 -15.9268,25.522550000000003" speed="36.11111111111111" width="3.113502408863691"/>
	</edge>
	<edge from="7" function="normal" id="53778" length="10.590827331353843" numLanes="2" priority="1" speed="36.11111111111111" spreadType="center" to="8">
		<lane allow="moped bicycle pedestrian custom1 trailer evehicle rail_urban ship private truck vip custom2 authority delivery rail_electric taxi tram army hov coach motorcycle passenger bus rail emergency" index="0" length="10.590827331353843" shape="-19.01905,25.5323 -18.92445,20.2364 -18.8298,14.940449999999998" speed="36.11111111111111" width="2.987011531614833"/>
		<lane allow="moped bicycle pedestrian custom1 trailer evehicle rail_urban ship private truck vip custom2 authority delivery rail_electric taxi tram army hov coach motorcycle passenger bus rail emergency" index="1" length="10.590827331353843" shape="-15.9268,25.522550000000003 -15.882100000000001,20.22775 -15.8374,14.932099999999998" speed="36.11111111111111" width="2.9978117686072303"/>
	</edge>
	<edge from="8" function="normal" id="53784" length="26.423553559019844" numLanes="3" priority="1" speed="36.11111111111111" spreadType="center" to="9">
		<lane allow="moped bicycle pedestrian custom1 trailer evehicle rail_urban ship private truck vip custom2 authority delivery rail_electric taxi tram army hov coach motorcycle passenger bus rail emergency" index="0" length="26.423553559019844" shape="-18.8298,14.940449999999998 -19.1188,2.75915 -19.435650000000003,-11.47615" speed="36.11111111111111" width="2.987011531614833"/>
		<lane allow="moped bicycle pedestrian custom1 trailer evehicle rail_urban ship private truck vip custom2 authority delivery rail_electric taxi tram army hov coach motorcycle passenger bus rail emergency" index="1" length="26.423553559019844" shape="-15.8374,14.932099999999998 -16.13,2.5991 -16.4866,-11.543600000000001" speed="36.11111111111111" width="2.9055271535471836"/>
		<lane allow="moped bicycle pedestrian custom1 trailer evehicle rail_urban ship private truck vip custom2 authority delivery rail_electric taxi tram army hov coach motorcycle passenger bus rail emergency" index="2" length="26.423553559019844" shape="-15.8374,14.932099999999998 -14.954550000000001,2.5393499999999998 -13.42635,-11.613150000000001" speed="36.11111111111111" width="2.9978117686072303"/>
	</edge>
	<edge from="9" function="normal" id="53790" length="11.611102207908603" numLanes="3" priority="1" speed="36.11111111111111" spreadType="center" to="10">
		<lane allow="moped bicycle pedestrian custom1 trailer evehicle rail_urban ship private truck vip custom2 authority delivery rail_electric taxi tram army hov coach motorcycle passenger bus rail emergency" index="0" length="11.611102207908603" shape="-19.435650000000003,-11.47615 -20.0393,-23.071550000000002" speed="36.11111111111111" width="2.993284872844547"/>
		<lane allow="moped bicycle pedestrian custom1 trailer evehicle rail_urban ship private truck vip custom2 authority delivery rail_electric taxi tram army hov coach motorcycle passenger bus rail emergency" index="1" length="11.611102207908603" shape="-16.4866,-11.543600000000001 -17.0924,-23.18085" speed="36.11111111111111" width="2.904567845652776"/>
		<lane allow="moped bicycle pedestrian custom1 trailer evehicle rail_urban ship private truck vip custom2 authority delivery rail_electric taxi tram army hov coach motorcycle passenger bus rail emergency" index="2" length="11.611102207908603" shape="-13.42635,-11.613150000000001 -14.0344,-23.29405" speed="36.11111111111111" width="3.215621216810214"/>
	</edge>
	<edge from="11" function="normal" id="53794" length="11.740023820780774" numLanes="2" priority="1" speed="36.11111111111111" spreadType="center" to="12">
		<lane allow="moped bicycle pedestrian custom1 trailer evehicle rail_urban ship private truck vip custom2 authority delivery rail_electric taxi tram army hov coach motorcycle passenger bus rail emergency" index="0" length="11.740023820780774" shape="-8.04315,-23.517850000000003 -7.4307,-11.753350000000001" speed="36.11111111111111" width="2.861704824051566"/>
		<lane allow="moped bicycle pedestrian custom1 trailer evehicle rail_urban ship private truck vip custom2 authority delivery rail_electric taxi tram army hov coach motorcycle passenger bus rail emergency" index="1" length="11.740023820780774" shape="-10.95035,-23.40905 -10.34005,-11.684899999999999" speed="36.11111111111111" width="2.956765519955885"/>
	</edge>
	<edge from="12" function="normal" id="53800" length="26.609311572607478" numLanes="3" priority="1" speed="36.11111111111111" spreadType="center" to="13">
		<lane allow="moped bicycle pedestrian custom1 trailer evehicle rail_urban ship private truck vip custom2 authority delivery rail_electric taxi tram army hov coach motorcycle passenger bus rail emergency" index="0" length="26.609311572607478" shape="-7.4307,-11.753350000000001 -7.0447,2.112 -6.741199999999999,14.906600000000001" speed="36.11111111111111" width="2.8320112994124864"/>
		<lane allow="moped bicycle pedestrian custom1 trailer evehicle rail_urban ship private truck vip custom2 authority delivery rail_electric taxi tram army hov coach motorcycle passenger bus rail emergency" index="1" length="26.609311572607478" shape="-10.34005,-11.684899999999999 -9.925699999999999,2.2649999999999997 -9.625599999999999,14.9147" speed="36.11111111111111" width="2.9368114478120653"/>
		<lane allow="moped bicycle pedestrian custom1 trailer evehicle rail_urban ship private truck vip custom2 authority delivery rail_electric taxi tram army hov coach motorcycle passenger bus rail emergency" index="2" length="26.609311572607478" shape="-10.34005,-11.684899999999999 -11.87665,2.37345 -12.716249999999999,14.92335" speed="36.11111111111111" width="2.957714315142692"/>
	</edge>
	<edge from="13" function="normal" id="53806" length="10.586816360320451" numLanes="3" priority="1" speed="36.11111111111111" spreadType="center" to="14">
		<lane allow="moped bicycle pedestrian custom1 trailer evehicle rail_urban ship private truck vip custom2 authority delivery rail_electric taxi tram army hov coach motorcycle passenger bus rail emergency" index="0" length="10.586816360320451" shape="-6.741199999999999,14.906600000000001 -6.711499999999999,20.200249999999997 -6.68185,25.49325" speed="36.11111111111111" width="2.822914029863466"/>
		<lane allow="moped bicycle pedestrian custom1 trailer evehicle rail_urban ship private truck vip custom2 authority delivery rail_electric taxi tram army hov coach motorcycle passenger bus rail emergency" index="1" length="10.586816360320451" shape="-9.625599999999999,14.9147 -9.61475,20.209049999999998 -9.60395,25.502499999999998" speed="36.11111111111111" width="2.9368114478120653"/>
		<lane allow="moped bicycle pedestrian custom1 trailer evehicle rail_urban ship private truck vip custom2 authority delivery rail_electric taxi tram army hov coach motorcycle passenger bus rail emergency" index="2" length="10.586816360320451" shape="-12.716249999999999,14.92335 -12.7262,20.21845 -12.736149999999999,25.51245" speed="36.11111111111111" width="3.243116356222823"/>
	</edge>
	<edge from="14" function="normal" id="53812" length="18.79542459177229" numLanes="3" priority="1" speed="36.11111111111111" spreadType="center" to="15">
		<lane allow="moped bicycle pedestrian custom1 trailer evehicle rail_urban ship private truck vip custom2 authority delivery rail_electric taxi tram army hov coach motorcycle passenger bus rail emergency" index="0" length="18.79542459177229" shape="-6.68185,25.49325 -6.92105,34.97435 -7.1602500000000004,44.4555" speed="36.11111111111111" width="2.822914029863466"/>
		<lane allow="moped bicycle pedestrian custom1 trailer evehicle rail_urban ship private truck vip custom2 authority delivery rail_electric taxi tram army hov coach motorcycle passenger bus rail emergency" index="1" length="18.79542459177229" shape="-9.60395,25.502499999999998 -9.840150000000001,34.942 -10.076350000000001,44.38145" speed="36.11111111111111" width="2.9986657866457875"/>
		<lane allow="moped bicycle pedestrian custom1 trailer evehicle rail_urban ship private truck vip custom2 authority delivery rail_electric taxi tram army hov coach motorcycle passenger bus rail emergency" index="2" length="18.79542459177229" shape="-12.736149999999999,25.51245 -12.9741,34.90715 -13.212,44.30185" speed="36.11111111111111" width="3.243116356222823"/>
	</edge>
	<edge from="15" function="normal" id="53818" length="20.871192544869075" numLanes="3" priority="1" speed="36.11111111111111" spreadType="center" to="16">
		<lane allow="moped bicycle pedestrian custom1 trailer evehicle rail_urban ship private truck vip custom2 authority delivery rail_electric taxi tram army hov coach motorcycle passenger bus rail emergency" index="0" length="20.871192544869075" shape="-7.1602500000000004,44.4555 -7.449,54.887100000000004 -7.7378,65.3187" speed="36.11111111111111" width="2.829198190300566"/>
		<lane allow="moped bicycle pedestrian custom1 trailer evehicle rail_urban ship private truck vip custom2 authority delivery rail_electric taxi tram army hov coach motorcycle passenger bus rail emergency" index="1" length="20.871192544869075" shape="-10.076350000000001,44.38145 -10.3538,54.81575 -10.63125,65.25" speed="36.11111111111111" width="2.959332744048902"/>
		<lane allow="moped bicycle pedestrian custom1 trailer evehicle rail_urban ship private truck vip custom2 authority delivery rail_electric taxi tram army hov coach motorcycle passenger bus rail emergency" index="2" length="20.871192544869075" shape="-13.212,44.30185 -13.4902,54.73875 -13.76835,65.17555" speed="36.11111111111111" width="3.27465457262289"/>
	</edge>
	<edge from="5" function="normal" id="53820" length="15.38696056770176" numLanes="1" priority="1" speed="36.11111111111111" spreadType="center" to="17">
		<lane allow="moped bicycle pedestrian custom1 trailer evehicle rail_urban ship private vip custom2 authority delivery rail_electric taxi tram army hov coach motorcycle passenger rail emergency" index="0" length="15.38696056770176" shape="-19.9103,65.0298 -19.95535,61.12005 -20.3157,59.804 -20.98335,58.83555 -22.03925,58.04515 -23.3336,57.74855 -29.62125,57.60395" speed="36.11111111111111" width="2.4012139638108048"/>
	</edge>
	<edge from="18" function="normal" id="53822" length="17.763377113560466" numLanes="1" priority="1" speed="36.11111111111111" spreadType="center" to="6">
		<lane allow="moped bicycle pedestrian custom1 trailer evehicle rail_urban ship private vip custom2 authority delivery rail_electric taxi tram army hov coach motorcycle passenger rail emergency" index="0" length="17.763377113560466" shape="-29.523049999999998,53.740399999999994 -23.29535,53.6953 -21.8847,53.45165 -20.96835,52.873949999999994 -20.4289,52.176 -20.03965,51.0952 -19.5927,48.30385 -19.435000000000002,44.1439" speed="36.11111111111111" width="2.70812005826921"/>
	</edge>
	<edge from="14" function="normal" id="53824" length="11.718167783326482" numLanes="1" priority="1" speed="36.11111111111111" spreadType="center" to="19">
		<lane allow="moped bicycle pedestrian custom1 trailer evehicle rail_urban ship private vip custom2 authority delivery rail_electric taxi tram army hov coach motorcycle passenger rail emergency" index="0" length="11.718167783326482" shape="-6.68185,25.49325 -6.65765,28.2775 -6.40225,30.2756 -5.9258,32.1536 -5.19765,33.4106 -4.194850000000001,34.3939 -2.22225,35.1837" speed="36.11111111111111" width="2.822914029863466"/>
	</edge>
	<edge from="19" function="normal" id="53826" length="12.650956052908466" numLanes="1" priority="1" speed="36.11111111111111" spreadType="center" to="20">
		<lane allow="moped bicycle pedestrian custom1 trailer evehicle rail_urban ship private truck vip custom2 authority delivery rail_electric taxi tram army hov coach motorcycle passenger bus rail emergency" index="0" length="12.650956052908466" shape="-2.22225,35.1837 4.10315,35.157650000000004 10.4286,35.1319" speed="36.11111111111111" width="4.179433364703882"/>
	</edge>
	<edge from="21" function="normal" id="53828" length="12.463001108280459" numLanes="1" priority="1" speed="36.11111111111111" spreadType="center" to="22">
		<lane allow="moped bicycle pedestrian custom1 trailer evehicle rail_urban ship private truck vip custom2 authority delivery rail_electric taxi tram army hov coach motorcycle passenger bus rail emergency" index="0" length="12.463001108280459" shape="10.223099999999999,39.5494 3.9916,39.54665 -2.2399,39.54415" speed="36.11111111111111" width="4.5415380885774805"/>
	</edge>
	<edge from="22" function="normal" id="53830" length="7.9636770410467514" numLanes="1" priority="1" speed="36.11111111111111" spreadType="center" to="15">
		<lane allow="moped bicycle pedestrian custom1 trailer evehicle rail_urban ship private vip custom2 authority delivery rail_electric taxi tram army hov coach motorcycle passenger rail emergency" index="0" length="7.9636770410467514" shape="-2.2399,39.54415 -4.06105,39.8181 -4.97325,40.09895 -5.87515,40.63275 -6.43325,41.44215 -6.9733,42.673 -7.1602500000000004,44.4555" speed="36.11111111111111" width="2.835414299533668"/>
	</edge>
	<edge from="12" function="normal" id="53832" length="9.846672332565864" numLanes="1" priority="1" speed="36.11111111111111" spreadType="center" to="23">
		<lane allow="moped bicycle pedestrian custom1 trailer evehicle rail_urban ship private vip custom2 authority delivery rail_electric taxi tram army hov coach motorcycle passenger rail emergency" index="0" length="9.846672332565864" shape="-7.4307,-11.753350000000001 -7.3705,-10.031749999999999 -7.10765,-8.33755 -6.634650000000001,-7.26815 -5.75755,-6.513199999999999 -4.59155,-6.12205 -1.7408000000000001,-6.0064" speed="36.11111111111111" width="2.8548488664025626"/>
	</edge>
	<edge from="23" function="normal" id="53834" length="5.074465760047815" numLanes="1" priority="1" speed="36.11111111111111" spreadType="center" to="24">
		<lane allow="moped bicycle pedestrian custom1 trailer evehicle rail_urban ship private truck vip custom2 authority delivery rail_electric taxi tram army hov coach motorcycle passenger bus rail emergency" index="0" length="5.074465760047815" shape="-1.7408000000000001,-6.0064 0.794375,-6.1091999999999995 3.32945,-6.2132000000000005" speed="36.11111111111111" width="5.783970473645245"/>
	</edge>
	<edge from="25" function="normal" id="53836" length="5.012386372274252" numLanes="1" priority="1" speed="36.11111111111111" spreadType="center" to="26">
		<lane allow="moped bicycle pedestrian custom1 trailer evehicle rail_urban ship private truck vip custom2 authority delivery rail_electric taxi tram army hov coach motorcycle passenger bus rail emergency" index="0" length="5.012386372274252" shape="3.438,-0.70515 0.9339999999999999,-0.6003999999999999 -1.5699999999999998,-0.49550000000000005" speed="36.11111111111111" width="5.1665030233224485"/>
	</edge>
	<edge from="26" function="normal" id="53838" length="18.548939700218842" numLanes="1" priority="1" speed="36.11111111111111" spreadType="center" to="13">
		<lane allow="moped bicycle pedestrian custom1 trailer evehicle rail_urban ship private vip custom2 authority delivery rail_electric taxi tram army hov coach motorcycle passenger rail emergency" index="0" length="18.548939700218842" shape="-1.5699999999999998,-0.49550000000000005 -4.00705,-0.29875000000000007 -5.5607500000000005,0.90245 -6.1111,2.51186 -6.575150000000001,5.00495 -6.674799999999999,9.0537 -6.741199999999999,14.906600000000001" speed="36.11111111111111" width="2.798761790506652"/>
	</edge>
	<edge from="27" function="normal" id="53840" length="8.414161347955242" numLanes="1" priority="1" speed="36.11111111111111" spreadType="center" to="28">
		<lane allow="moped bicycle pedestrian custom1 trailer evehicle rail_urban ship private vip custom2 authority delivery rail_electric taxi tram army hov coach motorcycle passenger rail emergency" index="0" length="8.414161347955242" shape="-34.7151,74.2679 -30.01185,74.30725000000001 -26.30125,74.27425" speed="36.11111111111111" width="2.702357433797389"/>
	</edge>
	<edge from="29" function="normal" id="53842" length="8.414160929907876" numLanes="1" priority="1" speed="36.11111111111111" spreadType="center" to="30">
		<lane allow="moped bicycle pedestrian custom1 trailer evehicle rail_urban ship private vip custom2 authority delivery rail_electric taxi tram army hov coach motorcycle passenger rail emergency" index="0" length="8.414160929907876" shape="-26.33765,76.8794 -30.04825,76.9124 -34.7515,76.8731" speed="36.11111111111111" width="2.469634053863035"/>
	</edge>
	<edge from="31" function="normal" id="53844" length="32.7140051746039" numLanes="1" priority="1" speed="36.11111111111111" spreadType="center" to="32">
		<lane allow="moped bicycle pedestrian custom1 trailer evehicle rail_urban ship private truck vip custom2 authority delivery rail_electric taxi tram army hov coach motorcycle passenger bus rail emergency" index="0" length="32.7140051746039" shape="0.4253,74.04275 8.60405,74.03895 16.784,74.0335 24.96165,74.03800000000001 33.1393,74.04249999999999" speed="36.11111111111111" width="2.963842114553344"/>
	</edge>
	<edge from="33" function="normal" id="53846" length="32.71459520217643" numLanes="1" priority="1" speed="36.11111111111111" spreadType="center" to="34">
		<lane allow="moped bicycle pedestrian custom1 trailer evehicle rail_urban ship private truck vip custom2 authority delivery rail_electric taxi tram army hov coach motorcycle passenger bus rail emergency" index="0" length="32.71459520217643" shape="33.12365,76.90899999999999 24.94585,76.90445 16.768050000000002,76.89994999999999 8.58795,76.9054 0.40906,76.9092" speed="36.11111111111111" width="2.732616030400164"/>
	</edge>
	<edge from="2" function="normal" id="53850" length="6.771698325840525" numLanes="2" priority="1" speed="36.11111111111111" spreadType="center" to="35">
		<lane allow="moped bicycle pedestrian custom1 trailer evehicle rail_urban ship private truck vip custom2 authority delivery rail_electric taxi tram army hov coach motorcycle passenger bus rail emergency" index="0" length="6.771698325840525" shape="-21.1657,84.9645 -20.954549999999998,81.51345 -20.75865,78.20505" speed="36.11111111111111" width="2.578245023266797"/>
		<lane allow="moped bicycle pedestrian custom1 trailer evehicle rail_urban ship private truck vip custom2 authority delivery rail_electric taxi tram army hov coach motorcycle passenger bus rail emergency" index="1" length="6.771698325840525" shape="-18.2934,85.0463 -18.0854,81.55915 -17.89345,78.24549999999999" speed="36.11111111111111" width="3.1261338630967153"/>
	</edge>
	<edge from="36" function="normal" id="53856" length="6.8698332475932915" numLanes="3" priority="1" speed="36.11111111111111" spreadType="center" to="3">
		<lane allow="moped bicycle pedestrian custom1 trailer evehicle rail_urban ship private truck vip custom2 authority delivery rail_electric taxi tram army hov coach motorcycle passenger bus rail emergency" index="0" length="6.8698332475932915" shape="-8.55945,78.24565000000001 -8.74975,81.70765 -8.955350000000001,85.31235000000001" speed="36.11111111111111" width="2.5317268612549815"/>
		<lane allow="moped bicycle pedestrian custom1 trailer evehicle rail_urban ship private truck vip custom2 authority delivery rail_electric taxi tram army hov coach motorcycle passenger bus rail emergency" index="1" length="6.8698332475932915" shape="-11.4544,78.25915 -11.62905,81.66205 -11.819600000000001,85.23075" speed="36.11111111111111" width="3.1402052178161868"/>
		<lane allow="moped bicycle pedestrian custom1 trailer evehicle rail_urban ship private truck vip custom2 authority delivery rail_electric taxi tram army hov coach motorcycle passenger bus rail emergency" index="2" length="6.8698332475932915" shape="-14.6776,78.27935 -14.8625,81.6105 -15.0641,85.13829999999999" speed="36.11111111111111" width="3.292536390079844"/>
	</edge>
	<edge from="37" function="normal" id="53860" length="7.8247703366901815" numLanes="2" priority="1" speed="36.11111111111111" spreadType="center" to="5">
		<lane allow="moped bicycle pedestrian custom1 trailer evehicle rail_urban ship private truck vip custom2 authority delivery rail_electric taxi tram army hov coach motorcycle passenger bus rail emergency" index="0" length="7.8247703366901815" shape="-20.4291,72.96655 -20.1734,69.03845 -19.9103,65.0298" speed="36.11111111111111" width="2.6452469468841664"/>
		<lane allow="moped bicycle pedestrian custom1 trailer evehicle rail_urban ship private truck vip custom2 authority delivery rail_electric taxi tram army hov coach motorcycle passenger bus rail emergency" index="1" length="7.8247703366901815" shape="-17.55325,72.90295 -17.27615,69.04894999999999 -16.97755,65.0994" speed="36.11111111111111" width="3.10031778048638"/>
	</edge>
	<edge from="16" function="normal" id="53866" length="7.394295711693315" numLanes="3" priority="1" speed="36.11111111111111" spreadType="center" to="38">
		<lane allow="moped bicycle pedestrian custom1 trailer evehicle rail_urban ship private truck vip custom2 authority delivery rail_electric taxi tram army hov coach motorcycle passenger bus rail emergency" index="0" length="7.394295711693315" shape="-7.7378,65.3187 -7.9909,69.07935 -8.2284,72.69669999999999" speed="36.11111111111111" width="2.7378707420183295"/>
		<lane allow="moped bicycle pedestrian custom1 trailer evehicle rail_urban ship private truck vip custom2 authority delivery rail_electric taxi tram army hov coach motorcycle passenger bus rail emergency" index="1" length="7.394295711693315" shape="-10.63125,65.25 -10.89605,69.0698 -11.14745,72.7613" speed="36.11111111111111" width="2.959332744048902"/>
		<lane allow="moped bicycle pedestrian custom1 trailer evehicle rail_urban ship private truck vip custom2 authority delivery rail_electric taxi tram army hov coach motorcycle passenger bus rail emergency" index="2" length="7.394295711693315" shape="-13.76835,65.17555 -14.06785,69.0598 -14.3488,72.8321" speed="36.11111111111111" width="3.3026068854769868"/>
	</edge>
	<edge from="39" function="normal" id="53868" length="7.382415954144262" numLanes="1" priority="1" speed="36.11111111111111" spreadType="center" to="31">
		<lane allow="moped bicycle pedestrian custom1 trailer evehicle rail_urban ship private truck vip custom2 authority delivery rail_electric taxi tram army hov coach motorcycle passenger bus rail emergency" index="0" length="7.382415954144262" shape="-6.9567499999999995,74.11394999999999 -3.26405,74.0692 0.4253,74.04275" speed="36.11111111111111" width="2.9015859835614033"/>
	</edge>
	<edge from="34" function="normal" id="53870" length="7.553182937717503" numLanes="1" priority="1" speed="36.11111111111111" spreadType="center" to="40">
		<lane allow="moped bicycle pedestrian custom1 trailer evehicle rail_urban ship private truck vip custom2 authority delivery rail_electric taxi tram army hov coach motorcycle passenger bus rail emergency" index="0" length="7.553182937717503" shape="0.40906,76.9092 -3.36585,76.89835 -7.1441,76.9058" speed="36.11111111111111" width="2.6946722620756764"/>
	</edge>
	<edge from="28" function="normal" id="53872" length="4.473946482405161" numLanes="1" priority="1" speed="36.11111111111111" spreadType="center" to="41">
		<lane allow="moped bicycle pedestrian custom1 trailer evehicle rail_urban ship private truck vip custom2 authority delivery rail_electric taxi tram army hov coach motorcycle passenger bus rail emergency" index="0" length="4.473946482405161" shape="-26.30125,74.27425 -24.0645,74.30760000000001 -21.8278,74.3409" speed="36.11111111111111" width="2.694535930359813"/>
	</edge>
	<edge from="2" function="normal" id="53874" length="12.118104772104392" numLanes="1" priority="1" speed="36.11111111111111" spreadType="center" to="29">
		<lane allow="moped bicycle pedestrian custom1 trailer evehicle rail_urban ship private vip custom2 authority delivery rail_electric taxi tram army hov coach motorcycle passenger rail emergency" index="0" length="12.118104772104392" shape="-21.1657,84.9645 -20.9619,81.55865 -21.12755,79.54285 -21.4531,78.31945 -22.157049999999998,77.4653 -23.306350000000002,76.9033 -26.33765,76.8794" speed="36.11111111111111" width="2.508451213398421"/>
	</edge>
	<edge from="34" function="normal" id="53876" length="15.096202271522028" numLanes="1" priority="1" speed="36.11111111111111" spreadType="center" to="3">
		<lane allow="moped bicycle pedestrian custom1 trailer evehicle rail_urban ship private vip custom2 authority delivery rail_electric taxi tram army hov coach motorcycle passenger rail emergency" index="0" length="15.096202271522028" shape="0.40906,76.9092 -3.3152,76.91955 -5.32965,77.47295 -7.0146,78.5064 -8.189,79.93175 -8.725249999999999,81.92225 -8.955350000000001,85.31235000000001" speed="36.11111111111111" width="2.5021254844631624"/>
	</edge>
	<edge from="16" function="normal" id="53878" length="14.788043522256054" numLanes="1" priority="1" speed="36.11111111111111" spreadType="center" to="31">
		<lane allow="moped bicycle pedestrian custom1 trailer evehicle rail_urban ship private vip custom2 authority delivery rail_electric taxi tram army hov coach motorcycle passenger rail emergency" index="0" length="14.788043522256054" shape="-7.7378,65.3187 -7.89395,69.07035 -7.46875,71.0994 -6.38415,72.54984999999999 -4.70615,73.57464999999999 -2.73395,74.02705 0.4253,74.04275" speed="36.11111111111111" width="2.829198190300566"/>
	</edge>
	<edge from="28" function="normal" id="53880" length="13.499040247496726" numLanes="1" priority="1" speed="36.11111111111111" spreadType="center" to="5">
		<lane allow="moped bicycle pedestrian custom1 trailer evehicle rail_urban ship private vip custom2 authority delivery rail_electric taxi tram army hov coach motorcycle passenger rail emergency" index="0" length="13.499040247496726" shape="-26.30125,74.27425 -23.3508,74.2628 -22.00555,73.716 -21.27375,72.72155000000001 -20.71555,71.2201 -20.1827,68.88295 -19.9103,65.0298" speed="36.11111111111111" width="2.666132511710549"/>
	</edge>