<!-- generated on 2020-12-18 15:56:55.001281 by ipykernel_launcher.py v1_2_0+5214-53edc58fcd
-->
<nodes>
	<node id="1" type="from" x="-20.4328" y="96.71267499999999"/>
	<node id="2" type="to" x="-19.72955" y="85.00540000000001"/>
	<node id="3" type="from" x="-11.94635" y="85.22713333333333"/>
	<node id="4" type="to" x="-12.733633333333335" y="96.97815000000001"/>
	<node id="5" type="from" x="-18.443925" y="65.0646"/>
	<node id="6" type="to" x="-17.920025000000003" y="44.18235"/>
	<node id="7" type="to" x="-17.472925" y="25.527425"/>
	<node id="8" type="to" x="-17.3336" y="14.936274999999998"/>
	<node id="9" type="to" x="-16.449533333333335" y="-11.544300000000002"/>
	<node id="10" type="to" x="-17.055366666666668" y="-23.182149999999996"/>
	<node id="11" type="from" x="-9.49675" y="-23.46345"/>
	<node id="12" type="to" x="-8.885375" y="-11.719125"/>
	<node id="13" type="to" x="-9.694349999999998" y="14.914883333333334"/>
	<node id="14" type="to" x="-9.673983333333332" y="25.502733333333335"/>
	<node id="15" type="to" x="-10.149533333333334" y="44.3796"/>
	<node id="16" type="to" x="-10.712466666666666" y="65.24808333333334"/>
	<node id="17" type="to" x="-29.62125" y="57.60395"/>
	<node id="18" type="from" x="-29.523049999999998" y="53.740399999999994"/>
	<node id="19" type="to" x="-2.22225" y="35.1837"/>
	<node id="20" type="to" x="10.4286" y="35.1319"/>
	<node id="21" type="from" x="10.223099999999999" y="39.5494"/>
	<node id="22" type="to" x="-2.2399" y="39.54415"/>
	<node id="23" type="to" x="-1.7408000000000001" y="-6.0064"/>
	<node id="24" type="to" x="3.32945" y="-6.2132000000000005"/>
	<node id="25" type="from" x="3.438" y="-0.70515"/>
	<node id="26" type="to" x="-1.5699999999999998" y="-0.49550000000000005"/>
	<node id="27" type="from" x="-34.7151" y="74.2679"/>
	<node id="28" type="to" x="-26.30125" y="74.27425"/>
	<node id="29" type="from" x="-26.33765" y="76.8794"/>
	<node id="30" type="to" x="-34.7515" y="76.8731"/>
	<node id="31" type="from" x="0.4253" y="74.04275"/>
	<node id="32" type="to" x="33.1393" y="74.04249999999999"/>
	<node id="33" type="from" x="33.12365" y="76.90899999999999"/>
	<node id="34" type="to" x="0.40906" y="76.9092"/>
	<node id="35" type="to" x="-19.326050000000002" y="78.225275"/>
	<node id="36" type="from" x="-11.563816666666666" y="78.26138333333334"/>
	<node id="37" type="from" x="-18.991175" y="72.93475000000001"/>
	<node id="38" type="to" x="-11.241549999999998" y="72.76336666666667"/>
	<node id="39" type="from" x="-6.9567499999999995" y="74.11394999999999"/>
	<node id="40" type="to" x="-7.1441" y="76.9058"/>
	<node id="41" type="to" x="-21.8278" y="74.3409"/>
	<node id="42" type="to" x="-21.9827" y="76.94335000000001"/>
</nodes>
