<routes>
	<vehicle depart="0.1" departLane="1" departPos="0" departSpeed="10.8143" id="334" type="passenger">
		<route edges="53866 53892 53856 53766"/>
	</vehicle>
	<vehicle depart="0.1" departLane="2" departPos="0" departSpeed="10.7015" id="363" type="passenger">
		<route edges="53766"/>
	</vehicle>
	<vehicle depart="0.1" departLane="1" departPos="0" departSpeed="9.3635" id="366" type="passenger">
		<route edges="53800 53806 53812 53818 53866 53892 53856 53766"/>
	</vehicle>
	<vehicle depart="0.1" departLane="0" departPos="4.697456676196822" departSpeed="11.6525" id="371" type="passenger">
		<route edges="53866 53892 53856 53876 53766"/>
	</vehicle>
	<vehicle depart="0.1" departLane="0" departPos="0" departSpeed="10.5888" id="380" type="passenger">
		<route edges="53812 53818 53866 53878 53868 53870 53876 53766"/>
	</vehicle>
	<vehicle depart="0.1" departLane="1" departPos="22.96775030517867" departSpeed="8.318" id="460" type="passenger">
		<route edges="53784 53790"/>
	</vehicle>
	<vehicle depart="0.1" departLane="1" departPos="0" departSpeed="3.2949" id="464" type="passenger">
		<route edges="53774 53778 53784 53790"/>
	</vehicle>
	<vehicle depart="0.1" departLane="1" departPos="0" departSpeed="10.098" id="468" type="passenger">
		<route edges="53784 53790"/>
	</vehicle>
	<vehicle depart="0.1" departLane="0" departPos="20.58135997759042" departSpeed="9.3208" id="475" type="passenger">
		<route edges="53784 53790"/>
	</vehicle>
	<vehicle depart="0.1" departLane="1" departPos="0" departSpeed="2.3256" id="480" type="passenger">
		<route edges="53774 53778 53784 53784 53790"/>
	</vehicle>
	<vehicle depart="0.1" departLane="0" departPos="8.495392478150984" departSpeed="9.0129" id="483" type="passenger">
		<route edges="53778 53784 53790"/>
	</vehicle>
	<vehicle depart="0.1" departLane="0" departPos="0" departSpeed="1.4508" id="492" type="passenger">
		<route edges="53896 53898 53884 53900 53896 53882 53868 53878 53844"/>
	</vehicle>
	<vehicle depart="0.1" departLane="0" departPos="0" departSpeed="4.2428" id="496" type="passenger">
		<route edges="53774 53778 53784 53790"/>
	</vehicle>
	<vehicle depart="0.1" departLane="1" departPos="0" departSpeed="1.6764" id="500" type="passenger">
		<route edges="53760 53760 53850 53874 53850 53888 53860 53880 53770 53820 53770 53822 53774 53778 53784 53790"/>
	</vehicle>
	<vehicle depart="0.1" departLane="1" departPos="0" departSpeed="5.9893" id="509" type="passenger">
		<route edges="53860 53900 53860 53900 53770 53770 53774 53778 53784 53790"/>
	</vehicle>
	<vehicle depart="0.1" departLane="0" departPos="0" departSpeed="4.7061" id="512" type="passenger">
		<route edges="53760 53850 53874 53850 53888 53860 53880 53770 53770 53770 53822 53774 53778 53784 53790"/>
	</vehicle>
</routes>
