<?xml version="1.0" encoding="UTF-8"?>

<!-- generated on Fri Dec 18 15:56:55 2020 by Eclipse SUMO netconvert Version 1.8.0
<configuration xmlns:xsi="http://www.w3.org/2001/XMLSchema-instance" xsi:noNamespaceSchemaLocation="http://sumo.dlr.de/xsd/netconvertConfiguration.xsd">

    <input>
        <node-files value="./converted_scenarios/NGSIM/Peachtree/USA_Peach-2_1_I-1-1/nodes.net.xml"/>
        <edge-files value="./converted_scenarios/NGSIM/Peachtree/USA_Peach-2_1_I-1-1/edges.net.xml"/>
        <connection-files value="./converted_scenarios/NGSIM/Peachtree/USA_Peach-2_1_I-1-1/_connections.net.xml"/>
        <tllogic-files value="./converted_scenarios/NGSIM/Peachtree/USA_Peach-2_1_I-1-1/_tll.net.xml"/>
    </input>

    <output>
        <output-file value="./converted_scenarios/NGSIM/Peachtree/USA_Peach-2_1_I-1-1/USA_Peach-2_1_I-1-1.net.xml"/>
    </output>

    <processing>
        <plain.extend-edge-shape value="true"/>
        <geometry.remove.keep-edges.explicit value="true"/>
        <geometry.avoid-overlap value="true"/>
        <offset.disable-normalization value="true"/>
    </processing>

    <junctions>
        <no-turnarounds value="true"/>
        <junctions.internal-link-detail value="20"/>
    </junctions>

    <report>
        <aggregate-warnings value="5"/>
    </report>

    <random_number>
        <seed value="1234"/>
    </random_number>

</configuration>
-->

<net version="1.6" junctionCornerDetail="5" junctionLinkDetail="20" limitTurnSpeed="5.50" xmlns:xsi="http://www.w3.org/2001/XMLSchema-instance" xsi:noNamespaceSchemaLocation="http://sumo.dlr.de/xsd/net_file.xsd">

    <location netOffset="0.00,0.00" convBoundary="-34.75,-23.46,33.14,96.98" origBoundary="-34.75,-23.52,33.14,97.08" projParameter="!"/>

    <edge id=":12_0" function="internal">
        <lane id=":12_0_0" index="0" disallow="bus truck rail_fast" speed="7.05" length="10.11" width="2.85" shape="-7.53,-13.69 -7.48,-12.92 -7.40,-12.20 -7.30,-11.51 -7.18,-10.87 -7.04,-10.27 -6.87,-9.70 -6.68,-9.18 -6.46,-8.69 -6.23,-8.25 -5.96,-7.85 -5.68,-7.49 -5.37,-7.16 -5.04,-6.88 -4.69,-6.64 -4.31,-6.44 -3.91,-6.28 -3.49,-6.16 -3.04,-6.08 -2.57,-6.04"/>
    </edge>
    <edge id=":12_1" function="internal">
        <lane id=":12_1_0" index="0" disallow="rail_fast" speed="36.11" length="9.52" width="2.83" shape="-7.53,-13.69 -7.22,-4.10"/>
        <lane id=":12_1_1" index="1" disallow="rail_fast" speed="36.11" length="9.52" width="2.94" shape="-10.44,-13.58 -10.12,-4.12"/>
        <lane id=":12_1_2" index="2" disallow="rail_fast" speed="36.11" length="9.52" width="2.96" shape="-10.44,-13.58 -10.41,-12.87 -10.38,-12.23 -10.37,-11.65 -10.37,-11.13 -10.38,-10.65 -10.40,-10.21 -10.42,-9.80 -10.45,-9.41 -10.49,-9.03 -10.54,-8.66 -10.59,-8.28 -10.65,-7.89 -10.72,-7.48 -10.78,-7.04 -10.85,-6.56 -10.93,-6.04 -11.01,-5.47 -11.09,-4.83 -11.17,-4.13"/>
    </edge>
    <edge id=":13_0" function="internal">
        <lane id=":13_0_0" index="0" disallow="bus truck rail_fast" speed="7.26" length="20.07" width="2.82" shape="0.20,-0.64 -6.72,18.20"/>
    </edge>
    <edge id=":13_1" function="internal">
        <lane id=":13_1_0" index="0" disallow="rail_fast" speed="36.11" length="22.15" width="2.82" shape="-7.21,-3.90 -6.72,18.20"/>
        <lane id=":13_1_1" index="1" disallow="rail_fast" speed="36.11" length="22.15" width="2.94" shape="-10.11,-3.92 -9.62,18.21"/>
        <lane id=":13_1_2" index="2" disallow="rail_fast" speed="36.11" length="22.15" width="3.24" shape="-11.19,-3.93 -11.37,-2.27 -11.54,-0.78 -11.69,0.56 -11.84,1.78 -11.96,2.90 -12.08,3.92 -12.19,4.88 -12.28,5.80 -12.36,6.68 -12.43,7.56 -12.50,8.44 -12.55,9.36 -12.60,10.32 -12.64,11.35 -12.67,12.47 -12.69,13.70 -12.71,15.05 -12.72,16.55 -12.72,18.22"/>
    </edge>
    <edge id=":14_0" function="internal">
        <lane id=":14_0_0" index="0" disallow="bus truck rail_fast" speed="13.60" length="10.07" width="2.82" shape="-6.69,23.97 -6.68,24.71 -6.66,25.38 -6.63,25.98 -6.59,26.53 -6.53,27.03 -6.46,27.49 -6.37,27.92 -6.26,28.32 -6.13,28.71 -5.98,29.09 -5.81,29.46 -5.62,29.84 -5.39,30.23 -5.15,30.64 -4.87,31.07 -4.56,31.54 -4.23,32.06 -3.86,32.62 -3.46,33.24"/>
    </edge>
    <edge id=":14_1" function="internal">
        <lane id=":14_1_0" index="0" disallow="rail_fast" speed="36.11" length="11.43" width="2.82" shape="-6.69,23.97 -6.96,36.57"/>
        <lane id=":14_1_1" index="1" disallow="rail_fast" speed="36.11" length="11.43" width="3.00" shape="-9.61,23.98 -9.84,34.84"/>
        <lane id=":14_1_2" index="2" disallow="rail_fast" speed="36.11" length="11.43" width="3.24" shape="-12.73,23.99 -12.97,34.81"/>
    </edge>
    <edge id=":15_0" function="internal">
        <lane id=":15_0_0" index="0" disallow="bus truck rail_fast" speed="7.08" length="9.50" width="2.83" shape="-2.40,39.57 -2.88,39.66 -3.33,39.78 -3.76,39.93 -4.16,40.12 -4.54,40.33 -4.89,40.58 -5.22,40.86 -5.52,41.18 -5.80,41.52 -6.05,41.90 -6.28,42.31 -6.49,42.75 -6.66,43.22 -6.82,43.72 -6.95,44.26 -7.06,44.83 -7.14,45.43 -7.19,46.06 -7.22,46.72"/>
    </edge>
    <edge id=":15_1" function="internal">
        <lane id=":15_1_0" index="0" disallow="rail_fast" speed="36.11" length="11.14" width="2.83" shape="-6.96,36.67 -7.22,46.72"/>
        <lane id=":15_1_1" index="1" disallow="rail_fast" speed="36.11" length="11.14" width="2.96" shape="-9.84,34.94 -10.14,46.65"/>
        <lane id=":15_1_2" index="2" disallow="rail_fast" speed="36.11" length="11.14" width="3.27" shape="-12.97,34.91 -13.27,46.57"/>
    </edge>
    <edge id=":16_0" function="internal">
        <lane id=":16_0_0" index="0" disallow="bus truck rail_fast" speed="7.48" length="10.51" width="2.83" shape="-7.67,63.00 -7.70,64.01 -7.71,64.96 -7.72,65.87 -7.71,66.72 -7.69,67.52 -7.67,68.26 -7.63,68.96 -7.59,69.60 -7.53,70.19 -7.47,70.72 -7.39,71.20 -7.31,71.64 -7.21,72.01 -7.11,72.34 -6.99,72.61 -6.87,72.83 -6.73,73.00 -6.59,73.12 -6.43,73.18"/>
    </edge>
    <edge id=":16_1" function="internal">
        <lane id=":16_1_0" index="0" disallow="rail_fast" speed="36.11" length="11.04" width="2.74" shape="-7.67,63.00 -8.32,74.02"/>
        <lane id=":16_1_1" index="1" disallow="rail_fast" speed="36.11" length="11.04" width="2.96" shape="-10.57,62.93 -11.23,73.95"/>
        <lane id=":16_1_2" index="2" disallow="rail_fast" speed="36.11" length="11.04" width="3.30" shape="-13.71,62.85 -14.43,73.87"/>
    </edge>
    <edge id=":19_0" function="internal">
        <lane id=":19_0_0" index="0" disallow="bus truck rail_fast" speed="4.89" length="2.69" width="4.18" shape="-3.35,33.41 -3.26,33.54 -3.18,33.68 -3.10,33.81 -3.03,33.94 -2.95,34.07 -2.88,34.20 -2.80,34.32 -2.72,34.44 -2.64,34.56 -2.56,34.66 -2.47,34.76 -2.38,34.85 -2.28,34.94 -2.17,35.01 -2.06,35.07 -1.94,35.12 -1.81,35.15 -1.66,35.17 -1.51,35.18"/>
    </edge>
    <edge id=":2_0" function="internal">
        <lane id=":2_0_0" index="0" disallow="bus truck rail_fast" speed="6.04" length="7.51" width="2.51" shape="-21.04,82.98 -25.44,76.89"/>
    </edge>
    <edge id=":2_1" function="internal">
        <lane id=":2_1_0" index="0" disallow="rail_fast" speed="36.11" length="5.95" width="2.58" shape="-21.04,82.98 -20.69,77.05"/>
        <lane id=":2_1_1" index="1" disallow="rail_fast" speed="36.11" length="5.95" width="3.13" shape="-18.18,83.11 -17.83,77.17"/>
    </edge>
    <edge id=":22_0" function="internal">
        <lane id=":22_0_0" index="0" disallow="bus truck rail_fast" speed="36.11" length="0.91" width="2.84" shape="-1.30,39.54 -1.37,39.54 -1.43,39.54 -1.48,39.54 -1.53,39.54 -1.58,39.53 -1.62,39.53 -1.66,39.53 -1.70,39.52 -1.74,39.52 -1.77,39.51 -1.81,39.51 -1.84,39.51 -1.88,39.51 -1.93,39.51 -1.97,39.51 -2.02,39.52 -2.08,39.52 -2.14,39.53 -2.20,39.54"/>
    </edge>
    <edge id=":23_0" function="internal">
        <lane id=":23_0_0" index="0" disallow="bus truck rail_fast" speed="36.11" length="1.97" width="5.78" shape="-2.37,-6.03 -0.41,-6.06"/>
    </edge>
    <edge id=":26_0" function="internal">
        <lane id=":26_0_0" index="0" disallow="bus truck rail_fast" speed="36.11" length="4.51" width="2.80" shape="0.69,-0.59 -3.81,-0.31"/>
    </edge>
    <edge id=":28_0" function="internal">
        <lane id=":28_0_0" index="0" disallow="bus truck rail_fast" speed="7.40" length="9.99" width="2.67" shape="-28.00,74.29 -27.32,74.27 -26.67,74.22 -26.05,74.15 -25.47,74.05 -24.91,73.93 -24.38,73.77 -23.88,73.59 -23.42,73.39 -22.98,73.16 -22.58,72.90 -22.20,72.61 -21.85,72.30 -21.54,71.96 -21.26,71.59 -21.00,71.20 -20.78,70.78 -20.59,70.34 -20.42,69.86 -20.29,69.36"/>
    </edge>
    <edge id=":28_1" function="internal">
        <lane id=":28_1_0" index="0" disallow="bus truck rail_fast" speed="36.11" length="7.26" width="2.69" shape="-28.00,74.29 -20.74,74.36"/>
    </edge>
    <edge id=":29_0" function="internal">
        <lane id=":29_0_0" index="0" disallow="bus truck rail_fast" speed="3.28" length="3.79" width="2.47" shape="-24.43,76.89 -28.23,76.90"/>
    </edge>
    <edge id=":29_1" function="internal">
        <lane id=":29_1_0" index="0" disallow="bus truck rail_fast" speed="36.11" length="3.79" width="2.47" shape="-24.43,76.91 -28.23,76.90"/>
    </edge>
    <edge id=":3_0" function="internal">
        <lane id=":3_0_0" index="0" disallow="bus truck rail_fast" speed="36.11" length="5.70" width="2.53" shape="-7.79,78.43 -7.90,78.84 -8.00,79.22 -8.09,79.55 -8.18,79.85 -8.26,80.13 -8.33,80.39 -8.40,80.63 -8.46,80.86 -8.51,81.08 -8.56,81.30 -8.61,81.52 -8.65,81.75 -8.68,82.00 -8.72,82.26 -8.75,82.55 -8.78,82.86 -8.81,83.20 -8.84,83.59 -8.87,84.01"/>
    </edge>
    <edge id=":3_1" function="internal">
        <lane id=":3_1_0" index="0" disallow="rail_fast" speed="36.11" length="6.92" width="2.53" shape="-8.49,77.06 -8.87,84.01"/>
        <lane id=":3_1_1" index="1" disallow="rail_fast" speed="36.11" length="6.92" width="3.12" shape="-11.39,76.99 -11.72,83.90"/>
        <lane id=":3_1_2" index="2" disallow="rail_fast" speed="36.11" length="6.92" width="3.24" shape="-14.60,76.90 -14.97,83.77"/>
    </edge>
    <edge id=":3_4" function="internal">
        <lane id=":3_4_0" index="0" disallow="bus truck rail_fast" speed="14.45" length="7.58" width="3.24" shape="-16.59,76.50 -16.37,77.01 -16.17,77.48 -15.98,77.90 -15.81,78.29 -15.66,78.64 -15.52,78.97 -15.39,79.29 -15.29,79.59 -15.19,79.88 -15.11,80.17 -15.04,80.47 -14.99,80.78 -14.95,81.10 -14.93,81.45 -14.91,81.83 -14.91,82.25 -14.92,82.70 -14.94,83.21 -14.97,83.77"/>
    </edge>
    <edge id=":31_0" function="internal">
        <lane id=":31_0_0" index="0" disallow="bus truck rail_fast" speed="36.11" length="5.04" width="2.96" shape="-6.24,73.22 -5.87,73.31 -5.54,73.39 -5.24,73.47 -4.97,73.54 -4.73,73.60 -4.50,73.67 -4.29,73.72 -4.08,73.77 -3.89,73.82 -3.69,73.86 -3.49,73.90 -3.29,73.94 -3.07,73.97 -2.84,73.99 -2.59,74.01 -2.31,74.02 -2.01,74.04 -1.67,74.04 -1.29,74.04"/>
    </edge>
    <edge id=":31_1" function="internal">
        <lane id=":31_1_0" index="0" disallow="rail_fast" speed="36.11" length="5.61" width="2.96" shape="-6.90,74.11 -1.29,74.04"/>
    </edge>
    <edge id=":34_0" function="internal">
        <lane id=":34_0_0" index="0" disallow="bus truck rail_fast" speed="5.98" length="6.09" width="2.50" shape="-2.04,76.91 -2.58,76.91 -3.10,76.93 -3.60,76.94 -4.06,76.97 -4.50,77.00 -4.91,77.04 -5.29,77.09 -5.65,77.15 -5.98,77.21 -6.28,77.28 -6.55,77.36 -6.79,77.44 -7.01,77.53 -7.20,77.63 -7.36,77.74 -7.50,77.85 -7.60,77.98 -7.68,78.10 -7.73,78.24"/>
    </edge>
    <edge id=":34_1" function="internal">
        <lane id=":34_1_0" index="0" disallow="rail_fast" speed="36.11" length="5.52" width="2.69" shape="-2.04,76.91 -7.55,76.91"/>
    </edge>
    <edge id=":35_0" function="internal">
        <lane id=":35_0_0" index="0" disallow="rail_fast" speed="36.11" length="4.32" width="2.61" shape="-20.68,76.85 -20.40,72.56"/>
        <lane id=":35_0_1" index="1" disallow="rail_fast" speed="36.11" length="4.32" width="3.11" shape="-17.82,76.97 -17.54,72.65"/>
    </edge>
    <edge id=":35_2" function="internal">
        <lane id=":35_2_0" index="0" disallow="bus truck rail_fast" speed="5.52" length="5.70" width="2.82" shape="-17.82,76.97 -17.79,76.73 -17.74,76.51 -17.67,76.29 -17.57,76.09 -17.45,75.90 -17.31,75.72 -17.14,75.55 -16.95,75.40 -16.73,75.25 -16.50,75.12 -16.23,75.00 -15.95,74.89 -15.64,74.79 -15.30,74.70 -14.95,74.63 -14.57,74.56 -14.16,74.51 -13.73,74.47 -13.28,74.44"/>
    </edge>
    <edge id=":36_0" function="internal">
        <lane id=":36_0_0" index="0" disallow="rail_fast" speed="36.11" length="1.73" width="2.53" shape="-8.58,78.55 -8.48,76.86"/>
        <lane id=":36_0_1" index="1" disallow="rail_fast" speed="36.11" length="1.73" width="3.14" shape="-11.47,78.52 -11.38,76.79"/>
        <lane id=":36_0_2" index="2" disallow="rail_fast" speed="36.11" length="1.73" width="3.29" shape="-14.69,78.48 -14.59,76.70"/>
    </edge>
    <edge id=":37_0" function="internal">
        <lane id=":37_0_0" index="0" disallow="rail_fast" speed="36.11" length="2.51" width="2.65" shape="-20.39,72.36 -20.57,75.10"/>
        <lane id=":37_0_1" index="1" disallow="rail_fast" speed="36.11" length="2.51" width="3.10" shape="-17.52,72.45 -17.68,74.72"/>
    </edge>
    <edge id=":38_0" function="internal">
        <lane id=":38_0_0" index="0" disallow="rail_fast" speed="36.11" length="4.18" width="2.65" shape="-8.33,74.22 -8.57,78.35"/>
        <lane id=":38_0_1" index="1" disallow="rail_fast" speed="36.11" length="4.18" width="3.10" shape="-11.24,74.15 -11.46,78.32"/>
        <lane id=":38_0_2" index="2" disallow="rail_fast" speed="36.11" length="4.18" width="3.30" shape="-14.44,74.07 -14.68,78.28"/>
    </edge>
    <edge id=":38_3" function="internal">
        <lane id=":38_3_0" index="0" disallow="bus truck rail_fast" speed="6.13" length="7.27" width="2.40" shape="-14.44,74.07 -14.48,74.34 -14.55,74.61 -14.64,74.85 -14.77,75.09 -14.94,75.31 -15.13,75.51 -15.35,75.70 -15.61,75.88 -15.89,76.04 -16.21,76.19 -16.56,76.33 -16.94,76.45 -17.35,76.56 -17.79,76.65 -18.27,76.73 -18.77,76.79 -19.31,76.85 -19.88,76.88 -20.47,76.90"/>
    </edge>
    <edge id=":39_0" function="internal">
        <lane id=":39_0_0" index="0" disallow="rail_fast" speed="36.11" length="8.40" width="2.90" shape="-15.50,74.24 -7.10,74.12"/>
    </edge>
    <edge id=":39_1" function="internal">
        <lane id=":39_1_0" index="0" disallow="bus truck rail_fast" speed="36.11" length="5.99" width="2.90" shape="-13.08,74.43 -7.10,74.12"/>
    </edge>
    <edge id=":40_0" function="internal">
        <lane id=":40_0_0" index="0" disallow="bus truck rail_fast" speed="36.11" length="7.18" width="2.52" shape="-7.75,76.91 -14.94,76.97"/>
    </edge>
    <edge id=":40_1" function="internal">
        <lane id=":40_1_0" index="0" disallow="bus truck rail_fast" speed="7.05" length="8.63" width="2.69" shape="-7.75,76.91 -8.53,76.90 -9.26,76.89 -9.96,76.86 -10.62,76.83 -11.24,76.78 -11.82,76.73 -12.36,76.66 -12.86,76.58 -13.33,76.49 -13.75,76.39 -14.14,76.28 -14.49,76.16 -14.80,76.03 -15.07,75.89 -15.30,75.74 -15.49,75.58 -15.65,75.41 -15.76,75.22 -15.84,75.03"/>
    </edge>
    <edge id=":41_0" function="internal">
        <lane id=":41_0_0" index="0" disallow="rail_fast" speed="36.11" length="4.84" width="2.69" shape="-20.54,74.36 -15.70,74.24"/>
    </edge>
    <edge id=":41_1" function="internal">
        <lane id=":41_1_0" index="0" disallow="bus truck rail_fast" speed="5.66" length="4.61" width="2.46" shape="-20.54,74.36 -20.22,74.37 -19.92,74.39 -19.63,74.42 -19.35,74.46 -19.08,74.51 -18.83,74.57 -18.59,74.65 -18.36,74.73 -18.14,74.82 -17.94,74.92 -17.75,75.04 -17.57,75.16 -17.40,75.29 -17.25,75.44 -17.11,75.59 -16.98,75.76 -16.86,75.93 -16.76,76.12 -16.67,76.31"/>
    </edge>
    <edge id=":42_0" function="internal">
        <lane id=":42_0_0" index="0" disallow="bus truck rail_fast" speed="36.11" length="7.08" width="2.51" shape="-15.14,76.96 -22.21,76.94"/>
    </edge>
    <edge id=":42_1" function="internal">
        <lane id=":42_1_0" index="0" disallow="bus truck rail_fast" speed="36.11" length="0.23" width="2.51" shape="-21.98,76.94 -22.21,76.94"/>
    </edge>
    <edge id=":5_0" function="internal">
        <lane id=":5_0_0" index="0" disallow="bus truck rail_fast" speed="36.11" length="19.92" width="3.10" shape="-15.89,74.84 -16.10,74.07 -16.28,73.30 -16.43,72.52 -16.56,71.72 -16.66,70.90 -16.75,70.05 -16.82,69.18 -16.87,68.27 -16.90,67.33 -16.92,66.34 -16.93,65.31 -16.93,64.23 -16.91,63.10 -16.89,61.92 -16.86,60.67 -16.82,59.36 -16.79,57.98 -16.74,56.53 -16.70,55.01"/>
    </edge>
    <edge id=":5_1" function="internal">
        <lane id=":5_1_0" index="0" disallow="bus truck rail_fast" speed="7.16" length="11.75" width="2.40" shape="-19.91,65.03 -19.88,64.29 -19.89,63.59 -19.95,62.93 -20.05,62.31 -20.19,61.73 -20.38,61.19 -20.62,60.68 -20.89,60.22 -21.22,59.79 -21.58,59.40 -21.99,59.06 -22.45,58.75 -22.94,58.48 -23.49,58.24 -24.07,58.05 -24.70,57.90 -25.38,57.78 -26.10,57.70 -26.86,57.67"/>
    </edge>
    <edge id=":5_2" function="internal">
        <lane id=":5_2_0" index="0" disallow="bus truck rail_fast" speed="36.11" length="10.10" width="2.76" shape="-19.91,65.03 -19.68,54.93"/>
    </edge>
    <edge id=":5_3" function="internal">
        <lane id=":5_3_0" index="0" disallow="bus truck rail_fast" speed="9.29" length="20.32" width="2.40" shape="-20.56,74.90 -20.46,73.15 -20.42,71.50 -20.42,69.94 -20.47,68.47 -20.56,67.09 -20.70,65.81 -20.89,64.62 -21.13,63.53 -21.42,62.53 -21.75,61.62 -22.13,60.81 -22.55,60.09 -23.03,59.46 -23.55,58.93 -24.11,58.49 -24.73,58.14 -25.39,57.89 -26.10,57.73 -26.86,57.67"/>
    </edge>
    <edge id=":5_4" function="internal">
        <lane id=":5_4_0" index="0" disallow="rail_fast" speed="36.11" length="19.77" width="2.76" shape="-20.56,74.90 -19.68,54.93"/>
        <lane id=":5_4_1" index="1" disallow="rail_fast" speed="36.11" length="19.77" width="3.10" shape="-17.67,74.52 -16.70,55.01"/>
    </edge>
    <edge id=":6_0" function="internal">
        <lane id=":6_0_0" index="0" disallow="bus truck rail_fast" speed="6.81" length="9.91" width="2.95" shape="-24.84,53.71 -24.31,53.68 -23.80,53.62 -23.33,53.52 -22.88,53.39 -22.46,53.21 -22.06,53.00 -21.70,52.75 -21.36,52.46 -21.05,52.14 -20.77,51.77 -20.52,51.37 -20.29,50.93 -20.09,50.45 -19.92,49.94 -19.78,49.38 -19.67,48.79 -19.58,48.16 -19.52,47.50 -19.49,46.79"/>
    </edge>
    <edge id=":6_1" function="internal">
        <lane id=":6_1_0" index="0" disallow="rail_fast" speed="36.11" length="7.94" width="2.95" shape="-19.68,54.73 -19.49,46.79"/>
        <lane id=":6_1_1" index="1" disallow="rail_fast" speed="36.11" length="7.94" width="3.11" shape="-16.70,54.81 -16.47,46.87"/>
    </edge>
    <edge id=":7_0" function="internal">
        <lane id=":7_0_0" index="0" disallow="rail_fast" speed="36.11" length="3.08" width="2.99" shape="-19.05,27.05 -18.99,23.98"/>
        <lane id=":7_0_1" index="1" disallow="rail_fast" speed="36.11" length="3.08" width="3.00" shape="-15.97,27.08 -15.91,23.99"/>
    </edge>
    <edge id=":8_0" function="internal">
        <lane id=":8_0_0" index="0" disallow="rail_fast" speed="36.11" length="7.92" width="2.99" shape="-18.90,18.91 -18.92,10.98"/>
        <lane id=":8_0_1" index="1" disallow="rail_fast" speed="36.11" length="7.92" width="2.91" shape="-15.87,18.92 -15.93,11.01"/>
        <lane id=":8_0_2" index="2" disallow="rail_fast" speed="36.11" length="7.92" width="3.00" shape="-15.87,18.92 -15.56,11.02"/>
    </edge>
    <edge id=":9_0" function="internal">
        <lane id=":9_0_0" index="0" disallow="rail_fast" speed="36.11" length="3.04" width="2.99" shape="-19.40,-9.71 -19.50,-12.66"/>
        <lane id=":9_0_1" index="1" disallow="rail_fast" speed="36.11" length="3.04" width="2.90" shape="-16.44,-9.72 -16.55,-12.75"/>
        <lane id=":9_0_2" index="2" disallow="rail_fast" speed="36.11" length="3.04" width="3.22" shape="-13.63,-9.72 -13.60,-9.96 -13.58,-10.17 -13.56,-10.36 -13.54,-10.53 -13.52,-10.69 -13.51,-10.83 -13.49,-10.97 -13.48,-11.10 -13.47,-11.22 -13.46,-11.35 -13.46,-11.47 -13.45,-11.60 -13.45,-11.74 -13.45,-11.89 -13.46,-12.04 -13.46,-12.22 -13.47,-12.41 -13.48,-12.62 -13.49,-12.85"/>
    </edge>

    <edge id="53760" from="1" to="2" priority="1" spreadType="center" length="11.72">
        <lane id="53760_0" index="0" disallow="rail_fast" speed="36.11" length="11.72" width="2.58" customShape="1" shape="-21.89,96.68 -21.04,82.98"/>
        <lane id="53760_1" index="1" disallow="rail_fast" speed="36.11" length="11.72" width="3.07" customShape="1" shape="-18.98,96.80 -18.18,83.11"/>
    </edge>
    <edge id="53766" from="3" to="4" priority="1" spreadType="center" length="11.75">
        <lane id="53766_0" index="0" disallow="rail_fast" speed="36.11" length="11.75" width="2.53" customShape="1" shape="-8.87,84.01 -9.72,97.17"/>
        <lane id="53766_1" index="1" disallow="rail_fast" speed="36.11" length="11.75" width="3.12" customShape="1" shape="-11.72,83.90 -12.65,96.98"/>
        <lane id="53766_2" index="2" disallow="rail_fast" speed="36.11" length="11.75" width="3.24" customShape="1" shape="-14.97,83.77 -15.83,96.87"/>
    </edge>
    <edge id="53770" from="5" to="6" priority="1" spreadType="center" length="20.89">
        <lane id="53770_0" index="0" disallow="rail_fast" speed="36.11" length="20.89" width="2.76" customShape="1" shape="-19.68,54.93 -19.68,54.73"/>
        <lane id="53770_1" index="1" disallow="rail_fast" speed="36.11" length="20.89" width="3.10" customShape="1" shape="-16.70,55.01 -16.70,54.81"/>
    </edge>
    <edge id="53774" from="6" to="7" priority="1" spreadType="center" length="18.62">
        <lane id="53774_0" index="0" disallow="rail_fast" speed="36.11" length="18.62" width="2.95" customShape="1" shape="-19.49,46.79 -19.23,34.84 -19.05,27.05"/>
        <lane id="53774_1" index="1" disallow="rail_fast" speed="36.11" length="18.62" width="3.11" customShape="1" shape="-16.47,46.87 -16.17,34.87 -15.97,27.08"/>
    </edge>
    <edge id="53778" from="7" to="8" priority="1" spreadType="center" length="10.59">
        <lane id="53778_0" index="0" disallow="rail_fast" speed="36.11" length="10.59" width="2.99" customShape="1" shape="-18.99,23.98 -18.92,20.24 -18.90,18.91"/>
        <lane id="53778_1" index="1" disallow="rail_fast" speed="36.11" length="10.59" width="3.00" customShape="1" shape="-15.91,23.99 -15.88,20.23 -15.87,18.92"/>
    </edge>
    <edge id="53784" from="8" to="9" priority="1" spreadType="center" length="26.42">
        <lane id="53784_0" index="0" disallow="rail_fast" speed="36.11" length="26.42" width="2.99" customShape="1" shape="-18.92,10.98 -19.12,2.76 -19.40,-9.71"/>
        <lane id="53784_1" index="1" disallow="rail_fast" speed="36.11" length="26.42" width="2.91" customShape="1" shape="-15.93,11.01 -16.13,2.60 -16.44,-9.72"/>
        <lane id="53784_2" index="2" disallow="rail_fast" speed="36.11" length="26.42" width="3.00" customShape="1" shape="-15.56,11.02 -14.95,2.54 -13.63,-9.72"/>
    </edge>
    <edge id="53790" from="9" to="10" priority="1" spreadType="center" length="11.61">
        <lane id="53790_0" index="0" disallow="rail_fast" speed="36.11" length="11.61" width="2.99" customShape="1" shape="-19.50,-12.66 -20.04,-23.07"/>
        <lane id="53790_1" index="1" disallow="rail_fast" speed="36.11" length="11.61" width="2.90" customShape="1" shape="-16.55,-12.75 -17.09,-23.18"/>
        <lane id="53790_2" index="2" disallow="rail_fast" speed="36.11" length="11.61" width="3.22" customShape="1" shape="-13.49,-12.85 -14.04,-23.34"/>
    </edge>
    <edge id="53794" from="11" to="12" priority="1" spreadType="center" length="11.74">
        <lane id="53794_0" index="0" disallow="rail_fast" speed="36.11" length="11.74" width="2.86" customShape="1" shape="-8.04,-23.54 -7.53,-13.69"/>
        <lane id="53794_1" index="1" disallow="rail_fast" speed="36.11" length="11.74" width="2.96" customShape="1" shape="-10.95,-23.41 -10.44,-13.58"/>
    </edge>
    <edge id="53800" from="12" to="13" priority="1" spreadType="center" length="26.61">
        <lane id="53800_0" index="0" disallow="rail_fast" speed="36.11" length="26.61" width="2.83" customShape="1" shape="-7.22,-4.10 -7.21,-3.90"/>
        <lane id="53800_1" index="1" disallow="rail_fast" speed="36.11" length="26.61" width="2.94" customShape="1" shape="-10.12,-4.12 -10.11,-3.92"/>
        <lane id="53800_2" index="2" disallow="rail_fast" speed="36.11" length="26.61" width="2.96" customShape="1" shape="-11.17,-4.13 -11.19,-3.93"/>
    </edge>
    <edge id="53806" from="13" to="14" priority="1" spreadType="center" length="10.59">
        <lane id="53806_0" index="0" disallow="rail_fast" speed="36.11" length="10.59" width="2.82" customShape="1" shape="-6.72,18.20 -6.71,20.20 -6.69,23.97"/>
        <lane id="53806_1" index="1" disallow="rail_fast" speed="36.11" length="10.59" width="2.94" customShape="1" shape="-9.62,18.21 -9.61,20.21 -9.61,23.98"/>
        <lane id="53806_2" index="2" disallow="rail_fast" speed="36.11" length="10.59" width="3.24" customShape="1" shape="-12.72,18.22 -12.73,20.22 -12.73,23.99"/>
    </edge>
    <edge id="53812" from="14" to="15" priority="1" spreadType="center" length="18.80">
        <lane id="53812_0" index="0" disallow="rail_fast" speed="36.11" length="18.80" width="2.82" customShape="1" shape="-6.96,36.57 -6.96,36.67"/>
        <lane id="53812_1" index="1" disallow="rail_fast" speed="36.11" length="18.80" width="3.00" customShape="1" shape="-9.84,34.84 -9.84,34.94"/>
        <lane id="53812_2" index="2" disallow="rail_fast" speed="36.11" length="18.80" width="3.24" customShape="1" shape="-12.97,34.81 -12.97,34.91"/>
    </edge>
    <edge id="53818" from="15" to="16" priority="1" spreadType="center" length="20.87">
        <lane id="53818_0" index="0" disallow="rail_fast" speed="36.11" length="20.87" width="2.83" customShape="1" shape="-7.22,46.72 -7.45,54.89 -7.67,63.00"/>
        <lane id="53818_1" index="1" disallow="rail_fast" speed="36.11" length="20.87" width="2.96" customShape="1" shape="-10.14,46.65 -10.35,54.82 -10.57,62.93"/>
        <lane id="53818_2" index="2" disallow="rail_fast" speed="36.11" length="20.87" width="3.27" customShape="1" shape="-13.27,46.57 -13.49,54.74 -13.71,62.85"/>
    </edge>
    <edge id="53820" from="5" to="17" priority="1" spreadType="center" length="15.39">
        <lane id="53820_0" index="0" disallow="bus truck rail_fast" speed="36.11" length="15.39" width="2.40" customShape="1" shape="-26.86,57.67 -29.62,57.60"/>
    </edge>
    <edge id="53822" from="18" to="6" priority="1" spreadType="center" length="17.76">
        <lane id="53822_0" index="0" disallow="bus truck rail_fast" speed="36.11" length="17.76" width="2.71" customShape="1" shape="-29.52,53.74 -24.84,53.71"/>
    </edge>
    <edge id="53824" from="14" to="19" priority="1" spreadType="center" length="11.72">
        <lane id="53824_0" index="0" disallow="bus truck rail_fast" speed="36.11" length="11.72" width="2.82" customShape="1" shape="-3.46,33.24 -3.35,33.41"/>
    </edge>
    <edge id="53826" from="19" to="20" priority="1" spreadType="center" length="12.65">
        <lane id="53826_0" index="0" disallow="rail_fast" speed="36.11" length="12.65" width="4.18" customShape="1" shape="-1.51,35.18 4.10,35.16 10.43,35.13"/>
    </edge>
    <edge id="53828" from="21" to="22" priority="1" spreadType="center" length="12.46">
        <lane id="53828_0" index="0" disallow="rail_fast" speed="36.11" length="12.46" width="4.54" customShape="1" shape="10.22,39.55 3.99,39.55 -1.30,39.54"/>
    </edge>
    <edge id="53830" from="22" to="15" priority="1" spreadType="center" length="7.96">
        <lane id="53830_0" index="0" disallow="bus truck rail_fast" speed="36.11" length="7.96" width="2.84" customShape="1" shape="-2.20,39.54 -2.40,39.57"/>
    </edge>
    <edge id="53832" from="12" to="23" priority="1" spreadType="center" length="9.85">
        <lane id="53832_0" index="0" disallow="bus truck rail_fast" speed="36.11" length="9.85" width="2.85" customShape="1" shape="-2.57,-6.04 -2.37,-6.03"/>
    </edge>
    <edge id="53834" from="23" to="24" priority="1" spreadType="center" length="5.07">
        <lane id="53834_0" index="0" disallow="rail_fast" speed="36.11" length="5.07" width="5.78" customShape="1" shape="-0.41,-6.06 0.79,-6.11 3.33,-6.21"/>
    </edge>
    <edge id="53836" from="25" to="26" priority="1" spreadType="center" length="5.01">
        <lane id="53836_0" index="0" disallow="rail_fast" speed="36.11" length="5.01" width="5.17" customShape="1" shape="3.44,-0.71 0.93,-0.60 0.69,-0.59"/>
    </edge>
    <edge id="53838" from="26" to="13" priority="1" spreadType="center" length="18.55">
        <lane id="53838_0" index="0" disallow="bus truck rail_fast" speed="36.11" length="18.55" width="2.80" customShape="1" shape="-3.81,-0.31 -4.01,-0.30 -5.56,0.90 -6.11,2.51 -6.58,5.00 -6.67,9.05 0.20,-0.64"/>
    </edge>
    <edge id="53840" from="27" to="28" priority="1" spreadType="center" length="8.41">
        <lane id="53840_0" index="0" disallow="bus truck rail_fast" speed="36.11" length="8.41" width="2.70" customShape="1" shape="-34.72,74.27 -30.01,74.31 -28.00,74.29"/>
    </edge>
    <edge id="53842" from="29" to="30" priority="1" spreadType="center" length="8.41">
        <lane id="53842_0" index="0" disallow="bus truck rail_fast" speed="36.11" length="8.41" width="2.47" customShape="1" shape="-28.23,76.90 -30.05,76.91 -34.75,76.87"/>
    </edge>
    <edge id="53844" from="31" to="32" priority="1" spreadType="center" length="32.71">
        <lane id="53844_0" index="0" disallow="rail_fast" speed="36.11" length="32.71" width="2.96" customShape="1" shape="-1.29,74.04 8.60,74.04 16.78,74.03 24.96,74.04 33.14,74.04"/>
    </edge>
    <edge id="53846" from="33" to="34" priority="1" spreadType="center" length="32.71">
        <lane id="53846_0" index="0" disallow="rail_fast" speed="36.11" length="32.71" width="2.73" customShape="1" shape="33.12,76.91 24.95,76.90 16.77,76.90 8.59,76.91 -2.04,76.91"/>
    </edge>