<!-- generated on 2020-12-18 15:45:24.080762 by ipykernel_launcher.py v1_2_0+5214-53edc58fcd
-->
<connections>
	<connection contPos="-4.0" from="490" fromLane="0" keepClear="true" to="488" toLane="0"/>
	<connection contPos="-4.0" from="490" fromLane="1" keepClear="true" to="496" toLane="0"/>
	<connection contPos="-4.0" from="490" fromLane="2" keepClear="true" to="496" toLane="1"/>
	<connection contPos="-4.0" from="1088" fromLane="2" keepClear="true" to="508" toLane="0"/>
	<connection contPos="-4.0" from="1088" fromLane="1" keepClear="true" to="1159" toLane="1"/>
	<connection contPos="-4.0" from="1088" fromLane="0" keepClear="true" to="2779" toLane="0"/>
	<connection contPos="-4.0" from="1088" fromLane="0" keepClear="true" to="1159" toLane="0"/>
	<connection contPos="-4.0" from="1178" fromLane="0" keepClear="true" to="2907" toLane="0"/>
	<connection contPos="-4.0" from="1178" fromLane="0" keepClear="true" to="2897" toLane="0"/>
	<connection contPos="-4.0" from="3286" fromLane="0" keepClear="true" to="3292" toLane="0"/>
	<connection contPos="-4.0" from="488" fromLane="0" keepClear="true" to="492" toLane="0"/>
	<connection contPos="-4.0" from="496" fromLane="0" keepClear="true" to="498" toLane="0"/>
	<connection contPos="-4.0" from="496" fromLane="1" keepClear="true" to="498" toLane="1"/>
	<connection contPos="-4.0" from="506" fromLane="0" keepClear="true" to="3639" toLane="0"/>
	<connection contPos="-4.0" from="3639" fromLane="0" keepClear="true" to="492" toLane="0"/>
	<connection contPos="-4.0" from="508" fromLane="0" keepClear="true" to="506" toLane="0"/>
	<connection contPos="-4.0" from="1159" fromLane="1" keepClear="true" to="1105" toLane="1"/>
	<connection contPos="-4.0" from="1159" fromLane="0" keepClear="true" to="1105" toLane="0"/>
	<connection contPos="-4.0" from="2779" fromLane="0" keepClear="true" to="1172" toLane="0"/>
	<connection contPos="-4.0" from="2897" fromLane="0" keepClear="true" to="1105" toLane="0"/>
	<connection contPos="-4.0" from="2907" fromLane="0" keepClear="true" to="3666" toLane="0"/>
	<connection contPos="-4.0" from="2907" fromLane="0" keepClear="true" to="2931" toLane="0"/>
	<connection contPos="-4.0" from="2931" fromLane="0" keepClear="true" to="506" toLane="0"/>
	<connection contPos="-4.0" from="3666" fromLane="0" keepClear="true" to="498" toLane="1"/>
	<connection contPos="-4.0" from="3292" fromLane="0" keepClear="true" to="3577" toLane="0"/>
	<connection contPos="-4.0" from="3292" fromLane="0" keepClear="true" to="3641" toLane="0"/>
	<connection contPos="-4.0" from="3641" fromLane="0" keepClear="true" to="5405" toLane="0"/>
	<connection contPos="-4.0" from="3641" fromLane="0" keepClear="true" to="3483" toLane="0"/>
	<connection contPos="-4.0" from="3577" fromLane="0" keepClear="true" to="498" toLane="0"/>
	<connection contPos="-4.0" from="3483" fromLane="0" keepClear="true" to="3622" toLane="0"/>
	<connection contPos="-4.0" from="3622" fromLane="0" keepClear="true" to="1172" toLane="0"/>
	<connection contPos="-4.0" from="5405" fromLane="0" keepClear="true" to="498" toLane="1"/>
</connections>
