<routes>
	<vehicle depart="0.1" departLane="0" departPos="29.419794157176575" departSpeed="11.1111" id="1" type="passenger">
		<route edges="490 488 492"/>
	</vehicle>
	<vehicle depart="0.1" departLane="1" departPos="58.84360269263899" departSpeed="13.8889" id="2" type="passenger">
		<route edges="1088 1159 1105"/>
	</vehicle>
	<vehicle depart="0.1" departLane="0" departPos="31.152960194230985" departSpeed="8.3333" id="3" type="passenger">
		<route edges="3286 3292 3641 3483 3622 1172"/>
	</vehicle>
</routes>
