<?xml version="1.0" encoding="UTF-8"?>

<!-- generated on Fri Dec 18 15:45:24 2020 by Eclipse SUMO netconvert Version 1.8.0
<configuration xmlns:xsi="http://www.w3.org/2001/XMLSchema-instance" xsi:noNamespaceSchemaLocation="http://sumo.dlr.de/xsd/netconvertConfiguration.xsd">

    <input>
        <node-files value="./converted_scenarios/hand-crafted/DEU_Muc-3_1_I-1-1/nodes.net.xml"/>
        <edge-files value="./converted_scenarios/hand-crafted/DEU_Muc-3_1_I-1-1/edges.net.xml"/>
        <connection-files value="./converted_scenarios/hand-crafted/DEU_Muc-3_1_I-1-1/_connections.net.xml"/>
        <tllogic-files value="./converted_scenarios/hand-crafted/DEU_Muc-3_1_I-1-1/_tll.net.xml"/>
    </input>

    <output>
        <output-file value="./converted_scenarios/hand-crafted/DEU_Muc-3_1_I-1-1/DEU_Muc-3_1_I-1-1.net.xml"/>
    </output>

    <processing>
        <plain.extend-edge-shape value="true"/>
        <geometry.remove.keep-edges.explicit value="true"/>
        <geometry.avoid-overlap value="true"/>
        <offset.disable-normalization value="true"/>
    </processing>

    <junctions>
        <no-turnarounds value="true"/>
        <junctions.internal-link-detail value="20"/>
    </junctions>

    <report>
        <aggregate-warnings value="5"/>
    </report>

    <random_number>
        <seed value="1234"/>
    </random_number>

</configuration>
-->

<net version="1.6" junctionCornerDetail="5" junctionLinkDetail="20" limitTurnSpeed="5.50" xmlns:xsi="http://www.w3.org/2001/XMLSchema-instance" xsi:noNamespaceSchemaLocation="http://sumo.dlr.de/xsd/net_file.xsd">

    <location netOffset="0.00,0.00" convBoundary="-90.54,-85.15,50.06,92.88" origBoundary="-90.54,-85.95,50.06,93.68" projParameter="!"/>

    <edge id=":12_0" function="internal">
        <lane id=":12_0_0" index="0" disallow="bus truck rail_fast" speed="5.55" length="2.61" width="2.99" shape="-8.43,2.32 -8.58,2.36 -8.73,2.39 -8.88,2.42 -9.02,2.45 -9.16,2.48 -9.30,2.50 -9.43,2.53 -9.56,2.56 -9.69,2.59 -9.81,2.63 -9.93,2.67 -10.05,2.72 -10.16,2.78 -10.26,2.84 -10.37,2.92 -10.46,3.01 -10.55,3.11 -10.64,3.22 -10.71,3.35"/>
    </edge>
    <edge id=":12_1" function="internal">
        <lane id=":12_1_0" index="0" disallow="rail_fast" speed="36.11" length="2.62" width="3.00" shape="-8.43,2.32 -10.95,3.02"/>
    </edge>
    <edge id=":13_0" function="internal">
        <lane id=":13_0_0" index="0" disallow="bus truck rail_fast" speed="5.86" length="2.55" width="3.00" shape="-26.27,7.55 -26.43,7.48 -26.58,7.42 -26.72,7.38 -26.85,7.35 -26.97,7.33 -27.08,7.33 -27.19,7.34 -27.29,7.36 -27.39,7.38 -27.49,7.42 -27.59,7.46 -27.70,7.51 -27.81,7.56 -27.93,7.62 -28.05,7.67 -28.19,7.73 -28.34,7.79 -28.50,7.84 -28.68,7.89"/>
    </edge>
    <edge id=":13_1" function="internal">
        <lane id=":13_1_0" index="0" disallow="rail_fast" speed="36.11" length="2.51" width="3.00" shape="-26.25,7.23 -28.68,7.89"/>
    </edge>
    <edge id=":16_0" function="internal">
        <lane id=":16_0_0" index="0" disallow="rail_fast" speed="36.11" length="3.00" width="3.00" shape="-29.48,5.01 -26.58,4.21"/>
    </edge>
    <edge id=":17_0" function="internal">
        <lane id=":17_0_0" index="0" disallow="rail_fast" speed="36.11" length="0.82" width="3.00" shape="-21.83,6.01 -22.62,6.22"/>
    </edge>
    <edge id=":17_1" function="internal">
        <lane id=":17_1_0" index="0" disallow="bus truck rail_fast" speed="8.65" length="6.04" width="3.00" shape="-18.16,2.51 -18.40,2.88 -18.62,3.22 -18.81,3.53 -19.00,3.81 -19.17,4.07 -19.34,4.31 -19.50,4.53 -19.67,4.72 -19.84,4.91 -20.02,5.07 -20.21,5.23 -20.42,5.37 -20.65,5.50 -20.90,5.63 -21.17,5.75 -21.48,5.87 -21.82,5.99 -22.20,6.10 -22.62,6.22"/>
    </edge>
    <edge id=":18_0" function="internal">
        <lane id=":18_0_0" index="0" disallow="rail_fast" speed="36.11" length="3.00" width="3.00" shape="-22.89,6.30 -25.78,7.10"/>
    </edge>
    <edge id=":19_0" function="internal">
        <lane id=":19_0_0" index="0" disallow="rail_fast" speed="36.11" length="6.99" width="3.00" shape="-14.89,4.10 -21.64,5.95"/>
    </edge>
    <edge id=":19_1" function="internal">
        <lane id=":19_1_0" index="0" disallow="bus truck rail_fast" speed="6.79" length="4.58" width="2.84" shape="-14.89,4.10 -15.01,4.12 -15.14,4.13 -15.27,4.13 -15.42,4.12 -15.58,4.09 -15.75,4.04 -15.94,3.99 -16.13,3.92 -16.34,3.84 -16.55,3.75 -16.78,3.64 -17.02,3.52 -17.27,3.38 -17.54,3.24 -17.81,3.08 -18.10,2.90 -18.39,2.72 -18.70,2.52 -19.02,2.31"/>
    </edge>
    <edge id=":2_0" function="internal">
        <lane id=":2_0_0" index="0" disallow="bus truck rail_fast" speed="6.49" length="4.01" width="2.99" shape="-24.62,11.30 -24.66,11.13 -24.70,10.95 -24.75,10.76 -24.79,10.55 -24.84,10.33 -24.89,10.10 -24.95,9.87 -25.01,9.63 -25.07,9.40 -25.14,9.17 -25.21,8.94 -25.29,8.72 -25.38,8.51 -25.47,8.32 -25.57,8.15 -25.68,7.99 -25.80,7.85 -25.92,7.74 -26.06,7.66"/>
    </edge>
    <edge id=":2_1" function="internal">
        <lane id=":2_1_0" index="0" disallow="rail_fast" speed="36.11" length="4.74" width="3.00" shape="-21.72,10.50 -22.99,5.93"/>
        <lane id=":2_1_1" index="1" disallow="rail_fast" speed="36.11" length="4.74" width="3.00" shape="-18.82,9.70 -20.09,5.13"/>
    </edge>
    <edge id=":20_0" function="internal">
        <lane id=":20_0_0" index="0" disallow="bus truck rail_fast" speed="36.11" length="0.76" width="2.95" shape="-25.62,3.94 -24.86,3.97"/>
    </edge>
    <edge id=":20_1" function="internal">
        <lane id=":20_1_0" index="0" disallow="rail_fast" speed="36.11" length="1.59" width="3.00" shape="-25.62,3.94 -27.15,4.37"/>
    </edge>
    <edge id=":21_0" function="internal">
        <lane id=":21_0_0" index="0" disallow="bus truck rail_fast" speed="6.62" length="8.16" width="2.86" shape="-26.09,4.07 -25.58,3.92 -25.09,3.75 -24.64,3.56 -24.21,3.36 -23.82,3.14 -23.45,2.90 -23.12,2.65 -22.81,2.38 -22.54,2.09 -22.29,1.79 -22.08,1.47 -21.89,1.14 -21.74,0.78 -21.62,0.41 -21.52,0.03 -21.46,-0.37 -21.42,-0.79 -21.42,-1.22 -21.44,-1.67"/>
    </edge>
    <edge id=":21_1" function="internal">
        <lane id=":21_1_0" index="0" disallow="rail_fast" speed="36.11" length="9.63" width="3.00" shape="-26.09,4.07 -16.81,1.52"/>
    </edge>
    <edge id=":22_0" function="internal">
        <lane id=":22_0_0" index="0" disallow="rail_fast" speed="36.11" length="1.68" width="3.00" shape="-16.61,1.46 -14.99,1.02"/>
    </edge>
    <edge id=":3_0" function="internal">
        <lane id=":3_0_0" index="0" disallow="rail_fast" speed="36.11" length="5.41" width="3.00" shape="-23.19,5.19 -24.56,0.25"/>
        <lane id=":3_0_1" index="1" disallow="rail_fast" speed="36.11" length="5.41" width="3.00" shape="-20.14,4.94 -21.67,-0.55"/>
    </edge>
    <edge id=":3_2" function="internal">
        <lane id=":3_2_0" index="0" disallow="bus truck rail_fast" speed="36.11" length="1.34" width="3.00" shape="-21.46,-1.87 -21.67,-0.55"/>
    </edge>
    <edge id=":3_3" function="internal">
        <lane id=":3_3_0" index="0" disallow="bus truck rail_fast" speed="7.17" length="3.85" width="3.00" shape="-19.19,2.19 -19.42,2.04 -19.63,1.90 -19.84,1.78 -20.02,1.66 -20.19,1.55 -20.35,1.45 -20.50,1.35 -20.63,1.26 -20.76,1.15 -20.87,1.05 -20.98,0.94 -21.08,0.81 -21.17,0.68 -21.26,0.53 -21.35,0.36 -21.43,0.17 -21.51,-0.05 -21.59,-0.28 -21.67,-0.55"/>
    </edge>
    <edge id=":3_4" function="internal">
        <lane id=":3_4_0" index="0" disallow="bus truck rail_fast" speed="6.08" length="3.67" width="3.00" shape="-24.74,3.80 -24.66,3.67 -24.58,3.54 -24.52,3.40 -24.46,3.25 -24.41,3.09 -24.36,2.93 -24.33,2.76 -24.30,2.59 -24.29,2.41 -24.28,2.22 -24.27,2.03 -24.28,1.83 -24.30,1.62 -24.32,1.41 -24.35,1.19 -24.39,0.96 -24.44,0.73 -24.50,0.49 -24.56,0.25"/>
    </edge>
    <edge id=":6_0" function="internal">
        <lane id=":6_0_0" index="0" disallow="bus truck rail_fast" speed="5.99" length="5.62" width="2.89" shape="-13.19,-3.72 -13.10,-3.45 -13.00,-3.19 -12.88,-2.95 -12.75,-2.72 -12.60,-2.50 -12.43,-2.29 -12.25,-2.10 -12.06,-1.93 -11.84,-1.76 -11.61,-1.61 -11.37,-1.47 -11.10,-1.35 -10.82,-1.24 -10.53,-1.14 -10.22,-1.06 -9.89,-0.99 -9.55,-0.93 -9.19,-0.89 -8.82,-0.85"/>
    </edge>
    <edge id=":6_1" function="internal">
        <lane id=":6_1_0" index="0" disallow="rail_fast" speed="36.11" length="7.58" width="3.01" shape="-13.19,-3.72 -11.11,3.79"/>
        <lane id=":6_1_1" index="1" disallow="rail_fast" speed="36.11" length="7.58" width="3.00" shape="-16.08,-2.92 -14.11,4.19"/>
    </edge>
    <edge id=":6_3" function="internal">
        <lane id=":6_3_0" index="0" disallow="bus truck rail_fast" speed="6.94" length="4.64" width="2.83" shape="-18.98,-2.12 -18.93,-1.95 -18.87,-1.76 -18.80,-1.55 -18.71,-1.32 -18.63,-1.07 -18.53,-0.81 -18.44,-0.54 -18.35,-0.26 -18.26,0.02 -18.18,0.30 -18.10,0.57 -18.03,0.85 -17.98,1.11 -17.94,1.36 -17.92,1.60 -17.92,1.82 -17.94,2.02 -17.98,2.19 -18.06,2.34"/>
    </edge>
    <edge id=":7_0" function="internal">
        <lane id=":7_0_0" index="0" disallow="bus truck rail_fast" speed="6.65" length="3.73" width="3.00" shape="-10.76,3.44 -10.88,3.68 -10.98,3.89 -11.04,4.09 -11.09,4.27 -11.11,4.44 -11.11,4.61 -11.10,4.76 -11.07,4.91 -11.02,5.06 -10.96,5.21 -10.90,5.36 -10.82,5.51 -10.74,5.67 -10.66,5.84 -10.57,6.03 -10.48,6.23 -10.39,6.44 -10.31,6.68 -10.23,6.94"/>
    </edge>
    <edge id=":7_1" function="internal">
        <lane id=":7_1_0" index="0" disallow="rail_fast" speed="36.11" length="3.27" width="3.00" shape="-11.05,3.98 -10.23,6.94"/>
        <lane id=":7_1_1" index="1" disallow="rail_fast" speed="36.11" length="3.27" width="3.00" shape="-14.06,4.38 -13.13,7.74"/>
    </edge>
    <edge id=":9_0" function="internal">
        <lane id=":9_0_0" index="0" disallow="bus truck rail_fast" speed="36.11" length="0.64" width="3.00" shape="-8.62,-0.84 -9.19,-0.58"/>
    </edge>
    <edge id=":9_1" function="internal">
        <lane id=":9_1_0" index="0" disallow="rail_fast" speed="36.11" length="2.58" width="3.00" shape="-11.69,0.11 -9.19,-0.58"/>
    </edge>

    <edge id="1088" from="5" to="6" priority="1" spreadType="center" length="87.92">
        <lane id="1088_0" index="0" disallow="rail_fast" speed="36.11" length="87.92" width="3.01" customShape="1" shape="-35.97,-85.95 -33.35,-76.50 -30.73,-67.05 -28.12,-57.60 -25.50,-48.14 -22.88,-38.69 -20.26,-29.24 -17.64,-19.79 -15.02,-10.34 -13.19,-3.72"/>
        <lane id="1088_1" index="1" disallow="rail_fast" speed="36.11" length="87.92" width="3.00" customShape="1" shape="-38.87,-85.15 -36.25,-75.70 -33.63,-66.25 -31.01,-56.80 -28.39,-47.35 -25.77,-37.90 -23.16,-28.44 -20.54,-18.99 -17.92,-9.54 -16.08,-2.92"/>
        <lane id="1088_2" index="2" disallow="rail_fast" speed="36.11" length="87.92" width="3.00" customShape="1" shape="-41.77,-84.35 -39.15,-74.90 -36.53,-65.45 -33.91,-56.00 -31.29,-46.55 -28.67,-37.10 -26.05,-27.65 -23.43,-18.20 -20.81,-8.74 -18.98,-2.12"/>
    </edge>
    <edge id="1105" from="7" to="8" priority="1" spreadType="center" length="88.35">
        <lane id="1105_0" index="0" disallow="rail_fast" speed="36.11" length="88.35" width="3.00" customShape="1" shape="-10.23,6.94 -8.25,14.08 -5.63,23.53 -3.02,32.98 -0.40,42.44 2.22,51.89 4.84,61.34 7.46,70.79 10.08,80.24 12.70,89.69"/>
        <lane id="1105_1" index="1" disallow="rail_fast" speed="36.11" length="88.35" width="3.00" customShape="1" shape="-13.13,7.74 -11.15,14.88 -8.53,24.33 -5.91,33.78 -3.29,43.23 -0.68,52.68 1.94,62.14 4.56,71.59 7.18,81.04 9.80,90.49"/>
    </edge>
    <edge id="1159" from="6" to="7" priority="1" spreadType="center" length="6.00">
        <lane id="1159_0" index="0" disallow="rail_fast" speed="36.11" length="6.00" width="3.01" customShape="1" shape="-11.11,3.79 -11.05,3.98"/>
        <lane id="1159_1" index="1" disallow="rail_fast" speed="36.11" length="6.00" width="3.00" customShape="1" shape="-14.11,4.19 -14.06,4.38"/>
    </edge>
    <edge id="1172" from="9" to="10" priority="1" spreadType="center" length="62.14">
        <lane id="1172_0" index="0" disallow="rail_fast" speed="36.11" length="62.14" width="3.00" customShape="1" shape="-9.19,-0.58 -0.81,-2.89 9.21,-5.64 19.22,-8.40 29.23,-11.16 39.25,-13.91 49.26,-16.67"/>
    </edge>
    <edge id="1178" from="11" to="12" priority="1" spreadType="center" length="62.14">
        <lane id="1178_0" index="0" disallow="rail_fast" speed="36.11" length="62.14" width="3.00" customShape="1" shape="50.06,-13.78 40.05,-11.02 30.04,-8.27 20.03,-5.51 10.01,-2.76 0.00,0.00 -8.43,2.32"/>
    </edge>
    <edge id="2779" from="6" to="9" priority="1" spreadType="center" length="2.30">
        <lane id="2779_0" index="0" disallow="bus truck rail_fast" speed="36.11" length="2.30" width="2.89" customShape="1" shape="-8.82,-0.85 -8.62,-0.84"/>
    </edge>
    <edge id="2897" from="12" to="7" priority="1" spreadType="center" length="2.36">
        <lane id="2897_0" index="0" disallow="bus truck rail_fast" speed="36.11" length="2.36" width="2.99" customShape="1" shape="-10.71,3.35 -10.76,3.44"/>
    </edge>
    <edge id="2907" from="12" to="19" priority="1" spreadType="center" length="6.01">
        <lane id="2907_0" index="0" disallow="rail_fast" speed="36.11" length="6.01" width="3.00" customShape="1" shape="-10.95,3.02 -12.74,3.51 -14.89,4.10"/>
    </edge>
    <edge id="2931" from="19" to="17" priority="1" spreadType="center" length="6.01">
        <lane id="2931_0" index="0" disallow="rail_fast" speed="36.11" length="6.01" width="3.00" customShape="1" shape="-21.64,5.95 -21.83,6.01"/>
    </edge>
    <edge id="3286" from="15" to="16" priority="1" spreadType="center" length="64.84">
        <lane id="3286_0" index="0" disallow="rail_fast" speed="36.11" length="64.84" width="3.00" customShape="1" shape="-90.54,21.81 -80.53,19.06 -70.52,16.30 -60.51,13.55 -50.49,10.79 -40.48,8.03 -29.48,5.01"/>
    </edge>
    <edge id="3292" from="16" to="20" priority="1" spreadType="center" length="3.00">
        <lane id="3292_0" index="0" disallow="rail_fast" speed="36.11" length="3.00" width="3.00" customShape="1" shape="-26.58,4.21 -25.62,3.94"/>
    </edge>
    <edge id="3483" from="21" to="22" priority="1" spreadType="center" length="6.01">
        <lane id="3483_0" index="0" disallow="rail_fast" speed="36.11" length="6.01" width="3.00" customShape="1" shape="-16.81,1.52 -16.61,1.46"/>
    </edge>
    <edge id="3577" from="20" to="3" priority="1" spreadType="center" length="2.33">
        <lane id="3577_0" index="0" disallow="bus truck rail_fast" speed="36.11" length="2.33" width="2.95" customShape="1" shape="-24.86,3.97 -24.74,3.80"/>
    </edge>
    <edge id="3622" from="22" to="9" priority="1" spreadType="center" length="6.01">
        <lane id="3622_0" index="0" disallow="rail_fast" speed="36.11" length="6.01" width="3.00" customShape="1" shape="-14.99,1.02 -13.55,0.62 -11.69,0.11"/>
    </edge>
    <edge id="3639" from="18" to="13" priority="1" spreadType="center" length="3.01">
        <lane id="3639_0" index="0" disallow="rail_fast" speed="36.11" length="3.01" width="3.00" customShape="1" shape="-25.78,7.10 -26.25,7.23"/>
    </edge>
    <edge id="3641" from="20" to="21" priority="1" spreadType="center" length="3.01">
        <lane id="3641_0" index="0" disallow="rail_fast" speed="36.11" length="3.01" width="3.00" customShape="1" shape="-27.15,4.37 -26.09,4.07"/>
    </edge>
    <edge id="3666" from="19" to="3" priority="1" spreadType="center" length="7.09">
        <lane id="3666_0" index="0" disallow="bus truck rail_fast" speed="36.11" length="7.09" width="2.84" customShape="1" shape="-19.02,2.31 -19.19,2.19"/>
    </edge>
    <edge id="488" from="2" to="13" priority="1" spreadType="center" length="2.36">
        <lane id="488_0" index="0" disallow="bus truck rail_fast" speed="36.11" length="2.36" width="2.99" customShape="1" shape="-26.06,7.66 -26.27,7.55"/>
    </edge>
    <edge id="490" from="1" to="2" priority="1" spreadType="center" length="88.35">
        <lane id="490_0" index="0" disallow="rail_fast" speed="36.11" length="88.35" width="3.00" customShape="1" shape="-1.79,93.69 -4.41,84.23 -7.02,74.78 -9.64,65.33 -12.26,55.88 -14.88,46.43 -17.50,36.98 -20.12,27.52 -22.74,18.07 -24.62,11.30"/>
        <lane id="490_1" index="1" disallow="rail_fast" speed="36.11" length="88.35" width="3.00" customShape="1" shape="1.11,92.88 -1.51,83.44 -4.13,73.98 -6.75,64.53 -9.37,55.08 -11.98,45.63 -14.60,36.18 -17.22,26.73 -19.84,17.28 -21.72,10.50"/>
        <lane id="490_2" index="2" disallow="rail_fast" speed="36.11" length="88.35" width="3.00" customShape="1" shape="4.01,92.09 1.39,82.64 -1.23,73.19 -3.85,63.74 -6.47,54.28 -9.09,44.83 -11.71,35.38 -14.32,25.93 -16.94,16.48 -18.82,9.70"/>
    </edge>
    <edge id="492" from="13" to="14" priority="1" spreadType="center" length="64.84">
        <lane id="492_0" index="0" disallow="rail_fast" speed="36.11" length="64.84" width="3.00" customShape="1" shape="-28.68,7.89 -39.67,10.92 -49.69,13.68 -59.70,16.43 -69.71,19.19 -79.73,21.95 -89.74,24.70"/>
    </edge>
    <edge id="496" from="2" to="3" priority="1" spreadType="center" length="6.00">
        <lane id="496_0" index="0" disallow="rail_fast" speed="36.11" length="6.00" width="3.00" customShape="1" shape="-22.99,5.93 -23.19,5.19"/>
        <lane id="496_1" index="1" disallow="rail_fast" speed="36.11" length="6.00" width="3.00" customShape="1" shape="-20.09,5.13 -20.14,4.94"/>
    </edge>
    <edge id="498" from="3" to="4" priority="1" spreadType="center" length="87.91">
        <lane id="498_0" index="0" disallow="rail_fast" speed="36.11" length="87.91" width="3.00" customShape="1" shape="-24.56,0.25 -26.61,-7.14 -29.23,-16.60 -31.85,-26.05 -34.47,-35.50 -37.08,-44.95 -39.70,-54.40 -42.32,-63.85 -44.94,-73.30 -47.56,-82.76"/>
        <lane id="498_1" index="1" disallow="rail_fast" speed="36.11" length="87.91" width="3.00" customShape="1" shape="-21.67,-0.55 -23.71,-7.94 -26.33,-17.39 -28.95,-26.84 -31.57,-36.30 -34.19,-45.75 -36.81,-55.20 -39.42,-64.65 -42.04,-74.10 -44.66,-83.56"/>
    </edge>
    <edge id="506" from="17" to="18" priority="1" spreadType="center" length="3.00">
        <lane id="506_0" index="0" disallow="rail_fast" speed="36.11" length="3.00" width="3.00" customShape="1" shape="-22.62,6.22 -22.89,6.30"/>
    </edge>
    <edge id="508" from="6" to="17" priority="1" spreadType="center" length="6.84">
        <lane id="508_0" index="0" disallow="bus truck rail_fast" speed="36.11" length="6.84" width="2.83" customShape="1" shape="-18.06,2.34 -18.16,2.51"/>
    </edge>
    <edge id="5405" from="21" to="3" priority="1" spreadType="center" length="2.29">
        <lane id="5405_0" index="0" disallow="bus truck rail_fast" speed="36.11" length="2.29" width="2.86" customShape="1" shape="-21.44,-1.67 -21.46,-1.87"/>
    </edge>

    <junction id="1" type="dead_end" x="1.11" y="92.88" incLanes="" intLanes="" shape="5.45,91.68 -3.23,94.09"/>
    <junction id="10" type="dead_end" x="49.26" y="-16.67" incLanes="1172_0" intLanes="" shape="48.87,-18.11 49.66,-15.22"/>
    <junction id="11" type="dead_end" x="50.06" y="-13.78" incLanes="" intLanes="" shape="49.67,-15.23 50.46,-12.34"/>
    <junction id="12" type="priority" x="-9.85" y="2.71" incLanes="1178_0" intLanes=":12_0_0 :12_1_0" shape="-8.03,3.77 -8.83,0.88 -11.88,1.71 -9.12,5.61">
        <request index="0" response="00" foes="00" cont="0"/>
        <request index="1" response="00" foes="00" cont="0"/>
    </junction>
    <junction id="13" type="priority" x="-27.23" y="7.50" incLanes="488_0 3639_0" intLanes=":13_0_0 :13_1_0" shape="-26.40,10.38 -26.18,5.65 -29.07,6.45 -28.28,9.34">
        <request index="0" response="00" foes="10" cont="0"/>
        <request index="1" response="01" foes="01" cont="0"/>
    </junction>
    <junction id="14" type="dead_end" x="-89.74" y="24.70" incLanes="492_0" intLanes="" shape="-89.34,26.15 -90.14,23.26"/>
    <junction id="15" type="dead_end" x="-90.54" y="21.81" incLanes="" intLanes="" shape="-90.14,23.26 -90.94,20.37"/>
    <junction id="16" type="priority" x="-28.03" y="4.61" incLanes="3286_0" intLanes=":16_0_0" shape="-26.18,5.65 -26.98,2.76 -29.87,3.56 -29.08,6.45">
        <request index="0" response="0" foes="0" cont="0"/>
    </junction>
    <junction id="17" type="priority" x="-21.43" y="5.90" incLanes="2931_0 508_0" intLanes=":17_0_0 :17_1_0" shape="-14.91,5.66 -15.71,2.77 -16.85,1.70 -19.90,-1.63 -23.01,4.78 -22.22,7.67">
        <request index="0" response="00" foes="10" cont="0"/>
        <request index="1" response="01" foes="01" cont="0"/>
    </junction>
    <junction id="18" type="priority" x="-24.33" y="6.70" incLanes="506_0" intLanes=":18_0_0" shape="-22.49,7.74 -23.28,4.85 -26.18,5.65 -25.38,8.54">
        <request index="0" response="0" foes="0" cont="0"/>
    </junction>
    <junction id="19" type="priority" x="-15.64" y="4.31" incLanes="2907_0" intLanes=":19_0_0 :19_1_0" shape="-14.50,5.54 -15.29,2.65 -20.68,-1.82 -21.91,3.05 -22.43,4.62 -21.63,7.51">
        <request index="0" response="00" foes="00" cont="0"/>
        <request index="1" response="00" foes="00" cont="0"/>
    </junction>
    <junction id="2" type="priority" x="-22.48" y="7.74" incLanes="490_0 490_1 490_2" intLanes=":2_0_0 :2_1_0 :2_1_1" shape="-26.06,11.70 -17.37,9.30 -18.94,3.65 -29.53,9.61">
        <request index="0" response="000" foes="000" cont="0"/>
        <request index="1" response="000" foes="000" cont="0"/>
        <request index="2" response="000" foes="000" cont="0"/>
    </junction>
    <junction id="20" type="priority" x="-25.13" y="3.81" incLanes="3292_0" intLanes=":20_0_0 :20_1_0" shape="-26.75,5.81 -27.55,2.92 -26.02,2.50 -25.22,5.39 -22.92,3.76 -25.34,2.08">
        <request index="0" response="00" foes="00" cont="0"/>
        <request index="1" response="00" foes="00" cont="0"/>
    </junction>
    <junction id="21" type="priority" x="-22.24" y="3.01" incLanes="3641_0" intLanes=":21_0_0 :21_1_0" shape="-15.13,2.61 -15.93,-0.28 -20.10,-3.20 -23.49,-6.37 -26.49,2.63 -25.70,5.52">
        <request index="0" response="00" foes="00" cont="0"/>
        <request index="1" response="00" foes="00" cont="0"/>
    </junction>
    <junction id="22" type="priority" x="-16.44" y="1.42" incLanes="3483_0" intLanes=":22_0_0" shape="-14.60,2.46 -15.39,-0.43 -18.28,0.37 -17.49,3.26">
        <request index="0" response="0" foes="0" cont="0"/>
    </junction>
    <junction id="3" type="priority" x="-22.64" y="1.57" incLanes="496_0 496_1 5405_0 3666_0 3577_0" intLanes=":3_0_0 :3_0_1 :3_2_0 :3_3_0 :3_4_0" shape="-30.32,4.15 -23.36,5.16 -19.13,5.44 -15.67,2.85 -20.22,-0.95 -26.01,0.65">
        <request index="0" response="00000" foes="11100" cont="0"/>
        <request index="1" response="00000" foes="11100" cont="0"/>
        <request index="2" response="00011" foes="01011" cont="0"/>
        <request index="3" response="00111" foes="00111" cont="0"/>
        <request index="4" response="00011" foes="00011" cont="0"/>
    </junction>
    <junction id="4" type="dead_end" x="-46.11" y="-83.16" incLanes="498_0 498_1" intLanes="" shape="-49.01,-82.35 -43.22,-83.96"/>
    <junction id="5" type="dead_end" x="-38.87" y="-85.15" incLanes="" intLanes="" shape="-43.21,-83.95 -34.53,-86.35"/>
    <junction id="6" type="priority" x="-15.39" y="-0.43" incLanes="1088_0 1088_1 1088_2" intLanes=":6_0_0 :6_1_0 :6_1_1 :6_3_0" shape="-15.28,5.61 -9.48,4.01 -7.39,0.96 -4.09,-2.31 -11.74,-4.12 -20.43,-1.72 -19.95,0.70 -19.92,1.68 -20.03,2.50 -20.28,3.16 -20.67,3.68 -17.32,3.63 -16.68,3.00 -16.34,3.16 -15.99,3.65 -15.64,4.47">
        <request index="0" response="0000" foes="0000" cont="0"/>
        <request index="1" response="0000" foes="0000" cont="0"/>
        <request index="2" response="0000" foes="0000" cont="0"/>
        <request index="3" response="0000" foes="0000" cont="0"/>
    </junction>
    <junction id="7" type="priority" x="-12.34" y="4.95" incLanes="2897_0 1159_0 1159_1" intLanes=":7_0_0 :7_1_0 :7_1_1" shape="-14.58,8.14 -8.79,6.54 -7.10,3.36 -15.90,3.36">
        <request index="0" response="110" foes="110" cont="0"/>
        <request index="1" response="000" foes="001" cont="0"/>
        <request index="2" response="000" foes="001" cont="0"/>
    </junction>
    <junction id="8" type="dead_end" x="11.25" y="90.09" incLanes="1105_0 1105_1" intLanes="" shape="14.15,89.29 8.35,90.90"/>
    <junction id="9" type="priority" x="-10.65" y="-0.18" incLanes="2779_0 3622_0" intLanes=":9_0_0 :9_1_0" shape="-8.80,0.87 -9.59,-2.02 -11.67,-2.97 -11.69,1.66">
        <request index="0" response="00" foes="10" cont="0"/>
        <request index="1" response="01" foes="01" cont="0"/>
    </junction>

    <connection from="1088" to="2779" fromLane="0" toLane="0" contPos="-4.00" via=":6_0_0" dir="r" state="M"/>
    <connection from="1088" to="1159" fromLane="0" toLane="0" contPos="-4.00" via=":6_1_0" dir="s" state="M"/>
    <connection from="1088" to="1159" fromLane="1" toLane="1" contPos="-4.00" via=":6_1_1" dir="s" state="M"/>
    <connection from="1088" to="508" fromLane="2" toLane="0" contPos="-4.00" via=":6_3_0" dir="l" state="M"/>
    <connection from="1159" to="1105" fromLane="0" toLane="0" contPos="-4.00" via=":7_1_0" dir="s" state="M"/>
    <connection from="1159" to="1105" fromLane="1" toLane="1" contPos="-4.00" via=":7_1_1" dir="s" state="M"/>
    <connection from="1178" to="2897" fromLane="0" toLane="0" contPos="-4.00" via=":12_0_0" dir="R" state="M"/>
    <connection from="1178" to="2907" fromLane="0" toLane="0" contPos="-4.00" via=":12_1_0" dir="s" state="M"/>
    <connection from="2779" to="1172" fromLane="0" toLane="0" contPos="-4.00" via=":9_0_0" dir="s" state="M"/>
    <connection from="2897" to="1105" fromLane="0" toLane="0" contPos="-4.00" via=":7_0_0" dir="r" state="m"/>
    <connection from="2907" to="2931" fromLane="0" toLane="0" contPos="-4.00" via=":19_0_0" dir="s" state="M"/>
    <connection from="2907" to="3666" fromLane="0" toLane="0" contPos="-4.00" via=":19_1_0" dir="L" state="M"/>
    <connection from="2931" to="506" fromLane="0" toLane="0" contPos="-4.00" via=":17_0_0" dir="s" state="M"/>
    <connection from="3286" to="3292" fromLane="0" toLane="0" contPos="-4.00" via=":16_0_0" dir="s" state="M"/>
    <connection from="3292" to="3577" fromLane="0" toLane="0" contPos="-4.00" via=":20_0_0" dir="R" state="M"/>
    <connection from="3292" to="3641" fromLane="0" toLane="0" contPos="-4.00" via=":20_1_0" dir="s" state="M"/>
    <connection from="3483" to="3622" fromLane="0" toLane="0" contPos="-4.00" via=":22_0_0" dir="s" state="M"/>
    <connection from="3577" to="498" fromLane="0" toLane="0" contPos="-4.00" via=":3_4_0" dir="r" state="m"/>
    <connection from="3622" to="1172" fromLane="0" toLane="0" contPos="-4.00" via=":9_1_0" dir="s" state="m"/>
    <connection from="3639" to="492" fromLane="0" toLane="0" contPos="-4.00" via=":13_1_0" dir="s" state="m"/>
    <connection from="3641" to="5405" fromLane="0" toLane="0" contPos="-4.00" via=":21_0_0" dir="r" state="M"/>
    <connection from="3641" to="3483" fromLane="0" toLane="0" contPos="-4.00" via=":21_1_0" dir="s" state="M"/>
    <connection from="3666" to="498" fromLane="0" toLane="1" contPos="-4.00" via=":3_3_0" dir="l" state="m"/>
    <connection from="488" to="492" fromLane="0" toLane="0" contPos="-4.00" via=":13_0_0" dir="s" state="M"/>
    <connection from="490" to="488" fromLane="0" toLane="0" contPos="-4.00" via=":2_0_0" dir="r" state="M"/>
    <connection from="490" to="496" fromLane="1" toLane="0" contPos="-4.00" via=":2_1_0" dir="s" state="M"/>
    <connection from="490" to="496" fromLane="2" toLane="1" contPos="-4.00" via=":2_1_1" dir="s" state="M"/>
    <connection from="496" to="498" fromLane="0" toLane="0" contPos="-4.00" via=":3_0_0" dir="s" state="M"/>
    <connection from="496" to="498" fromLane="1" toLane="1" contPos="-4.00" via=":3_0_1" dir="s" state="M"/>
    <connection from="506" to="3639" fromLane="0" toLane="0" contPos="-4.00" via=":18_0_0" dir="s" state="M"/>
    <connection from="508" to="506" fromLane="0" toLane="0" contPos="-4.00" via=":17_1_0" dir="s" state="m"/>
    <connection from="5405" to="498" fromLane="0" toLane="1" contPos="-4.00" via=":3_2_0" dir="s" state="m"/>

    <connection from=":12_0" to="2897" fromLane="0" toLane="0" dir="R" state="M"/>
    <connection from=":12_1" to="2907" fromLane="0" toLane="0" dir="s" state="M"/>
    <connection from=":13_0" to="492" fromLane="0" toLane="0" dir="s" state="M"/>
    <connection from=":13_1" to="492" fromLane="0" toLane="0" dir="s" state="M"/>
    <connection from=":16_0" to="3292" fromLane="0" toLane="0" dir="s" state="M"/>
    <connection from=":17_0" to="506" fromLane="0" toLane="0" dir="s" state="M"/>
    <connection from=":17_1" to="506" fromLane="0" toLane="0" dir="s" state="M"/>
    <connection from=":18_0" to="3639" fromLane="0" toLane="0" dir="s" state="M"/>
    <connection from=":19_0" to="2931" fromLane="0" toLane="0" dir="s" state="M"/>
    <connection from=":19_1" to="3666" fromLane="0" toLane="0" dir="L" state="M"/>
    <connection from=":2_0" to="488" fromLane="0" toLane="0" dir="r" state="M"/>
    <connection from=":2_1" to="496" fromLane="0" toLane="0" dir="s" state="M"/>
    <connection from=":2_1" to="496" fromLane="1" toLane="1" dir="s" state="M"/>
    <connection from=":20_0" to="3577" fromLane="0" toLane="0" dir="R" state="M"/>
    <connection from=":20_1" to="3641" fromLane="0" toLane="0" dir="s" state="M"/>
    <connection from=":21_0" to="5405" fromLane="0" toLane="0" dir="r" state="M"/>
    <connection from=":21_1" to="3483" fromLane="0" toLane="0" dir="s" state="M"/>
    <connection from=":22_0" to="3622" fromLane="0" toLane="0" dir="s" state="M"/>
    <connection from=":3_0" to="498" fromLane="0" toLane="0" dir="s" state="M"/>
    <connection from=":3_0" to="498" fromLane="1" toLane="1" dir="s" state="M"/>
    <connection from=":3_2" to="498" fromLane="0" toLane="1" dir="s" state="M"/>
    <connection from=":3_3" to="498" fromLane="0" toLane="1" dir="l" state="M"/>