<!-- generated on 2020-12-18 15:45:23.933846 by ipykernel_launcher.py v1_2_0+5214-53edc58fcd
-->
<edges>
	<edge from="1" function="normal" id="490" length="88.3487142714865" numLanes="3" priority="1" speed="36.11111111111111" spreadType="center" to="2">
		<lane allow="pedestrian rail private passenger ship delivery vip emergency bicycle rail_electric army rail_urban trailer coach bus custom2 tram taxi evehicle custom1 motorcycle authority truck hov moped" index="0" length="88.3487142714865" shape="-1.7875,93.68199999999999 -4.4057,84.23315 -7.0245999999999995,74.7818 -9.6435,65.3305 -12.2625,55.879099999999994 -14.8814,46.427800000000005 -17.5004,36.9764 -20.119349999999997,27.525 -22.738300000000002,18.0736 -25.378950000000003,8.5413" speed="36.11111111111111" width="3.0047350781724496"/>
		<lane allow="pedestrian rail private passenger ship delivery vip emergency bicycle rail_electric army rail_urban trailer coach bus custom2 tram taxi evehicle custom1 motorcycle authority truck hov moped" index="1" length="88.3487142714865" shape="1.1097000000000001,92.88454999999999 -1.5085199999999999,83.4357 -4.1274500000000005,73.9844 -6.7463999999999995,64.533 -9.3653,55.0817 -11.984200000000001,45.630300000000005 -14.603200000000001,36.1789 -17.22215,26.7275 -19.8411,17.2761 -22.4824,7.74305" speed="36.11111111111111" width="3.004326688294736"/>
		<lane allow="pedestrian rail private passenger ship delivery vip emergency bicycle rail_electric army rail_urban trailer coach bus custom2 tram taxi evehicle custom1 motorcycle authority truck hov moped" index="2" length="88.3487142714865" shape="4.00685,92.08705 1.388614,82.6382 -1.2302899999999999,73.18690000000001 -3.8492,63.7355 -6.4681,54.2842 -9.0871,44.832800000000006 -11.706,35.3814 -14.325,25.93 -16.9439,16.4786 -19.5855,6.9456500000000005" speed="36.11111111111111" width="3.004861837090018"/>
	</edge>
	<edge from="3" function="normal" id="498" length="87.91468080257125" numLanes="2" priority="1" speed="36.11111111111111" spreadType="center" to="4">
		<lane allow="pedestrian rail private passenger ship delivery vip emergency bicycle rail_electric army rail_urban trailer coach bus custom2 tram taxi evehicle custom1 motorcycle authority truck hov moped" index="0" length="87.91468080257125" shape="-24.08435,1.9636999999999998 -26.6081,-7.1438500000000005 -29.22705,-16.59535 -31.846049999999998,-26.04685 -34.465050000000005,-35.49835 -37.084050000000005,-44.94985 -39.7031,-54.40135 -42.3221,-63.8529 -44.94115,-73.30445 -47.560900000000004,-82.75845000000001" speed="36.11111111111111" width="3.004958250957911"/>
		<lane allow="pedestrian rail private passenger ship delivery vip emergency bicycle rail_electric army rail_urban trailer coach bus custom2 tram taxi evehicle custom1 motorcycle authority truck hov moped" index="1" length="87.91468080257125" shape="-21.19005,1.16804 -23.7107,-7.9414 -26.3297,-17.3929 -28.948700000000002,-26.84435 -31.567700000000002,-36.29585 -34.18675,-45.74735 -36.805800000000005,-55.19885 -39.42485,-64.65039999999999 -42.043899999999994,-74.10195 -44.663650000000004,-83.55595" speed="36.11111111111111" width="2.9977757475168167"/>
	</edge>
	<edge from="5" function="normal" id="1088" length="87.91639255978889" numLanes="3" priority="1" speed="36.11111111111111" spreadType="center" to="6">
		<lane allow="pedestrian rail private passenger ship delivery vip emergency bicycle rail_electric army rail_urban trailer coach bus custom2 tram taxi evehicle custom1 motorcycle authority truck hov moped" index="0" length="87.91639255978889" shape="-35.97195,-85.94855000000001 -33.35355,-76.49945 -30.734450000000002,-67.04785000000001 -28.115450000000003,-57.59635 -25.4964,-48.144850000000005 -22.87735,-38.693349999999995 -20.25835,-29.24185 -17.63935,-19.79035 -15.02035,-10.33885 -12.494800000000001,-1.22479" speed="36.11111111111111" width="3.005036282642853"/>
		<lane allow="pedestrian rail private passenger ship delivery vip emergency bicycle rail_electric army rail_urban trailer coach bus custom2 tram taxi evehicle custom1 motorcycle authority truck hov moped" index="1" length="87.91639255978889" shape="-38.8692,-85.15105 -36.2508,-75.7019 -33.63175,-66.25035 -31.012700000000002,-56.79885 -28.3937,-47.347300000000004 -25.77465,-37.895799999999994 -23.15565,-28.4443 -20.53665,-18.9928 -17.917650000000002,-9.541350000000001 -15.392,-0.426734" speed="36.11111111111111" width="3.004913210061148"/>
		<lane allow="pedestrian rail private passenger ship delivery vip emergency bicycle rail_electric army rail_urban trailer coach bus custom2 tram taxi evehicle custom1 motorcycle authority truck hov moped" index="2" length="87.91639255978889" shape="-41.766400000000004,-84.3535 -39.14805,-74.90440000000001 -36.52895,-65.45285 -33.90995,-56.0013 -31.2909,-46.549800000000005 -28.6719,-37.098299999999995 -26.05285,-27.6468 -23.43385,-18.1953 -20.81485,-8.743849999999998 -18.2926,0.37169599999999997" speed="36.11111111111111" width="3.004913210061147"/>
	</edge>
	<edge from="7" function="normal" id="1105" length="88.34935631229663" numLanes="2" priority="1" speed="36.11111111111111" spreadType="center" to="8">
		<lane allow="pedestrian rail private passenger ship delivery vip emergency bicycle rail_electric army rail_urban trailer coach bus custom2 tram taxi evehicle custom1 motorcycle authority truck hov moped" index="0" length="88.34935631229663" shape="-10.89375,4.55345 -8.25365,14.081199999999999 -5.63475,23.53265 -3.01575,32.984049999999996 -0.39685000000000004,42.43545 2.2220649999999997,51.886799999999994 4.840949999999999,61.3382 7.459899999999999,70.7895 10.07875,80.2409 12.6983,89.69465" speed="36.11111111111111" width="3.004913210061151"/>
		<lane allow="pedestrian rail private passenger ship delivery vip emergency bicycle rail_electric army rail_urban trailer coach bus custom2 tram taxi evehicle custom1 motorcycle authority truck hov moped" index="1" length="88.34935631229663" shape="-13.7911,5.35065 -11.1509,14.878699999999998 -8.53195,24.3301 -5.913,33.781499999999994 -3.2941000000000003,43.2329 -0.6751200000000002,52.6843 1.943785,62.1357 4.5626999999999995,71.587 7.1815999999999995,81.03829999999999 9.80115,90.49215000000001" speed="36.11111111111111" width="3.004861837090018"/>
	</edge>
	<edge from="9" function="normal" id="1172" length="62.13771087998186" numLanes="1" priority="1" speed="36.11111111111111" spreadType="center" to="10">
		<lane allow="pedestrian rail private passenger ship delivery vip emergency bicycle rail_electric army rail_urban trailer coach bus custom2 tram taxi evehicle custom1 motorcycle authority truck hov moped" index="0" length="62.13771087998186" shape="-10.645299999999999,-0.17879999999999996 -0.805355,-2.8873499999999996 9.20805,-5.643599999999999 19.221449999999997,-8.39985 29.234949999999998,-11.15615 39.24835,-13.91235 49.2643,-16.66925" speed="36.11111111111111" width="2.9974856546779334"/>
	</edge>
	<edge from="11" function="normal" id="1178" length="62.13785550134726" numLanes="1" priority="1" speed="36.11111111111111" spreadType="center" to="12">
		<lane allow="pedestrian rail private passenger ship delivery vip emergency bicycle rail_electric army rail_urban trailer coach bus custom2 tram taxi evehicle custom1 motorcycle authority truck hov moped" index="0" length="62.13785550134726" shape="50.0647,-13.7805 40.05375,-11.02495 30.04025,-8.26875 20.026850000000003,-5.512499999999999 10.013449999999999,-2.7562499999999996 0.0,0.0 -9.84505,2.70995" speed="36.11111111111111" width="2.997477783070294"/>
	</edge>
	<edge from="13" function="normal" id="492" length="64.83557094484875" numLanes="1" priority="1" speed="36.11111111111111" spreadType="center" to="14">
		<lane allow="pedestrian rail private passenger ship delivery vip emergency bicycle rail_electric army rail_urban trailer coach bus custom2 tram taxi evehicle custom1 motorcycle authority truck hov moped" index="0" length="64.83557094484875" shape="-27.229799999999997,7.49615 -39.674049999999994,10.9208 -49.687,13.67705 -59.699799999999996,16.43325 -69.71255,19.1895 -79.7253,21.945749999999997 -89.7405,24.70265" speed="36.11111111111111" width="2.995826605463006"/>
	</edge>
	<edge from="15" function="normal" id="3286" length="64.83685573875167" numLanes="1" priority="1" speed="36.11111111111111" spreadType="center" to="16">
		<lane allow="pedestrian rail private passenger ship delivery vip emergency bicycle rail_electric army rail_urban trailer coach bus custom2 tram taxi evehicle custom1 motorcycle authority truck hov moped" index="0" length="64.83685573875167" shape="-90.54095,21.81395 -80.5307,19.0584 -70.51795,16.30215 -60.5052,13.54595 -50.4924,10.7897 -40.47965,8.03355 -28.029,4.60715" speed="36.11111111111111" width="2.9975121951378267"/>
	</edge>
	<edge from="2" function="normal" id="488" length="2.357034064737533" numLanes="1" priority="1" speed="36.11111111111111" spreadType="center" to="13">
		<lane allow="pedestrian rail private passenger ship delivery vip emergency bicycle rail_electric army rail_urban trailer coach custom2 tram taxi evehicle custom1 motorcycle authority hov moped" index="0" length="2.357034064737533" shape="-25.378950000000003,8.5413 -25.41515,8.42945 -25.460050000000003,8.3208 -25.513350000000003,8.216 -25.57465,8.115649999999999 -25.64365,8.020399999999999 -25.719900000000003,7.9308 -25.8029,7.8473999999999995 -25.892200000000003,7.7707 -25.987250000000003,7.70125 -26.087400000000002,7.639349999999999 -26.1921,7.58545 -26.30075,7.5398499999999995 -26.4126,7.50285 -26.5289,7.47425 -26.64515,7.45505 -26.762549999999997,7.445 -26.8804,7.4441 -26.99795,7.452349999999999 -27.1145,7.4697499999999994 -27.229799999999997,7.49615" speed="36.11111111111111" width="2.9930698120825707"/>
	</edge>
	<edge from="2" function="normal" id="496" length="5.996279548040032" numLanes="2" priority="1" speed="36.11111111111111" spreadType="center" to="3">
		<lane allow="pedestrian rail private passenger ship delivery vip emergency bicycle rail_electric army rail_urban trailer coach bus custom2 tram taxi evehicle custom1 motorcycle authority truck hov moped" index="0" length="5.996279548040032" shape="-22.4824,7.74305 -23.282899999999998,4.855449999999999 -24.08435,1.9636999999999998" speed="36.11111111111111" width="3.004326688294736"/>
		<lane allow="pedestrian rail private passenger ship delivery vip emergency bicycle rail_electric army rail_urban trailer coach bus custom2 tram taxi evehicle custom1 motorcycle authority truck hov moped" index="1" length="5.996279548040032" shape="-19.5855,6.9456500000000005 -20.385350000000003,4.05955 -21.19005,1.16804" speed="36.11111111111111" width="2.9977757475168167"/>
	</edge>
	<edge from="17" function="normal" id="506" length="3.0044825365609995" numLanes="1" priority="1" speed="36.11111111111111" spreadType="center" to="18">
		<lane allow="pedestrian rail private passenger ship delivery vip emergency bicycle rail_electric army rail_urban trailer coach bus custom2 tram taxi evehicle custom1 motorcycle authority truck hov moped" index="0" length="3.0044825365609995" shape="-21.434649999999998,5.8992 -24.33115,6.69745" speed="36.11111111111111" width="2.9974777830702934"/>
	</edge>
	<edge from="18" function="normal" id="3639" length="3.0066748265317917" numLanes="1" priority="1" speed="36.11111111111111" spreadType="center" to="13">
		<lane allow="pedestrian rail private passenger ship delivery vip emergency bicycle rail_electric army rail_urban trailer coach bus custom2 tram taxi evehicle custom1 motorcycle authority truck hov moped" index="0" length="3.0066748265317917" shape="-24.33115,6.69745 -27.229799999999997,7.49615" speed="36.11111111111111" width="2.995826605463006"/>
	</edge>
	<edge from="6" function="normal" id="508" length="6.8429908760464455" numLanes="1" priority="1" speed="36.11111111111111" spreadType="center" to="17">
		<lane allow="pedestrian rail private passenger ship delivery vip emergency bicycle rail_electric army rail_urban trailer coach custom2 tram taxi evehicle custom1 motorcycle authority hov moped" index="0" length="6.8429908760464455" shape="-18.2926,0.37169599999999997 -18.243450000000003,0.94335 -18.26065,1.56625 -18.35285,2.18535 -18.4218,2.4856 -18.51965,2.79115 -18.6282,3.0904 -18.90755,3.6654 -19.2267,4.1594 -19.62285,4.6404000000000005 -20.07465,5.071 -20.5761,5.44495 -21.21585,5.808999999999999 -21.434649999999998,5.8992" speed="36.11111111111111" width="2.8332131317640052"/>
	</edge>
	<edge from="6" function="normal" id="1159" length="5.995085211636452" numLanes="2" priority="1" speed="36.11111111111111" spreadType="center" to="7">
		<lane allow="pedestrian rail private passenger ship delivery vip emergency bicycle rail_electric army rail_urban trailer coach bus custom2 tram taxi evehicle custom1 motorcycle authority truck hov moped" index="0" length="5.995085211636452" shape="-12.494800000000001,-1.22479 -11.69495,1.662 -10.89375,4.55345" speed="36.11111111111111" width="3.0050883281527674"/>
		<lane allow="pedestrian rail private passenger ship delivery vip emergency bicycle rail_electric army rail_urban trailer coach bus custom2 tram taxi evehicle custom1 motorcycle authority truck hov moped" index="1" length="5.995085211636452" shape="-15.392,-0.426734 -14.59225,2.4595000000000002 -13.7911,5.35065" speed="36.11111111111111" width="3.004956127810186"/>
	</edge>
	<edge from="6" function="normal" id="2779" length="2.303879433404206" numLanes="1" priority="1" speed="36.11111111111111" spreadType="center" to="9">
		<lane allow="pedestrian rail private passenger ship delivery vip emergency bicycle rail_electric army rail_urban trailer coach custom2 tram taxi evehicle custom1 motorcycle authority hov moped" index="0" length="2.303879433404206" shape="-12.494800000000001,-1.22479 -12.46125,-1.146105 -12.43265,-1.083835 -12.40145,-1.022805 -12.367750000000001,-0.963125 -12.331600000000002,-0.904895 -12.293,-0.848218 -12.2521,-0.7931905 -12.208950000000002,-0.7399100000000001 -12.1636,-0.6884650000000001 -12.1161,-0.63895 -12.06665,-0.591445 -12.0152,-0.5460400000000001 -11.9619,-0.50281 -11.9069,-0.46182500000000004 -11.849599999999999,-0.422765 -11.79135,-0.38649 -11.7316,-0.35267 -11.6705,-0.32136 -11.60815,-0.29259999999999997 -11.54465,-0.26649999999999996 -11.48015,-0.243 -11.4147,-0.22224999999999995 -11.3484,-0.20419999999999994 -11.28145,-0.18889999999999996 -11.213899999999999,-0.17645 -11.145900000000001,-0.16679999999999995 -11.077549999999999,-0.15995000000000004 -11.008949999999999,-0.15595000000000003 -10.9403,-0.15484999999999993 -10.8716,-0.15654999999999997 -10.8031,-0.16110000000000002 -10.7348,-0.16854999999999998 -10.645299999999999,-0.17879999999999996" speed="36.11111111111111" width="2.888447920181356"/>
	</edge>
	<edge from="12" function="normal" id="2897" length="2.3557865617216778" numLanes="1" priority="1" speed="36.11111111111111" spreadType="center" to="7">
		<lane allow="pedestrian rail private passenger ship delivery vip emergency bicycle rail_electric army rail_urban trailer coach custom2 tram taxi evehicle custom1 motorcycle authority hov moped" index="0" length="2.3557865617216778" shape="-9.84505,2.70995 -9.927399999999999,2.7381 -9.995750000000001,2.7627 -10.06275,2.79055 -10.12835,2.8216 -10.19235,2.85585 -10.25465,2.8931 -10.315,2.9334000000000002 -10.3733,2.9765 -10.42945,3.02245 -10.4833,3.071 -10.534749999999999,3.1221500000000004 -10.5836,3.17575 -10.62975,3.2316000000000003 -10.67315,3.2897 -10.7137,3.3497500000000002 -10.7512,3.41175 -10.7859,3.4759 -10.8172,3.5412 -10.8453,3.608 -10.8701,3.67605 -10.89155,3.7452500000000004 -10.909600000000001,3.8154000000000003 -10.924199999999999,3.8863000000000003 -10.9353,3.95785 -10.94295,4.0299 -10.94705,4.1022 -10.947600000000001,4.1746 -10.94465,4.24695 -10.93815,4.319050000000001 -10.92815,4.3908000000000005 -10.91465,4.46195 -10.89375,4.55345" speed="36.11111111111111" width="2.9922801005253508"/>
	</edge>
	<edge from="12" function="normal" id="2907" length="6.010425111536604" numLanes="1" priority="1" speed="36.11111111111111" spreadType="center" to="19">
		<lane allow="pedestrian rail private passenger ship delivery vip emergency bicycle rail_electric army rail_urban trailer coach bus custom2 tram taxi evehicle custom1 motorcycle authority truck hov moped" index="0" length="6.010425111536604" shape="-9.84505,2.70995 -12.74025,3.5069 -15.639949999999999,4.30505" speed="36.11111111111111" width="2.997477783070294"/>
	</edge>
	<edge from="19" function="normal" id="2931" length="6.009980304225709" numLanes="1" priority="1" speed="36.11111111111111" spreadType="center" to="17">
		<lane allow="pedestrian rail private passenger ship delivery vip emergency bicycle rail_electric army rail_urban trailer coach bus custom2 tram taxi evehicle custom1 motorcycle authority truck hov moped" index="0" length="6.009980304225709" shape="-15.639949999999999,4.30505 -18.53465,5.1019 -21.434649999999998,5.8992" speed="36.11111111111111" width="2.997485654677934"/>
	</edge>
	<edge from="19" function="normal" id="3666" length="7.089600798433399" numLanes="1" priority="1" speed="36.11111111111111" spreadType="center" to="3">
		<lane allow="pedestrian rail private passenger ship delivery vip emergency bicycle rail_electric army rail_urban trailer coach custom2 tram taxi evehicle custom1 motorcycle authority hov moped" index="0" length="7.089600798433399" shape="-15.639949999999999,4.30505 -15.940999999999999,4.3799 -16.2455,4.4295 -16.4141,4.45155 -16.7192,4.4735 -17.19775,4.4623 -17.50195,4.430149999999999 -17.971449999999997,4.336449999999999 -18.248150000000003,4.2561 -18.3682,4.2145 -18.4465,4.186 -18.711350000000003,4.07785 -18.953699999999998,3.9581 -19.068649999999998,3.8956 -19.394550000000002,3.6943 -19.59825,3.545 -19.703850000000003,3.46135 -19.96215,3.23205 -20.25575,2.9237 -20.470599999999997,2.6527 -20.70795,2.29725 -20.863100000000003,2.01265 -20.90665,1.9302000000000001 -21.04615,1.5991499999999998 -21.19005,1.16804" speed="36.11111111111111" width="2.841243609759643"/>
	</edge>
	<edge from="16" function="normal" id="3292" length="3.0040437767282957" numLanes="1" priority="1" speed="36.11111111111111" spreadType="center" to="20">
		<lane allow="pedestrian rail private passenger ship delivery vip emergency bicycle rail_electric army rail_urban trailer coach bus custom2 tram taxi evehicle custom1 motorcycle authority truck hov moped" index="0" length="3.0040437767282957" shape="-28.029,4.60715 -25.1329,3.8091" speed="36.11111111111111" width="2.99764340774549"/>
	</edge>
	<edge from="20" function="normal" id="3641" length="3.005065906931161" numLanes="1" priority="1" speed="36.11111111111111" spreadType="center" to="21">
		<lane allow="pedestrian rail private passenger ship delivery vip emergency bicycle rail_electric army rail_urban trailer coach bus custom2 tram taxi evehicle custom1 motorcycle authority truck hov moped" index="0" length="3.005065906931161" shape="-25.1329,3.8091 -22.23585,3.01065" speed="36.11111111111111" width="2.9958502265634044"/>
	</edge>
	<edge from="20" function="normal" id="3577" length="2.327793948574016" numLanes="1" priority="1" speed="36.11111111111111" spreadType="center" to="3">
		<lane allow="pedestrian rail private passenger ship delivery vip emergency bicycle rail_electric army rail_urban trailer coach custom2 tram taxi evehicle custom1 motorcycle authority hov moped" index="0" length="2.327793948574016" shape="-25.1329,3.8091 -25.039099999999998,3.7751 -24.9543,3.7382500000000003 -24.87185,3.6966 -24.79195,3.65015 -24.7149,3.5992 -24.641,3.5438 -24.57045,3.4842 -24.5035,3.4206000000000003 -24.44045,3.3532 -24.3814,3.28225 -24.32665,3.2079500000000003 -24.2763,3.1306000000000003 -24.2306,3.05045 -24.1892,2.96665 -24.15315,2.88175 -24.1222,2.79485 -24.09635,2.7063499999999996 -24.07575,2.61645 -24.060450000000003,2.52555 -24.0505,2.4339 -24.04595,2.3418 -24.0468,2.2496 -24.05305,2.1576 -24.06465,2.06615 -24.08435,1.9636999999999998" speed="36.11111111111111" width="2.94513549433638"/>
	</edge>
	<edge from="21" function="normal" id="3483" length="6.010741643413866" numLanes="1" priority="1" speed="36.11111111111111" spreadType="center" to="22">
		<lane allow="pedestrian rail private passenger ship delivery vip emergency bicycle rail_electric army rail_urban trailer coach bus custom2 tram taxi evehicle custom1 motorcycle authority truck hov moped" index="0" length="6.010741643413866" shape="-22.23585,3.01065 -19.3477,2.21664 -19.33515,2.21317 -16.440399999999997,1.416356" speed="36.11111111111111" width="2.9958502265634044"/>
	</edge>
	<edge from="22" function="normal" id="3622" length="6.0106328015283506" numLanes="1" priority="1" speed="36.11111111111111" spreadType="center" to="9">
		<lane allow="pedestrian rail private passenger ship delivery vip emergency bicycle rail_electric army rail_urban trailer coach bus custom2 tram taxi evehicle custom1 motorcycle authority truck hov moped" index="0" length="6.0106328015283506" shape="-16.440399999999997,1.416356 -13.54565,0.61956 -10.645299999999999,-0.17879999999999996" speed="36.11111111111111" width="2.997525399616157"/>
	</edge>
	<edge from="21" function="normal" id="5405" length="2.2854354781546835" numLanes="1" priority="1" speed="36.11111111111111" spreadType="center" to="3">
		<lane allow="pedestrian rail private passenger ship delivery vip emergency bicycle rail_electric army rail_urban trailer coach custom2 tram taxi evehicle custom1 motorcycle authority hov moped" index="0" length="2.2854354781546835" shape="-22.23585,3.01065 -22.029850000000003,2.91115 -21.839100000000002,2.785 -21.667,2.6345 -21.5167,2.4623999999999997 -21.39085,2.27175 -21.291249999999998,2.0647 -21.22065,1.8476 -21.1799,1.623 -21.1697,1.395 -21.19005,1.16804" speed="36.11111111111111" width="2.86209274832246"/>
	</edge>
</edges>
