<!-- generated on 2020-12-18 15:45:24.010262 by ipykernel_launcher.py v1_2_0+5214-53edc58fcd
-->
<nodes>
	<node id="1" type="from" x="1.1096833333333334" y="92.88453333333332"/>
	<node id="2" type="to" x="-22.48228333333333" y="7.743333333333333"/>
	<node id="3" type="from" x="-22.6372" y="1.5658699999999999"/>
	<node id="4" type="to" x="-46.112275000000004" y="-83.1572"/>
	<node id="5" type="from" x="-38.86918333333333" y="-85.15103333333333"/>
	<node id="6" type="to" x="-15.393133333333333" y="-0.42660933333333334"/>
	<node id="7" type="from" x="-12.342425" y="4.95205"/>
	<node id="8" type="to" x="11.249725" y="90.0934"/>
	<node id="9" type="from" x="-10.645299999999999" y="-0.17879999999999996"/>
	<node id="10" type="to" x="49.2643" y="-16.66925"/>
	<node id="11" type="from" x="50.0647" y="-13.7805"/>
	<node id="12" type="to" x="-9.84505" y="2.70995"/>
	<node id="13" type="from" x="-27.229799999999997" y="7.49615"/>
	<node id="14" type="to" x="-89.7405" y="24.70265"/>
	<node id="15" type="from" x="-90.54095" y="21.81395"/>
	<node id="16" type="to" x="-28.029" y="4.60715"/>
	<node id="17" type="from" x="-21.434649999999998" y="5.8992"/>
	<node id="18" type="to" x="-24.33115" y="6.69745"/>
	<node id="19" type="to" x="-15.639949999999999" y="4.30505"/>
	<node id="20" type="to" x="-25.1329" y="3.8091"/>
	<node id="21" type="to" x="-22.23585" y="3.01065"/>
	<node id="22" type="to" x="-16.440399999999997" y="1.416356"/>
</nodes>
