<routes>
	<vehicle depart="0.1" departLane="0" departPos="14.704950103978138" departSpeed="6.9348163" id="324" type="bicycle">
		<route edges="989"/>
	</vehicle>
	<vehicle depart="0.1" departLane="0" departPos="45.3972753066999" departSpeed="10.560012" id="323" type="bus">
		<route edges="989"/>
	</vehicle>
	<vehicle depart="0.1" departLane="0" departPos="2.5" departSpeed="0.0" id="318" type="passenger">
		<route edges="80 989"/>
	</vehicle>
	<vehicle depart="0.1" departLane="0" departPos="6.576511213760278" departSpeed="8.1915605" id="321" type="passenger">
		<route edges="951"/>
	</vehicle>
	<vehicle depart="0.1" departLane="0" departPos="2.5" departSpeed="6.7439505" id="322" type="passenger">
		<route edges=":15_0 951"/>
	</vehicle>
	<vehicle depart="0.1" departLane="0" departPos="11.058214427415612" departSpeed="21.508967" id="325" type="passenger">
		<route edges=":15_1 989"/>
	</vehicle>
	<vehicle depart="0.1" departLane="0" departPos="2.5" departSpeed="6.8807534" id="328" type="passenger">
		<route edges="989"/>
	</vehicle>
	<vehicle depart="0.1" departLane="1" departPos="25.90278859506766" departSpeed="16.032733" id="329" type="passenger">
		<route edges="925 989"/>
	</vehicle>
	<vehicle depart="0.1" departLane="0" departPos="70.69085701206268" departSpeed="6.0208114" id="330" type="passenger">
		<route edges="950 989"/>
	</vehicle>
	<vehicle depart="0.1" departLane="0" departPos="60.14041834815479" departSpeed="14.440903" id="333" type="passenger">
		<route edges="936 925 989"/>
	</vehicle>
	<vehicle depart="0.1" departLane="0" departPos="44.94766916825103" departSpeed="5.9469601" id="334" type="passenger">
		<route edges="950 2177"/>
	</vehicle>
	<vehicle depart="0.1" departLane="0" departPos="37.24408810052904" departSpeed="11.214626" id="335" type="passenger">
		<route edges="936 925 989"/>
	</vehicle>
	<vehicle depart="0.1" departLane="0" departPos="31.939519887687876" departSpeed="5.7465649" id="336" type="passenger">
		<route edges="950 989"/>
	</vehicle>
	<vehicle depart="0.1" departLane="0" departPos="19.479308099550178" departSpeed="5.3180732" id="338" type="passenger">
		<route edges="950 989"/>
	</vehicle>
	<vehicle depart="0.1" departLane="0" departPos="20.726161278881857" departSpeed="9.8289931" id="326" type="motorcycle">
		<route edges="989"/>
	</vehicle>
	<vehicle depart="0.1" departLane="1" departPos="47.11071581483422" departSpeed="12.108563" id="327" type="motorcycle">
		<route edges="925 989"/>
	</vehicle>
	<vehicle depart="0.1" departLane="1" departPos="9.283611295717964" departSpeed="17.053597" id="331" type="motorcycle">
		<route edges=":17_0 925 989"/>
	</vehicle>
	<vehicle depart="0.1" departLane="1" departPos="61.00389395156414" departSpeed="20.557234" id="319" type="truck">
		<route edges="989"/>
	</vehicle>
</routes>
