<routes>
	<vehicle depart="0.1" departLane="0" departPos="16.63051839046996" departSpeed="0.38101197" id="30" type="passenger">
		<route edges="66071 66086"/>
	</vehicle>
	<vehicle depart="0.1" departLane="0" departPos="41.03336115814106" departSpeed="0.30728809" id="34" type="passenger">
		<route edges=":46_5 66071"/>
	</vehicle>
	<vehicle depart="0.1" departLane="0" departPos="46.21062328442952" departSpeed="0.0" id="311" type="passenger">
		<route edges="66430 66314"/>
	</vehicle>
	<vehicle depart="0.1" departLane="0" departPos="38.711403552194135" departSpeed="0.0" id="312" type="passenger">
		<route edges="66430 66314"/>
	</vehicle>
	<vehicle depart="0.1" departLane="0" departPos="8.323382683929268" departSpeed="7.0004288" id="318" type="passenger">
		<route edges=":46_1 66313 66431"/>
	</vehicle>
	<vehicle depart="0.1" departLane="0" departPos="7.660027160534826" departSpeed="1.0370147" id="327" type="passenger">
		<route edges=":45_2 66086"/>
	</vehicle>
	<vehicle depart="0.1" departLane="0" departPos="21.04162397931019" departSpeed="5.9280126" id="329" type="passenger">
		<route edges="66070 66317"/>
	</vehicle>
	<vehicle depart="0.1" departLane="0" departPos="24.026581687449887" departSpeed="0.40932798" id="337" type="passenger">
		<route edges="66071 66086"/>
	</vehicle>
	<vehicle depart="0.1" departLane="0" departPos="9.10065894942969" departSpeed="0.34052594" id="352" type="passenger">
		<route edges="66071 66086"/>
	</vehicle>
	<vehicle depart="0.1" departLane="0" departPos="21.884817562463326" departSpeed="0.0" id="354" type="passenger">
		<route edges=":47_0 66314"/>
	</vehicle>
</routes>
