<routes>
	<vehicle depart="0.1" departLane="0" departPos="71.74119424119823" departSpeed="3.7719606" id="1" type="passenger">
		<route edges="50201 50213 50197"/>
	</vehicle>
	<vehicle depart="0.1" departLane="0" departPos="98.55279647056173" departSpeed="2.4034917" id="2" type="passenger">
		<route edges="50195 50211 50199"/>
	</vehicle>
	<vehicle depart="0.1" departLane="0" departPos="124.51857017754593" departSpeed="2.9380231" id="4" type="passenger">
		<route edges="50205 50207 50197"/>
	</vehicle>
	<vehicle depart="0.1" departLane="0" departPos="132.5196482001597" departSpeed="4.4397439" id="5" type="passenger">
		<route edges="50205 50217 50199"/>
	</vehicle>
	<vehicle depart="0.1" departLane="0" departPos="71.74119424119823" departSpeed="0.99464665" id="7" type="passenger">
		<route edges="50201 50213 50197"/>
	</vehicle>
</routes>
