<routes>
	<vehicle depart="0.1" departLane="0" departPos="18.078237982805543" departSpeed="6.8707371" id="39" type="bicycle">
		<route edges=":78_3 63723 63720"/>
	</vehicle>
	<vehicle depart="0.1" departLane="0" departPos="25.04299770359533" departSpeed="4.3141653e-05" id="362" type="passenger">
		<route edges="63819 64241"/>
	</vehicle>
	<vehicle depart="0.1" departLane="0" departPos="17.541061802167704" departSpeed="0.00024349214" id="369" type="passenger">
		<route edges="63819 64241"/>
	</vehicle>
	<vehicle depart="0.1" departLane="0" departPos="10.038394967629525" departSpeed="0.0010132214" id="378" type="passenger">
		<route edges="63819 64241"/>
	</vehicle>
	<vehicle depart="0.1" departLane="0" departPos="2.5" departSpeed="8.1023558" id="383" type="passenger">
		<route edges="63724 63727"/>
	</vehicle>
	<vehicle depart="0.1" departLane="0" departPos="7.198528726097964" departSpeed="0.59322958" id="389" type="passenger">
		<route edges=":79_0 63724"/>
	</vehicle>
	<vehicle depart="0.1" departLane="0" departPos="15.848561671947174" departSpeed="5.0071459" id="391" type="passenger">
		<route edges=":79_3 63724 63727"/>
	</vehicle>
	<vehicle depart="0.1" departLane="0" departPos="5.955613876141907" departSpeed="1.4387947" id="393" type="passenger">
		<route edges=":79_3 63724"/>
	</vehicle>
</routes>
