<routes>
	<vehicle depart="0.1" departLane="0" departPos="22.905907389555004" departSpeed="0.0" id="38" type="passenger">
		<route edges=":68_5 8299"/>
	</vehicle>
	<vehicle depart="0.1" departLane="0" departPos="26.70886881875797" departSpeed="0.0" id="313" type="passenger">
		<route edges="8302 8299"/>
	</vehicle>
	<vehicle depart="0.1" departLane="0" departPos="19.20914379274568" departSpeed="0.0" id="316" type="passenger">
		<route edges="8302 8299"/>
	</vehicle>
	<vehicle depart="0.1" departLane="0" departPos="30.716639673034486" departSpeed="0.0" id="317" type="passenger">
		<route edges=":68_2 8299"/>
	</vehicle>
	<vehicle depart="0.1" departLane="0" departPos="2.5" departSpeed="3.1273596" id="321" type="passenger">
		<route edges="8290 8296"/>
	</vehicle>
	<vehicle depart="0.1" departLane="0" departPos="15.047288319815793" departSpeed="3.3835593" id="331" type="passenger">
		<route edges=":70_1 8290"/>
	</vehicle>
	<vehicle depart="0.1" departLane="0" departPos="8.027359936492418" departSpeed="1.6118828" id="341" type="passenger">
		<route edges=":70_1 8290"/>
	</vehicle>
	<vehicle depart="0.1" departLane="0" departPos="14.903593667497931" departSpeed="1.4110934" id="333" type="motorcycle">
		<route edges="8186 8290"/>
	</vehicle>
</routes>
