<!-- generated on Tue Feb  9 22:12:27 2021 by Eclipse SUMO netconvert Version 1.8.0
<configuration xmlns:xsi="http://www.w3.org/2001/XMLSchema-instance" xsi:noNamespaceSchemaLocation="http://sumo.dlr.de/xsd/netconvertConfiguration.xsd">

    <input>
        <node-files value="./converted_scenarios/scenario-factory/DEU_Moabit-1_3_I-1-1/DEU_Moabit-1_3_I-1-1.nod.xml"/>
        <edge-files value="./converted_scenarios/scenario-factory/DEU_Moabit-1_3_I-1-1/DEU_Moabit-1_3_I-1-1.edg.xml"/>
        <connection-files value="./converted_scenarios/scenario-factory/DEU_Moabit-1_3_I-1-1/DEU_Moabit-1_3_I-1-1.con.xml"/>
        <tllogic-files value="./converted_scenarios/scenario-factory/DEU_Moabit-1_3_I-1-1/DEU_Moabit-1_3_I-1-1.tll.xml"/>
        <type-files value="/home/zen/commonroad-interactive-benchmarks/install/commonroad-map-tool/crmapconverter/sumo_map/templates/DEU.typ.xml"/>
    </input>

    <output>
        <output-file value="./converted_scenarios/scenario-factory/DEU_Moabit-1_3_I-1-1/DEU_Moabit-1_3_I-1-1.net.xml"/>
    </output>

    <processing>
        <geometry.remove.keep-edges.explicit value="true"/>
        <geometry.avoid-overlap value="true"/>
        <offset.disable-normalization value="true"/>
    </processing>

    <junctions>
        <no-turnarounds value="true"/>
        <junctions.internal-link-detail value="20"/>
    </junctions>

    <report>
        <aggregate-warnings value="5"/>
    </report>

    <random_number>
        <seed value="1234"/>
    </random_number>

</configuration>
--><net xmlns:xsi="http://www.w3.org/2001/XMLSchema-instance" version="1.6" junctionCornerDetail="5" junctionLinkDetail="20" limitTurnSpeed="5.50" xsi:noNamespaceSchemaLocation="http://sumo.dlr.de/xsd/net_file.xsd">

    <location netOffset="0.00,0.00" convBoundary="-249.52,-427.63,-28.12,-165.81" origBoundary="-249.52,-427.63,-28.12,-165.81" projParameter="!"/>

    <type id="highway.bridleway" priority="1" speed="2.78" allow="pedestrian" oneway="1" width="2.00"/>
    <type id="highway.bus_guideway" priority="1" speed="27.78" allow="bus" oneway="1"/>
    <type id="highway.cycleway" priority="1" speed="8.33" allow="bicycle" oneway="0" width="1.00"/>
    <type id="highway.footway" priority="1" speed="2.78" allow="pedestrian" oneway="1" width="2.00"/>
    <type id="highway.ford" priority="1" speed="2.78" allow="army" oneway="0"/>
    <type id="highway.living_street" priority="2" speed="2.78" disallow="tram rail_urban rail rail_electric rail_fast ship" oneway="0"/>
    <type id="highway.motorway" priority="14" speed="39.44" allow="private emergency authority army vip passenger hov taxi bus coach delivery truck trailer motorcycle evehicle custom1 custom2" oneway="1"/>
    <type id="highway.motorway_link" priority="9" speed="22.22" allow="private emergency authority army vip passenger hov taxi bus coach delivery truck trailer motorcycle evehicle custom1 custom2" oneway="1"/>
    <type id="highway.path" priority="1" speed="2.78" allow="pedestrian bicycle" oneway="0" width="2.00"/>
    <type id="highway.pedestrian" priority="1" speed="2.78" allow="pedestrian" oneway="1" width="2.00"/>
    <type id="highway.primary" priority="12" speed="27.78" disallow="pedestrian tram rail_urban rail rail_electric rail_fast ship" oneway="0"/>
    <type id="highway.primary_link" priority="7" speed="22.22" disallow="pedestrian tram rail_urban rail rail_electric rail_fast ship" oneway="0"/>
    <type id="highway.raceway" priority="15" speed="83.33" allow="vip" oneway="0"/>
    <type id="highway.residential" priority="3" speed="13.89" disallow="pedestrian tram rail_urban rail rail_electric rail_fast ship" oneway="0"/>
    <type id="highway.secondary" priority="11" speed="27.78" disallow="pedestrian tram rail_urban rail rail_electric rail_fast ship" oneway="0"/>
    <type id="highway.secondary_link" priority="6" speed="22.22" disallow="pedestrian tram rail_urban rail rail_electric rail_fast ship" oneway="0"/>
    <type id="highway.service" priority="1" speed="5.56" allow="pedestrian delivery bicycle" oneway="0"/>
    <type id="highway.stairs" priority="1" speed="1.39" allow="pedestrian" oneway="1" width="2.00"/>
    <type id="highway.step" priority="1" speed="1.39" allow="pedestrian" oneway="1" width="2.00"/>
    <type id="highway.steps" priority="1" speed="1.39" allow="pedestrian" oneway="1" width="2.00"/>
    <type id="highway.tertiary" priority="10" speed="22.22" disallow="pedestrian tram rail_urban rail rail_electric rail_fast ship" oneway="0"/>
    <type id="highway.tertiary_link" priority="5" speed="22.22" disallow="pedestrian tram rail_urban rail rail_electric rail_fast ship" oneway="0"/>
    <type id="highway.track" priority="1" speed="5.56" allow="pedestrian motorcycle moped bicycle" oneway="0"/>
    <type id="highway.trunk" priority="13" speed="27.78" disallow="pedestrian bicycle tram rail_urban rail rail_electric rail_fast ship" oneway="0"/>
    <type id="highway.trunk_link" priority="8" speed="22.22" disallow="pedestrian bicycle tram rail_urban rail rail_electric rail_fast ship" oneway="0"/>
    <type id="highway.unclassified" priority="4" speed="13.89" disallow="pedestrian tram rail_urban rail rail_electric rail_fast ship" oneway="0"/>
    <type id="highway.unsurfaced" priority="1" speed="8.33" disallow="tram rail_urban rail rail_electric rail_fast ship" oneway="0"/>
    <type id="railway.highspeed" priority="21" speed="69.44" allow="rail_fast" oneway="1"/>
    <type id="railway.light_rail" priority="19" speed="27.78" allow="rail_urban" oneway="1"/>
    <type id="railway.preserved" priority="16" speed="27.78" allow="rail" oneway="1"/>
    <type id="railway.rail" priority="20" speed="44.44" allow="rail" oneway="1"/>
    <type id="railway.subway" priority="18" speed="27.78" allow="rail_urban" oneway="1"/>
    <type id="railway.tram" priority="17" speed="13.89" allow="tram" oneway="1"/>

    <edge id=":25_0" function="internal">
        <lane id=":25_0_0" index="0" disallow="pedestrian tram rail_urban rail rail_electric rail_fast ship" speed="36.11" length="2.93" width="3.50" shape="-197.29,-246.39 -200.22,-246.47"/>
    </edge>
    <edge id=":37_0" function="internal">
        <lane id=":37_0_0" index="0" disallow="pedestrian tram rail_urban rail rail_electric rail_fast ship" speed="36.11" length="0.23" width="3.50" shape="-198.78,-249.90 -198.55,-249.89"/>
    </edge>
    <edge id=":39_0" function="internal">
        <lane id=":39_0_0" index="0" disallow="pedestrian tram rail_urban rail rail_electric rail_fast ship" speed="11.80" length="29.51" width="3.50" shape="-111.39,-331.34 -111.05,-333.50 -110.90,-335.68 -110.97,-337.86 -111.30,-340.02 -111.93,-342.12 -112.85,-344.10 -114.06,-345.91 -115.53,-347.54 -117.19,-348.96 -119.00,-350.19 -120.91,-351.24 -123.93,-352.53 -126.00,-353.23"/>
    </edge>
    <edge id=":39_1" function="internal">
        <lane id=":39_1_0" index="0" disallow="pedestrian tram rail_urban rail rail_electric rail_fast ship" speed="36.11" length="38.87" width="3.50" shape="-111.39,-331.34 -107.61,-350.39 -103.82,-369.47"/>
    </edge>
    <edge id=":39_2" function="internal">
        <lane id=":39_2_0" index="0" disallow="pedestrian tram rail_urban rail rail_electric rail_fast ship" speed="36.11" length="38.85" width="3.50" shape="-100.39,-368.79 -104.18,-349.71 -107.96,-330.68"/>
    </edge>
    <edge id=":39_3" function="internal">
        <lane id=":39_3_0" index="0" disallow="pedestrian tram rail_urban rail rail_electric rail_fast ship" speed="11.93" length="35.27" width="3.50" shape="-100.39,-368.79 -101.38,-364.82 -102.30,-362.27 -103.47,-359.82 -104.95,-357.55 -105.81,-356.51 -106.76,-355.54 -107.80,-354.67 -108.92,-353.90 -110.11,-353.25 -111.36,-352.72 -112.65,-352.31 -113.97,-352.02 -115.31,-351.84 -118.02,-351.76 -120.72,-352.01 -123.38,-352.52 -126.00,-353.23"/>
    </edge>
    <edge id=":39_4" function="internal">
        <lane id=":39_4_0" index="0" disallow="pedestrian tram rail_urban rail rail_electric rail_fast ship" speed="10.91" length="29.29" width="3.50" shape="-124.98,-356.57 -122.71,-355.96 -120.42,-355.52 -118.15,-355.31 -115.87,-355.38 -114.81,-355.52 -113.75,-355.76 -112.72,-356.08 -111.74,-356.50 -110.81,-357.01 -109.93,-357.62 -109.11,-358.31 -108.35,-359.08 -107.68,-359.90 -106.44,-361.79 -105.46,-363.84 -104.69,-366.01 -103.82,-369.47"/>
    </edge>
    <edge id=":39_5" function="internal">
        <lane id=":39_5_0" index="0" disallow="pedestrian tram rail_urban rail rail_electric rail_fast ship" speed="12.76" length="34.69" width="3.50" shape="-124.98,-356.57 -122.61,-355.77 -119.18,-354.30 -116.95,-353.07 -114.83,-351.62 -112.87,-349.92 -111.13,-347.96 -109.69,-345.75 -108.58,-343.35 -107.85,-340.83 -107.46,-338.26 -107.39,-335.69 -107.57,-333.15 -107.96,-330.68"/>
    </edge>
    <edge id=":40_0" function="internal">
        <lane id=":40_0_0" index="0" disallow="pedestrian tram rail_urban rail rail_electric rail_fast ship" speed="12.10" length="27.68" width="3.50" shape="-143.37,-244.78 -145.24,-247.33 -146.68,-248.90 -148.28,-250.31 -150.03,-251.53 -151.92,-252.51 -153.93,-253.22 -156.01,-253.65 -158.14,-253.81 -160.27,-253.72 -162.38,-253.42 -165.47,-252.64 -167.50,-251.93"/>
    </edge>
    <edge id=":40_1" function="internal">
        <lane id=":40_1_0" index="0" disallow="pedestrian tram rail_urban rail rail_electric rail_fast ship" speed="13.03" length="32.38" width="3.50" shape="-143.37,-244.78 -144.60,-246.89 -145.64,-249.16 -146.41,-251.57 -146.87,-254.07 -146.98,-256.62 -146.72,-259.17 -146.13,-261.63 -145.23,-263.98 -144.10,-266.20 -142.78,-268.29 -140.54,-271.15 -138.07,-273.78"/>
    </edge>
    <edge id=":40_2" function="internal">
        <lane id=":40_2_0" index="0" disallow="pedestrian tram rail_urban rail rail_electric rail_fast ship" speed="12.07" length="27.65" width="3.50" shape="-135.55,-271.35 -137.80,-268.97 -139.77,-266.46 -140.92,-264.68 -141.90,-262.79 -142.67,-260.82 -143.19,-258.76 -143.43,-256.65 -143.36,-254.53 -143.00,-252.44 -142.36,-250.42 -141.48,-248.49 -140.44,-246.68"/>
    </edge>
    <edge id=":40_3" function="internal">
        <lane id=":40_3_0" index="0" disallow="pedestrian tram rail_urban rail rail_electric rail_fast ship" speed="32.04" length="37.65" width="3.50" shape="-135.54,-271.35 -138.78,-268.38 -142.96,-265.03 -147.37,-261.97 -151.95,-259.20 -157.65,-256.20 -163.51,-253.54 -167.50,-251.93"/>
    </edge>
    <edge id=":40_4" function="internal">
        <lane id=":40_4_0" index="0" disallow="pedestrian tram rail_urban rail rail_electric rail_fast ship" speed="31.35" length="36.09" width="3.50" shape="-168.73,-255.21 -164.90,-256.75 -159.23,-259.32 -153.73,-262.21 -149.32,-264.88 -145.09,-267.80 -141.08,-271.01 -138.07,-273.78"/>
    </edge>
    <edge id=":40_5" function="internal">
        <lane id=":40_5_0" index="0" disallow="pedestrian tram rail_urban rail rail_electric rail_fast ship" speed="13.08" length="32.45" width="3.50" shape="-168.73,-255.21 -166.43,-256.01 -162.89,-256.90 -160.41,-257.25 -157.91,-257.34 -155.39,-257.14 -152.89,-256.62 -150.49,-255.75 -148.23,-254.58 -146.15,-253.13 -144.27,-251.46 -142.59,-249.61 -140.44,-246.68"/>
    </edge>
    <edge id=":41_0" function="internal">
        <lane id=":41_0_0" index="0" disallow="pedestrian tram rail_urban rail rail_electric rail_fast ship" speed="15.04" length="30.50" width="3.50" shape="-97.76,-290.62 -100.97,-291.05 -104.17,-291.26 -107.35,-291.21 -110.50,-290.87 -113.56,-290.19 -116.52,-289.14 -118.38,-288.25 -120.16,-287.20 -121.84,-285.98 -123.40,-284.64 -125.57,-282.33"/>
    </edge>
    <edge id=":41_1" function="internal">
        <lane id=":41_1_0" index="0" disallow="pedestrian tram rail_urban rail rail_electric rail_fast ship" speed="12.07" length="34.39" width="3.50" shape="-97.76,-290.62 -101.51,-291.45 -103.99,-292.28 -106.39,-293.38 -108.63,-294.79 -109.72,-295.65 -110.71,-296.59 -111.62,-297.61 -112.44,-298.72 -113.15,-299.90 -113.75,-301.13 -114.24,-302.40 -114.63,-303.72 -115.10,-306.32 -115.24,-308.94 -115.12,-311.55 -114.58,-315.30"/>
    </edge>
    <edge id=":41_2" function="internal">
        <lane id=":41_2_0" index="0" disallow="pedestrian tram rail_urban rail rail_electric rail_fast ship" speed="11.07" length="28.71" width="3.50" shape="-111.14,-314.64 -111.62,-311.37 -111.72,-309.16 -111.60,-306.96 -111.21,-304.78 -110.90,-303.72 -110.51,-302.69 -110.02,-301.70 -109.45,-300.75 -108.80,-299.86 -108.06,-299.04 -107.26,-298.28 -106.40,-297.59 -104.53,-296.41 -102.52,-295.49 -100.42,-294.79 -97.19,-294.07"/>
    </edge>
    <edge id=":41_3" function="internal">
        <lane id=":41_3_0" index="0" disallow="pedestrian tram rail_urban rail rail_electric rail_fast ship" speed="27.79" length="35.76" width="3.50" shape="-111.14,-314.64 -111.58,-312.53 -112.89,-307.32 -114.52,-302.18 -116.50,-297.15 -118.37,-293.23 -120.50,-289.44 -122.89,-285.80 -125.57,-282.33"/>
    </edge>
    <edge id=":41_4" function="internal">
        <lane id=":41_4_0" index="0" disallow="pedestrian tram rail_urban rail rail_electric rail_fast ship" speed="27.08" length="33.96" width="3.50" shape="-128.24,-284.59 -125.72,-287.86 -123.46,-291.30 -121.45,-294.89 -119.68,-298.62 -117.80,-303.41 -116.25,-308.32 -114.99,-313.32 -114.58,-315.30"/>
    </edge>
    <edge id=":41_5" function="internal">
        <lane id=":41_5_0" index="0" disallow="pedestrian tram rail_urban rail rail_electric rail_fast ship" speed="15.89" length="34.12" width="3.50" shape="-128.24,-284.59 -125.82,-287.16 -124.05,-288.71 -122.14,-290.09 -120.13,-291.30 -118.01,-292.33 -114.69,-293.52 -111.25,-294.30 -107.74,-294.70 -104.21,-294.77 -100.69,-294.54 -97.19,-294.07"/>
    </edge>
    <edge id=":42_0" function="internal">
        <lane id=":42_0_0" index="0" disallow="pedestrian tram rail_urban rail rail_electric rail_fast ship" speed="12.07" length="27.94" width="3.50" shape="-204.86,-246.72 -208.09,-246.84 -210.24,-246.72 -212.36,-246.40 -214.45,-245.87 -216.46,-245.10 -218.35,-244.07 -220.08,-242.80 -221.63,-241.31 -222.98,-239.64 -224.12,-237.81 -225.08,-235.89 -226.20,-232.89"/>
    </edge>
    <edge id=":42_1" function="internal">
        <lane id=":42_1_0" index="0" disallow="pedestrian tram rail_urban rail rail_electric rail_fast ship" speed="32.98" length="36.73" width="3.50" shape="-204.86,-246.72 -210.23,-247.32 -215.55,-248.21 -220.82,-249.39 -226.00,-250.89 -231.08,-252.72 -236.03,-254.87 -239.90,-256.84"/>
    </edge>
    <edge id=":42_2" function="internal">
        <lane id=":42_2_0" index="0" disallow="pedestrian tram rail_urban rail rail_electric rail_fast ship" speed="32.25" length="35.14" width="3.50" shape="-238.12,-259.86 -234.53,-258.03 -229.78,-255.97 -224.90,-254.22 -219.92,-252.78 -214.86,-251.64 -209.73,-250.79 -204.58,-250.21"/>
    </edge>
    <edge id=":42_3" function="internal">
        <lane id=":42_3_0" index="0" disallow="pedestrian tram rail_urban rail rail_electric rail_fast ship" speed="13.03" length="32.70" width="3.50" shape="-229.54,-233.93 -228.26,-237.36 -227.14,-239.61 -225.80,-241.75 -224.21,-243.74 -222.37,-245.52 -220.29,-247.05 -218.04,-248.27 -215.66,-249.20 -213.21,-249.83 -210.73,-250.20 -208.24,-250.34 -204.58,-250.21"/>
    </edge>

    <edge id="107060" from="15" to="41" priority="3" type="highway.residential" spreadType="center" length="70.00" shape="-28.71,-279.27 -112.78,-295.21">
        <lane id="107060_0" index="0" disallow="pedestrian tram rail_urban rail rail_electric rail_fast ship" speed="36.11" length="70.00" width="3.50" customShape="1" shape="-28.71,-279.27 -97.78,-290.62"/>
    </edge>
    <edge id="107061" from="41" to="8" priority="3" type="highway.residential" spreadType="center" length="70.00" shape="-112.13,-298.65 -28.12,-282.71">
        <lane id="107061_0" index="0" disallow="pedestrian tram rail_urban rail rail_electric rail_fast ship" speed="36.11" length="70.00" width="3.50" customShape="1" shape="-97.19,-294.07 -28.12,-282.71"/>
    </edge>
    <edge id="107189" from="42" to="37" priority="3" type="highway.residential" spreadType="center" length="5.81" shape="-224.10,-248.49 -198.66,-249.89">
        <lane id="107189_0" index="0" disallow="pedestrian tram rail_urban rail rail_electric rail_fast ship" speed="36.11" length="5.81" width="3.50" customShape="1" shape="-204.58,-250.21 -204.03,-250.17 -198.78,-249.90"/>
    </edge>
    <edge id="107190" from="25" to="42" priority="3" type="highway.residential" spreadType="center" length="4.66" shape="-198.75,-246.39 -223.91,-245.00">
        <lane id="107190_0" index="0" disallow="pedestrian tram rail_urban rail rail_electric rail_fast ship" speed="36.11" length="4.66" width="3.50" customShape="1" shape="-200.22,-246.47 -204.29,-246.68 -204.87,-246.72"/>
    </edge>
    <edge id="107296" from="24" to="40" priority="3" type="highway.residential" spreadType="center" length="70.01" shape="-105.60,-185.84 -150.45,-256.37">
        <lane id="107296_0" index="0" disallow="pedestrian tram rail_urban rail rail_electric rail_fast ship" speed="36.11" length="70.01" width="3.50" customShape="1" shape="-105.60,-185.84 -117.10,-204.20 -143.37,-244.78"/>
    </edge>
    <edge id="107297" from="40" to="20" priority="3" type="highway.residential" spreadType="center" length="70.00" shape="-147.50,-258.25 -102.66,-187.75">
        <lane id="107297_0" index="0" disallow="pedestrian tram rail_urban rail rail_electric rail_fast ship" speed="36.11" length="70.00" width="3.50" customShape="1" shape="-140.44,-246.68 -114.11,-206.03 -102.66,-187.75"/>
    </edge>
    <edge id="107546" from="35" to="42" priority="3" type="highway.residential" spreadType="center" length="70.00" shape="-249.52,-166.85 -225.55,-247.29">
        <lane id="107546_0" index="0" disallow="pedestrian tram rail_urban rail rail_electric rail_fast ship" speed="36.11" length="70.00" width="3.50" customShape="1" shape="-249.52,-166.85 -246.63,-177.81 -241.85,-194.31 -229.54,-233.93"/>
    </edge>
    <edge id="107547" from="42" to="34" priority="3" type="highway.residential" spreadType="center" length="70.00" shape="-222.20,-246.29 -246.17,-165.81">
        <lane id="107547_0" index="0" disallow="pedestrian tram rail_urban rail rail_electric rail_fast ship" speed="36.11" length="70.00" width="3.50" customShape="1" shape="-226.20,-232.89 -238.47,-193.40 -243.23,-176.97 -246.17,-165.81"/>
    </edge>
    <edge id="107549" from="37" to="40" priority="3" type="highway.residential" spreadType="center" length="30.52" shape="-198.66,-249.89 -149.21,-259.01">
        <lane id="107549_0" index="0" disallow="pedestrian tram rail_urban rail rail_electric rail_fast ship" speed="36.11" length="30.52" width="3.50" customShape="1" shape="-198.55,-249.89 -197.65,-249.88 -192.47,-250.03 -187.33,-250.55 -182.23,-251.39 -177.18,-252.55 -172.18,-253.99 -170.47,-254.60 -168.67,-255.23"/>
    </edge>
    <edge id="107688" from="39" to="18" priority="3" type="highway.residential" spreadType="center" length="59.30" shape="-114.12,-352.12 -92.27,-427.63">
        <lane id="107688_0" index="0" disallow="pedestrian tram rail_urban rail rail_electric rail_fast ship" speed="36.11" length="59.30" width="3.50" customShape="1" shape="-103.82,-369.47 -98.05,-398.53 -92.27,-427.63"/>
    </edge>
    <edge id="107689" from="27" to="39" priority="3" type="highway.residential" spreadType="center" length="59.33" shape="-88.84,-426.95 -110.76,-351.15">
        <lane id="107689_0" index="0" disallow="pedestrian tram rail_urban rail rail_electric rail_fast ship" speed="36.11" length="59.33" width="3.50" customShape="1" shape="-88.84,-426.95 -94.62,-397.85 -100.39,-368.76"/>
    </edge>
    <edge id="107691" from="41" to="39" priority="3" type="highway.residential" spreadType="center" length="16.37" shape="-114.17,-296.87 -114.17,-351.67">
        <lane id="107691_0" index="0" disallow="pedestrian tram rail_urban rail rail_electric rail_fast ship" speed="36.11" length="16.37" width="3.50" customShape="1" shape="-114.58,-315.30 -112.98,-323.33 -111.39,-331.36"/>
    </edge>
    <edge id="107692" from="39" to="41" priority="3" type="highway.residential" spreadType="center" length="16.37" shape="-110.68,-351.67 -110.67,-296.87">
        <lane id="107692_0" index="0" disallow="pedestrian tram rail_urban rail rail_electric rail_fast ship" speed="36.11" length="16.37" width="3.50" customShape="1" shape="-107.96,-330.68 -109.55,-322.65 -111.14,-314.62"/>
    </edge>
    <edge id="107842" from="36" to="42" priority="3" type="highway.residential" spreadType="center" length="9.85" shape="-246.32,-265.30 -222.77,-248.10">
        <lane id="107842_0" index="0" disallow="pedestrian tram rail_urban rail rail_electric rail_fast ship" speed="36.11" length="9.85" width="3.50" customShape="1" shape="-246.32,-265.30 -245.12,-264.34 -241.75,-261.99 -238.13,-259.86"/>
    </edge>
    <edge id="107843" from="42" to="33" priority="3" type="highway.residential" spreadType="center" length="10.36" shape="-224.83,-245.28 -248.52,-262.57">
        <lane id="107843_0" index="0" disallow="pedestrian tram rail_urban rail rail_electric rail_fast ship" speed="36.11" length="10.36" width="3.50" customShape="1" shape="-239.90,-256.84 -243.65,-259.05 -247.22,-261.55 -248.52,-262.57"/>
    </edge>
    <edge id="108222" from="40" to="41" priority="3" type="highway.residential" spreadType="center" length="14.66" shape="-150.24,-258.46 -113.66,-298.15">
        <lane id="108222_0" index="0" disallow="pedestrian tram rail_urban rail rail_electric rail_fast ship" speed="36.11" length="14.66" width="3.50" customShape="1" shape="-138.07,-273.78 -133.52,-278.50 -128.21,-284.62"/>
    </edge>
    <edge id="108223" from="41" to="40" priority="3" type="highway.residential" spreadType="center" length="14.93" shape="-111.09,-295.78 -147.67,-256.09">
        <lane id="108223_0" index="0" disallow="pedestrian tram rail_urban rail rail_electric rail_fast ship" speed="36.11" length="14.93" width="3.50" customShape="1" shape="-125.57,-282.33 -130.95,-276.13 -135.61,-271.29"/>
    </edge>
    <edge id="108496" from="23" to="39" priority="3" type="highway.residential" spreadType="center" length="70.00" shape="-191.91,-377.06 -111.89,-353.34">
        <lane id="108496_0" index="0" disallow="pedestrian tram rail_urban rail rail_electric rail_fast ship" speed="36.11" length="70.00" width="3.50" customShape="1" shape="-191.91,-377.06 -187.87,-375.82 -124.98,-356.57"/>
    </edge>
    <edge id="108497" from="39" to="19" priority="3" type="highway.residential" spreadType="center" length="70.00" shape="-112.89,-349.99 -192.94,-373.71">
        <lane id="108497_0" index="0" disallow="pedestrian tram rail_urban rail rail_electric rail_fast ship" speed="36.11" length="70.00" width="3.50" customShape="1" shape="-126.00,-353.23 -188.90,-372.48 -192.94,-373.71"/>
    </edge>
    <edge id="110884" from="40" to="25" priority="3" type="highway.residential" spreadType="center" length="30.46" shape="-148.58,-255.57 -198.75,-246.39">
        <lane id="110884_0" index="0" disallow="pedestrian tram rail_urban rail rail_electric rail_fast ship" speed="36.11" length="30.46" width="3.50" customShape="1" shape="-167.50,-251.93 -169.31,-251.29 -171.11,-250.66 -176.32,-249.16 -181.58,-247.96 -186.90,-247.07 -192.26,-246.54 -197.29,-246.39"/>
    </edge>

    <junction id="15" type="dead_end" x="-28.71" y="-279.27" incLanes="" intLanes="" shape="-28.42,-280.99 -28.99,-277.54" rightOfWay="edgePriority"/>
    <junction id="18" type="dead_end" x="-92.27" y="-427.63" incLanes="107688_0" intLanes="" shape="-93.99,-427.97 -90.56,-427.29" rightOfWay="edgePriority"/>
    <junction id="19" type="dead_end" x="-192.94" y="-373.71" incLanes="108497_0" intLanes="" shape="-193.45,-372.04 -192.42,-375.39" rightOfWay="edgePriority"/>
    <junction id="20" type="dead_end" x="-102.66" y="-187.75" incLanes="107297_0" intLanes="" shape="-101.18,-188.68 -104.15,-186.82" rightOfWay="edgePriority"/>
    <junction id="23" type="dead_end" x="-191.91" y="-377.06" incLanes="" intLanes="" shape="-192.43,-375.39 -191.40,-378.74" rightOfWay="edgePriority"/>
    <junction id="24" type="dead_end" x="-105.60" y="-185.84" incLanes="" intLanes="" shape="-104.12,-186.77 -107.08,-184.92" rightOfWay="edgePriority"/>
    <junction id="25" type="priority" x="-198.75" y="-246.39" incLanes="110884_0" intLanes=":25_0_0" shape="-197.31,-244.64 -197.27,-248.14 -200.13,-248.21 -200.31,-244.72" rightOfWay="edgePriority">
        <request index="0" response="0" foes="0" cont="0"/>
    </junction>
    <junction id="27" type="dead_end" x="-88.84" y="-426.95" incLanes="" intLanes="" shape="-90.55,-427.29 -87.12,-426.60" rightOfWay="edgePriority"/>
    <junction id="33" type="dead_end" x="-248.52" y="-262.57" incLanes="107843_0" intLanes="" shape="-249.60,-261.20 -247.43,-263.94" rightOfWay="edgePriority"/>
    <junction id="34" type="dead_end" x="-246.17" y="-165.81" incLanes="107547_0" intLanes="" shape="-244.48,-165.36 -247.86,-166.25" rightOfWay="edgePriority"/>
    <junction id="35" type="dead_end" x="-249.52" y="-166.85" incLanes="" intLanes="" shape="-247.82,-166.40 -251.21,-167.30" rightOfWay="edgePriority"/>
    <junction id="36" type="dead_end" x="-246.32" y="-265.30" incLanes="" intLanes="" shape="-247.41,-263.92 -245.24,-266.67" rightOfWay="edgePriority"/>
    <junction id="37" type="priority" x="-198.66" y="-249.89" incLanes="107189_0" intLanes=":37_0_0" shape="-198.57,-248.14 -198.53,-251.64 -198.69,-251.64 -198.87,-248.15" rightOfWay="edgePriority">
        <request index="0" response="0" foes="0" cont="0"/>
    </junction>
    <junction id="39" type="priority" x="-112.42" y="-351.67" incLanes="107691_0 107689_0 108496_0" intLanes=":39_0_0 :39_1_0 :39_2_0 :39_3_0 :39_4_0 :39_5_0" shape="-113.11,-331.70 -106.24,-330.34 -98.67,-368.45 -105.54,-369.81 -106.97,-364.94 -109.09,-361.25 -111.89,-358.74 -115.39,-357.40 -119.58,-357.23 -124.47,-358.24 -126.51,-351.55 -121.60,-349.61 -117.76,-347.12 -114.98,-344.09 -113.29,-340.50 -112.66,-336.38">
        <request index="0" response="000000" foes="001000" cont="0"/>
        <request index="1" response="000000" foes="111000" cont="0"/>
        <request index="2" response="000000" foes="100000" cont="0"/>
        <request index="3" response="000011" foes="100011" cont="0"/>
        <request index="4" response="000010" foes="000010" cont="0"/>
        <request index="5" response="001110" foes="001110" cont="0"/>
    </junction>
    <junction id="40" type="priority" x="-148.95" y="-257.28" incLanes="107296_0 108223_0 107549_0" intLanes=":40_0_0 :40_1_0 :40_2_0 :40_3_0 :40_4_0 :40_5_0" shape="-144.84,-243.83 -138.97,-247.63 -140.74,-251.19 -141.48,-254.82 -141.21,-258.53 -139.92,-262.32 -137.61,-266.19 -134.29,-270.14 -139.33,-274.99 -144.61,-269.68 -148.81,-265.99 -152.65,-263.40 -156.86,-261.37 -162.15,-259.37 -169.25,-256.88 -166.92,-250.29 -162.26,-251.54 -157.99,-251.86 -154.12,-251.25 -150.63,-249.71 -147.54,-247.23">
        <request index="0" response="001000" foes="001000" cont="0"/>
        <request index="1" response="111000" foes="111000" cont="0"/>
        <request index="2" response="000000" foes="100000" cont="0"/>
        <request index="3" response="000000" foes="100011" cont="0"/>
        <request index="4" response="000000" foes="000010" cont="0"/>
        <request index="5" response="001100" foes="001110" cont="0"/>
    </junction>
    <junction id="41" type="priority" x="-112.42" y="-296.93" incLanes="107060_0 107692_0 108222_0" intLanes=":41_0_0 :41_1_0 :41_2_0 :41_3_0 :41_4_0 :41_5_0" shape="-98.04,-288.89 -96.91,-295.80 -101.61,-297.02 -105.27,-298.99 -107.88,-301.71 -109.44,-305.16 -109.96,-309.35 -109.43,-314.28 -116.29,-315.64 -117.64,-308.72 -118.76,-303.52 -120.10,-299.33 -122.05,-295.44 -125.06,-291.16 -129.54,-285.77 -124.25,-281.19 -120.99,-284.32 -117.29,-286.72 -113.14,-288.37 -108.55,-289.28 -103.52,-289.46">
        <request index="0" response="001000" foes="001000" cont="0"/>
        <request index="1" response="111000" foes="111000" cont="0"/>
        <request index="2" response="000000" foes="100000" cont="0"/>
        <request index="3" response="000000" foes="100011" cont="0"/>
        <request index="4" response="000000" foes="000010" cont="0"/>
        <request index="5" response="001100" foes="001110" cont="0"/>
    </junction>
    <junction id="42" type="priority" x="-223.88" y="-246.75" incLanes="107190_0 107842_0 107546_0" intLanes=":42_0_0 :42_1_0 :42_2_0 :42_3_0" shape="-205.01,-244.98 -204.44,-251.96 -211.75,-252.54 -217.23,-253.10 -221.70,-253.95 -225.97,-255.40 -230.88,-257.77 -237.24,-261.37 -240.78,-255.33 -236.74,-252.54 -233.68,-249.46 -231.60,-246.12 -230.49,-242.50 -230.36,-238.61 -231.21,-234.44 -224.53,-232.37 -222.79,-236.57 -220.44,-239.94 -217.49,-242.46 -213.94,-244.14 -209.78,-244.98">
        <request index="0" response="0000" foes="0000" cont="0"/>
        <request index="1" response="0000" foes="1000" cont="0"/>
        <request index="2" response="0000" foes="1000" cont="0"/>
        <request index="3" response="0110" foes="0110" cont="0"/>
    </junction>
    <junction id="8" type="dead_end" x="-28.12" y="-282.71" incLanes="107061_0" intLanes="" shape="-27.84,-284.44 -28.40,-280.99" rightOfWay="edgePriority"/>

    <connection from="107060" to="108223" fromLane="0" toLane="0" contPos="-4.00" shape="-97.78,-290.62 -100.97,-291.05 -104.17,-291.26 -107.35,-291.21 -110.50,-290.87 -113.56,-290.19 -116.52,-289.14 -118.38,-288.25 -120.16,-287.20 -121.84,-285.98 -123.40,-284.64 -125.57,-282.33" via=":41_0_0" dir="r" state="m"/>
    <connection from="107060" to="107691" fromLane="0" toLane="0" contPos="-4.00" shape="-97.78,-290.62 -101.51,-291.45 -103.99,-292.28 -106.39,-293.38 -108.63,-294.79 -109.72,-295.65 -110.71,-296.59 -111.62,-297.61 -112.44,-298.72 -113.15,-299.90 -113.75,-301.13 -114.24,-302.40 -114.63,-303.72 -115.10,-306.32 -115.24,-308.94 -115.12,-311.55 -114.58,-315.30" via=":41_1_0" dir="l" state="m"/>