<routes>
	<vehicle depart="0.1" departLane="0" departPos="64.46781557629996" departSpeed="0.60046095" id="310" type="bicycle">
		<route edges="107296 110884"/>
	</vehicle>
	<vehicle depart="0.1" departLane="0" departPos="9.485641984640761" departSpeed="7.2081368" id="312" type="bicycle">
		<route edges=":40_3 110884"/>
	</vehicle>
	<vehicle depart="0.1" departLane="0" departPos="9.139732255597652" departSpeed="0.94387564" id="31" type="passenger">
		<route edges=":40_1 108222"/>
	</vehicle>
	<vehicle depart="0.1" departLane="0" departPos="70.54833115248896" departSpeed="0.43665096" id="37" type="passenger">
		<route edges="107296 108222"/>
	</vehicle>
	<vehicle depart="0.1" departLane="0" departPos="23.966588889950298" departSpeed="0.37582293" id="311" type="passenger">
		<route edges=":41_1 107691"/>
	</vehicle>
	<vehicle depart="0.1" departLane="0" departPos="63.04701879639167" departSpeed="0.11810673" id="315" type="passenger">
		<route edges="107296 110884"/>
	</vehicle>
	<vehicle depart="0.1" departLane="0" departPos="53.056535704680186" departSpeed="0.63856667" id="326" type="passenger">
		<route edges="107296 110884"/>
	</vehicle>
	<vehicle depart="0.1" departLane="0" departPos="31.086729940337925" departSpeed="0.72940274" id="332" type="passenger">
		<route edges="107296 110884"/>
	</vehicle>
	<vehicle depart="0.1" departLane="0" departPos="28.00504993907528" departSpeed="16.066093" id="333" type="passenger">
		<route edges=":41_3 108223 110884"/>
	</vehicle>
</routes>
