<routes>
	<vehicle depart="0.1" departLane="0" departPos="50.956247377460315" departSpeed="1.8333499" id="356" type="bus">
		<route edges="13461 13564"/>
	</vehicle>
	<vehicle depart="0.1" departLane="0" departPos="4.679540824339683" departSpeed="2.4141362" id="33" type="passenger">
		<route edges="13564 13567"/>
	</vehicle>
	<vehicle depart="0.1" departLane="0" departPos="16.20797354752162" departSpeed="0.30334433" id="36" type="passenger">
		<route edges="13507 13564"/>
	</vehicle>
	<vehicle depart="0.1" departLane="0" departPos="14.049495726115696" departSpeed="3.1776449" id="37" type="passenger">
		<route edges="13563 13460"/>
	</vehicle>
	<vehicle depart="0.1" departLane="0" departPos="22.42125795305197" departSpeed="5.0714564e-05" id="312" type="passenger">
		<route edges="13564 13567"/>
	</vehicle>
	<vehicle depart="0.1" departLane="0" departPos="29.605859138448498" departSpeed="3.750751" id="321" type="passenger">
		<route edges="13563 13460"/>
	</vehicle>
	<vehicle depart="0.1" departLane="0" departPos="25.317683521242095" departSpeed="2.609371" id="328" type="passenger">
		<route edges=":38_4 13563 13460"/>
	</vehicle>
	<vehicle depart="0.1" departLane="0" departPos="14.918674274198974" departSpeed="0.0011293899" id="333" type="passenger">
		<route edges="13564 13567"/>
	</vehicle>
	<vehicle depart="0.1" departLane="0" departPos="10.947137854332" departSpeed="0.0" id="349" type="passenger">
		<route edges=":37_3 13508"/>
	</vehicle>
	<vehicle depart="0.1" departLane="0" departPos="16.31935129702792" departSpeed="7.7262561" id="353" type="motorcycle">
		<route edges=":37_2 13564"/>
	</vehicle>
</routes>
