<routes>
	<vehicle depart="0.1" departLane="0" departPos="25.041524676018007" departSpeed="6.2473545" id="348" type="passenger">
		<route edges="47936 47679 47804"/>
	</vehicle>
	<vehicle depart="0.1" departLane="0" departPos="13.415964458553585" departSpeed="0.26338618" id="350" type="passenger">
		<route edges="47936 47679"/>
	</vehicle>
</routes>
