<!-- generated on 2020-12-18 17:02:06.631129 by ipykernel_launcher.py v1_2_0+5214-53edc58fcd
-->
<edges>
	<edge from="1" function="normal" id="1498" length="113.44540351692535" numLanes="1" priority="1" speed="36.11111111111111" spreadType="center" to="2">
		<lane allow="moped bicycle pedestrian custom1 trailer evehicle rail_urban ship private truck vip custom2 authority delivery rail_electric taxi tram army hov coach motorcycle passenger bus rail emergency" index="0" length="113.44540351692535" shape="-69.07395,-10.2207 -80.49375,10.42375 -92.0829,32.1189 -122.38159999999999,89.91499999999999" speed="36.11111111111111" width="2.4998698866140954"/>
	</edge>
	<edge from="3" function="normal" id="1499" length="36.78099319431165" numLanes="1" priority="1" speed="36.11111111111111" spreadType="center" to="4">
		<lane allow="moped bicycle pedestrian custom1 trailer evehicle rail_urban ship private truck vip custom2 authority delivery rail_electric taxi tram army hov coach motorcycle passenger bus rail emergency" index="0" length="36.78099319431165" shape="-43.39765,-53.07525 -52.85735,-37.304249999999996 -62.317049999999995,-21.533250000000002" speed="36.11111111111111" width="2.495666776635054"/>
	</edge>
	<edge from="5" function="normal" id="1500" length="110.80214541489232" numLanes="1" priority="1" speed="36.11111111111111" spreadType="center" to="6">
		<lane allow="moped bicycle pedestrian custom1 trailer evehicle rail_urban ship private truck vip custom2 authority delivery rail_electric taxi tram army hov coach motorcycle passenger bus rail emergency" index="0" length="110.80214541489232" shape="-171.05845,-66.072 -120.82495,-42.7081 -70.5914,-19.3442" speed="36.11111111111111" width="2.498219341851316"/>
	</edge>
	<edge from="7" function="normal" id="1501" length="158.6221309194034" numLanes="1" priority="1" speed="36.11111111111111" spreadType="center" to="8">
		<lane allow="moped bicycle pedestrian custom1 trailer evehicle rail_urban ship private truck vip custom2 authority delivery rail_electric taxi tram army hov coach motorcycle passenger bus rail emergency" index="0" length="158.6221309194034" shape="-33.686099999999996,-56.604 13.24415,-37.4511 40.1643,-26.3553 56.444500000000005,-19.74585 74.699,-12.6683 113.82454999999999,1.66285" speed="36.11111111111111" width="2.4999085583276868"/>
	</edge>
	<edge from="9" function="normal" id="1502" length="158.71863071379386" numLanes="1" priority="1" speed="36.11111111111111" spreadType="center" to="10">
		<lane allow="moped bicycle pedestrian custom1 trailer evehicle rail_urban ship private truck vip custom2 authority delivery rail_electric taxi tram army hov coach motorcycle passenger bus rail emergency" index="0" length="158.71863071379386" shape="112.96170000000001,4.00925 73.81479999999999,-10.32995 55.5352,-17.41705 39.23835,-24.03295 12.309899999999999,-35.1322 -34.63855,-54.2934" speed="36.11111111111111" width="2.498162214508897"/>
	</edge>
	<edge from="11" function="normal" id="1503" length="57.36302114591436" numLanes="1" priority="1" speed="36.11111111111111" spreadType="center" to="12">
		<lane allow="moped bicycle pedestrian custom1 trailer evehicle rail_urban ship private vip custom2 authority delivery rail_electric taxi tram army hov coach motorcycle passenger rail emergency" index="0" length="57.36302114591436" shape="-11.2195,-115.01745 -11.705400000000001,-110.94985 -12.5628,-106.944 -13.762599999999999,-103.02680000000001 -15.468,-98.7449 -17.72235,-94.1464 -20.796300000000002,-88.8243 -25.2782,-81.96315 -33.9238,-69.2589 -36.9045,-64.47749999999999" speed="36.11111111111111" width="2.4949101867602366"/>
	</edge>
	<edge from="13" function="normal" id="1504" length="230.67409071253803" numLanes="1" priority="1" speed="36.11111111111111" spreadType="center" to="14">
		<lane allow="moped bicycle pedestrian custom1 trailer evehicle rail_urban ship private vip custom2 authority delivery rail_electric taxi tram army hov coach motorcycle passenger rail emergency" index="0" length="230.67409071253803" shape="-61.303799999999995,-10.2018 -58.2472,-7.536149999999999 -54.57225,-4.8324 -50.686800000000005,-2.4406 -46.17585,-0.12680000000000002 -41.04265,2.0533 -34.8245,4.2392 -26.555999999999997,6.6754999999999995 -24.5885,7.1632 -22.56475,7.25065 -20.030549999999998,7.2248 -18.53295,7.47525 -8.83915,10.4545 -1.67285,13.0018 4.4063,15.549 9.40435,18.02345 13.78665,20.57275 17.96875,23.438299999999998 21.52115,26.3017 24.83795,29.4347 27.88785,32.82785 29.3036,34.927899999999994 30.38745,37.2177 31.3085,40.11535 32.0947,44.09365 33.28535,52.1184 34.12545,55.565250000000006 35.01335,57.93845 36.2147,60.1685 37.752849999999995,62.1806 39.900000000000006,64.33395 42.269949999999994,66.2397 45.2576,68.1532 48.8759,69.98435 53.5745,71.8887 65.036,75.979 69.6899,77.98995 86.7555,85.7861 126.7167,103.24770000000001" speed="36.11111111111111" width="2.497246563717726"/>
	</edge>
	<edge from="15" function="normal" id="1505" length="205.15793294157595" numLanes="1" priority="1" speed="36.11111111111111" spreadType="center" to="16">
		<lane allow="moped bicycle pedestrian custom1 trailer evehicle rail_urban ship private truck vip custom2 authority delivery rail_electric taxi tram army hov coach motorcycle passenger bus rail emergency" index="0" length="205.15793294157595" shape="-3.7619000000000002,-121.8432 88.75695,-77.54214999999999 181.27685,-33.2405" speed="36.11111111111111" width="2.499975025875256"/>
	</edge>
	<edge from="17" function="normal" id="1506" length="205.16443818715288" numLanes="1" priority="1" speed="36.11111111111111" spreadType="center" to="18">
		<lane allow="moped bicycle pedestrian custom1 trailer evehicle rail_urban ship private truck vip custom2 authority delivery rail_electric taxi tram army hov coach motorcycle passenger bus rail emergency" index="0" length="205.16443818715288" shape="180.19715,-30.9857 87.67725,-75.28729999999999 -4.8474,-119.59135" speed="36.11111111111111" width="2.499468001395499"/>
	</edge>
	<edge from="19" function="normal" id="1507" length="89.75112791197955" numLanes="1" priority="1" speed="36.11111111111111" spreadType="center" to="20">
		<lane allow="moped bicycle pedestrian custom1 trailer evehicle rail_urban ship private truck vip custom2 authority delivery rail_electric taxi tram army hov coach motorcycle passenger bus rail emergency" index="0" length="89.75112791197955" shape="-12.30235,-131.49349999999998 6.35935,-172.3048 25.021,-213.11599999999999" speed="36.11111111111111" width="2.4921491708964836"/>
	</edge>
	<edge from="21" function="normal" id="1508" length="105.37501711716237" numLanes="1" priority="1" speed="36.11111111111111" spreadType="center" to="22">
		<lane allow="moped bicycle pedestrian custom1 trailer evehicle rail_urban ship private vip custom2 authority delivery rail_electric taxi tram army hov coach motorcycle passenger rail emergency" index="0" length="105.37501711716237" shape="-113.37195,-142.73309999999998 -112.49395,-141.50995 -101.90729999999999,-126.25455 -93.57585,-114.32130000000001 -87.2702,-105.8772 -81.58515,-98.85740000000001 -75.61330000000001,-92.08005 -69.0201,-85.19205 -60.01815,-76.45285 -54.0927,-71.03455 -44.8599,-63.320449999999994" speed="36.11111111111111" width="2.4995454966853465"/>
	</edge>
	<edge from="23" function="normal" id="1509" length="106.03301613718392" numLanes="1" priority="1" speed="36.11111111111111" spreadType="center" to="24">
		<lane allow="moped bicycle pedestrian custom1 trailer evehicle rail_urban ship private vip custom2 authority delivery rail_electric taxi tram army hov coach motorcycle passenger rail emergency" index="0" length="106.03301613718392" shape="-46.4392,-61.384249999999994 -55.736850000000004,-69.15164999999999 -61.71555,-74.61744999999999 -70.7753,-83.41194999999999 -77.42325,-90.3553 -83.44935,-97.1906 -89.1863,-104.26910000000001 -95.54115,-112.7727 -103.91305,-124.759 -114.5269,-140.055 -115.40180000000001,-141.27375" speed="36.11111111111111" width="2.4999766498909537"/>
	</edge>
	<edge from="25" function="normal" id="1510" length="84.6372382219251" numLanes="1" priority="1" speed="36.11111111111111" spreadType="center" to="26">
		<lane allow="moped bicycle pedestrian custom1 trailer evehicle rail_urban ship private vip custom2 authority delivery rail_electric taxi tram army hov coach motorcycle passenger rail emergency" index="0" length="84.6372382219251" shape="-90.6049,-175.57005 -87.41544999999999,-173.10655 -67.82245,-157.2784 -59.8401,-151.13185 -52.84335,-146.19490000000002 -46.47075,-142.13555000000002 -41.2013,-139.1747 -34.8761,-136.05675000000002 -20.114600000000003,-129.55525" speed="36.11111111111111" width="2.4978034130011073"/>
	</edge>
	<edge from="27" function="normal" id="1511" length="85.22107846907556" numLanes="1" priority="1" speed="36.11111111111111" spreadType="center" to="28">
		<lane allow="moped bicycle pedestrian custom1 trailer evehicle rail_urban ship private vip custom2 authority delivery rail_electric taxi tram army hov coach motorcycle passenger rail emergency" index="0" length="85.22107846907556" shape="-21.1361,-127.27435 -35.96165,-133.8048 -42.36225,-136.9611 -47.71,-139.96415000000002 -54.16065,-144.06865 -61.230000000000004,-149.05085 -69.2756,-155.23995000000002 -88.93745,-171.1232 -92.1271,-173.5869" speed="36.11111111111111" width="2.500042255642908"/>
	</edge>
	<edge from="12" function="normal" id="1512" length="11.862941586634927" numLanes="1" priority="1" speed="36.11111111111111" spreadType="center" to="23">
		<lane allow="moped bicycle pedestrian custom1 trailer evehicle rail_urban ship private vip custom2 authority delivery rail_electric taxi tram army hov coach motorcycle passenger rail emergency" index="0" length="11.862941586634927" shape="-36.9045,-64.47749999999999 -38.327349999999996,-62.422799999999995 -39.63935,-61.08575 -40.6709,-60.3819 -41.83575,-59.937200000000004 -43.077749999999995,-59.843599999999995 -44.295649999999995,-60.1104 -45.419200000000004,-60.654799999999994 -46.4392,-61.384249999999994" speed="36.11111111111111" width="2.4949101867602366"/>
	</edge>
	<edge from="18" function="normal" id="1513" length="18.00972617963476" numLanes="1" priority="1" speed="36.11111111111111" spreadType="center" to="27">
		<lane allow="moped bicycle pedestrian custom1 trailer evehicle rail_urban ship private truck vip custom2 authority delivery rail_electric taxi tram army hov coach motorcycle passenger bus rail emergency" index="0" length="18.00972617963476" shape="-4.8474,-119.59135 -12.9895,-123.43145 -21.1361,-127.27435" speed="36.11111111111111" width="2.499468001395499"/>
	</edge>
	<edge from="18" function="normal" id="1514" length="15.817868371721845" numLanes="1" priority="1" speed="36.11111111111111" spreadType="center" to="19">
		<lane allow="moped bicycle pedestrian custom1 trailer evehicle rail_urban ship private vip custom2 authority delivery rail_electric taxi tram army hov coach motorcycle passenger rail emergency" index="0" length="15.817868371721845" shape="-4.8474,-119.59135 -7.4267,-120.9759 -9.362649999999999,-122.30055 -10.68225,-123.46395000000001 -11.8103,-124.8123 -12.6289,-126.36565 -12.932549999999999,-127.49715 -13.00925,-128.66604999999998 -12.864,-129.8288 -12.30235,-131.49349999999998" speed="36.11111111111111" width="2.4921491708964836"/>
	</edge>
	<edge from="6" function="normal" id="1515" length="10.724483045405403" numLanes="1" priority="1" speed="36.11111111111111" spreadType="center" to="1">
		<lane allow="moped bicycle pedestrian custom1 trailer evehicle rail_urban ship private vip custom2 authority delivery rail_electric taxi tram army hov coach motorcycle passenger rail emergency" index="0" length="10.724483045405403" shape="-70.5914,-19.3442 -69.49395,-18.7192 -68.5488,-17.8845 -67.8666,-16.825850000000003 -67.54255,-15.6085 -67.55265,-14.34715 -68.00524999999999,-12.50955 -68.7733,-10.7769 -69.07395,-10.2207" speed="36.11111111111111" width="2.498219341851316"/>
	</edge>
	<edge from="4" function="normal" id="1516" length="13.176998301703762" numLanes="1" priority="1" speed="36.11111111111111" spreadType="center" to="1">
		<lane allow="moped bicycle pedestrian custom1 trailer evehicle rail_urban ship private vip custom2 authority delivery rail_electric taxi tram army hov coach motorcycle passenger rail emergency" index="0" length="13.176998301703762" shape="-62.317049999999995,-21.533250000000002 -68.8141,-10.679300000000001 -69.07395,-10.2207" speed="36.11111111111111" width="2.4986313253459347"/>
	</edge>
	<edge from="4" function="normal" id="1517" length="12.47933129846687" numLanes="1" priority="1" speed="36.11111111111111" spreadType="center" to="13">
		<lane allow="moped bicycle pedestrian custom1 trailer evehicle rail_urban ship private vip custom2 authority delivery rail_electric taxi tram army hov coach motorcycle passenger rail emergency" index="0" length="12.47933129846687" shape="-62.317049999999995,-21.533250000000002 -63.34085,-19.506700000000002 -63.86055,-17.8853 -64.07900000000001,-16.198 -63.9174,-14.50555 -63.35625,-12.90045 -62.45245,-11.4588 -61.303799999999995,-10.2018" speed="36.11111111111111" width="2.497246563717726"/>
	</edge>
	<edge from="12" function="normal" id="1518" length="13.121444356077953" numLanes="1" priority="1" speed="36.11111111111111" spreadType="center" to="3">
		<lane allow="moped bicycle pedestrian custom1 trailer evehicle rail_urban ship private truck vip custom2 authority delivery rail_electric taxi tram army hov coach motorcycle passenger bus rail emergency" index="0" length="13.121444356077953" shape="-36.9045,-64.47749999999999 -40.15105,-58.77635 -43.39765,-53.07525" speed="36.11111111111111" width="2.4949101867602366"/>
	</edge>
	<edge from="22" function="normal" id="1519" length="11.497771652679" numLanes="1" priority="1" speed="36.11111111111111" spreadType="center" to="3">
		<lane allow="moped bicycle pedestrian custom1 trailer evehicle rail_urban ship private vip custom2 authority delivery rail_electric taxi tram army hov coach motorcycle passenger rail emergency" index="0" length="11.497771652679" shape="-44.8599,-63.320449999999994 -43.60815,-62.117000000000004 -42.62205,-60.7059 -42.1714,-59.64955 -41.92845,-58.5273 -41.8986,-57.37925 -42.210449999999994,-55.68625 -42.84755,-54.085 -43.39765,-53.07525" speed="36.11111111111111" width="2.495666776635054"/>
	</edge>
	<edge from="26" function="normal" id="1520" length="18.08000312083128" numLanes="1" priority="1" speed="36.11111111111111" spreadType="center" to="15">
		<lane allow="moped bicycle pedestrian custom1 trailer evehicle rail_urban ship private truck vip custom2 authority delivery rail_electric taxi tram army hov coach motorcycle passenger bus rail emergency" index="0" length="18.08000312083128" shape="-20.114600000000003,-129.55525 -11.933150000000001,-125.69715 -3.7619000000000002,-121.8432" speed="36.11111111111111" width="2.4978034130011073"/>
	</edge>
	<edge from="10" function="normal" id="1521" length="13.81619007089072" numLanes="1" priority="1" speed="36.11111111111111" spreadType="center" to="23">
		<lane allow="moped bicycle pedestrian custom1 trailer evehicle rail_urban ship private vip custom2 authority delivery rail_electric taxi tram army hov coach motorcycle passenger rail emergency" index="0" length="13.81619007089072" shape="-34.63855,-54.2934 -37.786699999999996,-55.7256 -40.808099999999996,-57.3932 -43.694050000000004,-59.2857 -46.4392,-61.384249999999994" speed="36.11111111111111" width="2.498162214508897"/>
	</edge>
	<edge from="26" function="normal" id="1522" length="9.149248590404031" numLanes="1" priority="1" speed="36.11111111111111" spreadType="center" to="19">
		<lane allow="moped bicycle pedestrian custom1 trailer evehicle rail_urban ship private vip custom2 authority delivery rail_electric taxi tram army hov coach motorcycle passenger rail emergency" index="0" length="9.149248590404031" shape="-20.114600000000003,-129.55525 -18.39995,-128.9319 -17.20225,-128.68515 -15.981100000000001,-128.65295 -14.7917,-128.92355 -13.74045,-129.5396 -12.90945,-130.43290000000002 -12.30235,-131.49349999999998" speed="36.11111111111111" width="2.4921491708964836"/>
	</edge>
	<edge from="10" function="normal" id="1523" length="9.719037137006042" numLanes="1" priority="1" speed="36.11111111111111" spreadType="center" to="3">
		<lane allow="moped bicycle pedestrian custom1 trailer evehicle rail_urban ship private vip custom2 authority delivery rail_electric taxi tram army hov coach motorcycle passenger rail emergency" index="0" length="9.719037137006042" shape="-34.63855,-54.2934 -36.813,-55.02745 -38.5011,-55.328900000000004 -39.6442,-55.345349999999996 -40.769949999999994,-55.1524 -41.816649999999996,-54.6982 -42.706599999999995,-53.98455 -43.39765,-53.07525" speed="36.11111111111111" width="2.495666776635054"/>
	</edge>
	<edge from="12" function="normal" id="1524" length="10.11292500913185" numLanes="1" priority="1" speed="36.11111111111111" spreadType="center" to="7">
		<lane allow="moped bicycle pedestrian custom1 trailer evehicle rail_urban ship private vip custom2 authority delivery rail_electric taxi tram army hov coach motorcycle passenger rail emergency" index="0" length="10.11292500913185" shape="-36.9045,-64.47749999999999 -37.6963,-62.7581 -37.9335,-61.519400000000005 -37.9223,-60.888000000000005 -37.8048,-60.2679 -37.58315,-59.67675 -36.8738,-58.6359 -35.9256,-57.802350000000004 -34.28035,-56.8635 -33.686099999999996,-56.604" speed="36.11111111111111" width="2.4949101867602366"/>
	</edge>
	<edge from="26" function="normal" id="1525" length="18.347604396116033" numLanes="1" priority="1" speed="36.11111111111111" spreadType="center" to="11">
		<lane allow="moped bicycle pedestrian custom1 trailer evehicle rail_urban ship private vip custom2 authority delivery rail_electric taxi tram army hov coach motorcycle passenger rail emergency" index="0" length="18.347604396116033" shape="-20.114600000000003,-129.55525 -17.6604,-128.267 -15.852250000000002,-126.9699 -14.26025,-125.41615 -13.254100000000001,-124.08445 -12.4391,-122.628 -11.6734,-120.53970000000001 -11.26315,-118.35305 -11.1669,-116.12965 -11.2195,-115.01745" speed="36.11111111111111" width="2.4978034130011073"/>
	</edge>
	<edge from="6" function="normal" id="1526" length="13.129737724064618" numLanes="1" priority="1" speed="36.11111111111111" spreadType="center" to="13">
		<lane allow="moped bicycle pedestrian custom1 trailer evehicle rail_urban ship private vip custom2 authority delivery rail_electric taxi tram army hov coach motorcycle passenger rail emergency" index="0" length="13.129737724064618" shape="-70.5914,-19.3442 -69.2164,-18.5761 -67.56715,-17.27715 -65.76515,-15.3675 -62.408199999999994,-11.32615 -61.303799999999995,-10.2018" speed="36.11111111111111" width="2.497246563717726"/>
	</edge>
	<edge from="22" function="normal" id="1527" length="13.083541899283048" numLanes="1" priority="1" speed="36.11111111111111" spreadType="center" to="7">
		<lane allow="moped bicycle pedestrian custom1 trailer evehicle rail_urban ship private vip custom2 authority delivery rail_electric taxi tram army hov coach motorcycle passenger rail emergency" index="0" length="13.083541899283048" shape="-44.8599,-63.320449999999994 -42.2528,-61.3274 -39.522999999999996,-59.5366 -36.6679,-57.9602 -33.686099999999996,-56.604" speed="36.11111111111111" width="2.4995454966853465"/>
	</edge>
</edges>
