<!-- generated on 2020-12-18 17:02:06.728457 by ipykernel_launcher.py v1_2_0+5214-53edc58fcd
-->
<nodes>
	<node id="1" type="from" x="-69.07395" y="-10.2207"/>
	<node id="2" type="to" x="-122.38159999999999" y="89.91499999999999"/>
	<node id="3" type="from" x="-43.39765" y="-53.07525"/>
	<node id="4" type="to" x="-62.317049999999995" y="-21.533250000000002"/>
	<node id="5" type="from" x="-171.05845" y="-66.072"/>
	<node id="6" type="to" x="-70.5914" y="-19.3442"/>
	<node id="7" type="from" x="-33.686099999999996" y="-56.604"/>
	<node id="8" type="to" x="113.82454999999999" y="1.66285"/>
	<node id="9" type="from" x="112.96170000000001" y="4.00925"/>
	<node id="10" type="to" x="-34.63855" y="-54.2934"/>
	<node id="11" type="from" x="-11.2195" y="-115.01745"/>
	<node id="12" type="to" x="-36.9045" y="-64.47749999999999"/>
	<node id="13" type="from" x="-61.303799999999995" y="-10.2018"/>
	<node id="14" type="to" x="126.7167" y="103.24770000000001"/>
	<node id="15" type="from" x="-3.7619000000000002" y="-121.8432"/>
	<node id="16" type="to" x="181.27685" y="-33.2405"/>
	<node id="17" type="from" x="180.19715" y="-30.9857"/>
	<node id="18" type="to" x="-4.8474" y="-119.59135"/>
	<node id="19" type="from" x="-12.30235" y="-131.49349999999998"/>
	<node id="20" type="to" x="25.021" y="-213.11599999999999"/>
	<node id="21" type="from" x="-113.37195" y="-142.73309999999998"/>
	<node id="22" type="to" x="-44.8599" y="-63.320449999999994"/>
	<node id="23" type="from" x="-46.4392" y="-61.384249999999994"/>
	<node id="24" type="to" x="-115.40180000000001" y="-141.27375"/>
	<node id="25" type="from" x="-90.6049" y="-175.57005"/>
	<node id="26" type="to" x="-20.114600000000003" y="-129.55525"/>
	<node id="27" type="from" x="-21.1361" y="-127.27435"/>
	<node id="28" type="to" x="-92.1271" y="-173.5869"/>
</nodes>
