<routes>
	<vehicle depart="0.1" departLane="0" departPos="4.589180344762601" departSpeed="6.894072" id="312" type="bicycle">
		<route edges="94819"/>
	</vehicle>
	<vehicle depart="0.1" departLane="0" departPos="9.426747765084404" departSpeed="0.0" id="31" type="passenger">
		<route edges=":44_2 94697"/>
	</vehicle>
	<vehicle depart="0.1" departLane="0" departPos="62.39741073448254" departSpeed="0.0" id="32" type="passenger">
		<route edges="94820 94704"/>
	</vehicle>
	<vehicle depart="0.1" departLane="0" departPos="69.89806721372825" departSpeed="0.0" id="313" type="passenger">
		<route edges="94820 94704"/>
	</vehicle>
	<vehicle depart="0.1" departLane="0" departPos="25.484503105011527" departSpeed="9.2477526" id="332" type="passenger">
		<route edges=":47_1 94700 94697"/>
	</vehicle>
	<vehicle depart="0.1" departLane="0" departPos="19.9390378075441" departSpeed="9.7149771" id="336" type="passenger">
		<route edges=":48_2 94703 94700 94697"/>
	</vehicle>
	<vehicle depart="0.1" departLane="0" departPos="10.761209614361935" departSpeed="10.048159" id="339" type="passenger">
		<route edges="94711 94802"/>
	</vehicle>
	<vehicle depart="0.1" departLane="0" departPos="59.80220770171661" departSpeed="7.3516098" id="347" type="passenger">
		<route edges="94706 94703"/>
	</vehicle>
	<vehicle depart="0.1" departLane="0" departPos="12.96787297624132" departSpeed="4.5403251" id="343" type="motorcycle">
		<route edges=":48_2 94703 94819"/>
	</vehicle>
	<vehicle depart="0.1" departLane="0" departPos="4.677369580207339" departSpeed="4.853742" id="348" type="motorcycle">
		<route edges="94706 94711"/>
	</vehicle>
</routes>
