<routes>
	<vehicle depart="0.1" departLane="0" departPos="37.296938121364796" departSpeed="2.7445318" id="38" type="bicycle">
		<route edges="29881 29844"/>
	</vehicle>
	<vehicle depart="0.1" departLane="0" departPos="8.564437488388364" departSpeed="7.5414878" id="32" type="passenger">
		<route edges=":39_0 29844 29847"/>
	</vehicle>
	<vehicle depart="0.1" departLane="0" departPos="37.21450187000035" departSpeed="4.0141417" id="34" type="passenger">
		<route edges="29881 29844"/>
	</vehicle>
	<vehicle depart="0.1" departLane="0" departPos="18.772378869575036" departSpeed="2.92165" id="328" type="passenger">
		<route edges="29881 29844"/>
	</vehicle>
	<vehicle depart="0.1" departLane="0" departPos="9.117786447513243" departSpeed="3.0736879" id="336" type="passenger">
		<route edges="29881 29844"/>
	</vehicle>
	<vehicle depart="0.1" departLane="0" departPos="11.082316958933005" departSpeed="11.471279" id="342" type="passenger">
		<route edges=":39_2 29882"/>
	</vehicle>
</routes>
