<!-- generated on Tue Feb  9 22:11:09 2021 by Eclipse SUMO netconvert Version 1.8.0
<configuration xmlns:xsi="http://www.w3.org/2001/XMLSchema-instance" xsi:noNamespaceSchemaLocation="http://sumo.dlr.de/xsd/netconvertConfiguration.xsd">

    <input>
        <node-files value="./converted_scenarios/scenario-factory/DEU_Ibbenbueren-2_1_I-1-1/DEU_Ibbenbueren-2_1_I-1-1.nod.xml"/>
        <edge-files value="./converted_scenarios/scenario-factory/DEU_Ibbenbueren-2_1_I-1-1/DEU_Ibbenbueren-2_1_I-1-1.edg.xml"/>
        <connection-files value="./converted_scenarios/scenario-factory/DEU_Ibbenbueren-2_1_I-1-1/DEU_Ibbenbueren-2_1_I-1-1.con.xml"/>
        <tllogic-files value="./converted_scenarios/scenario-factory/DEU_Ibbenbueren-2_1_I-1-1/DEU_Ibbenbueren-2_1_I-1-1.tll.xml"/>
        <type-files value="/home/zen/commonroad-interactive-benchmarks/install/commonroad-map-tool/crmapconverter/sumo_map/templates/DEU.typ.xml"/>
    </input>

    <output>
        <output-file value="./converted_scenarios/scenario-factory/DEU_Ibbenbueren-2_1_I-1-1/DEU_Ibbenbueren-2_1_I-1-1.net.xml"/>
    </output>

    <processing>
        <geometry.remove.keep-edges.explicit value="true"/>
        <geometry.avoid-overlap value="true"/>
        <offset.disable-normalization value="true"/>
    </processing>

    <junctions>
        <no-turnarounds value="true"/>
        <junctions.internal-link-detail value="20"/>
    </junctions>

    <report>
        <aggregate-warnings value="5"/>
    </report>

    <random_number>
        <seed value="1234"/>
    </random_number>

</configuration>
--><net xmlns:xsi="http://www.w3.org/2001/XMLSchema-instance" version="1.6" junctionCornerDetail="5" junctionLinkDetail="20" limitTurnSpeed="5.50" xsi:noNamespaceSchemaLocation="http://sumo.dlr.de/xsd/net_file.xsd">

    <location netOffset="0.00,0.00" convBoundary="343.59,653.85,576.89,917.61" origBoundary="343.59,653.85,576.89,917.61" projParameter="!"/>

    <type id="highway.bridleway" priority="1" speed="2.78" allow="pedestrian" oneway="1" width="2.00"/>
    <type id="highway.bus_guideway" priority="1" speed="27.78" allow="bus" oneway="1"/>
    <type id="highway.cycleway" priority="1" speed="8.33" allow="bicycle" oneway="0" width="1.00"/>
    <type id="highway.footway" priority="1" speed="2.78" allow="pedestrian" oneway="1" width="2.00"/>
    <type id="highway.ford" priority="1" speed="2.78" allow="army" oneway="0"/>
    <type id="highway.living_street" priority="2" speed="2.78" disallow="tram rail_urban rail rail_electric rail_fast ship" oneway="0"/>
    <type id="highway.motorway" priority="14" speed="39.44" allow="private emergency authority army vip passenger hov taxi bus coach delivery truck trailer motorcycle evehicle custom1 custom2" oneway="1"/>
    <type id="highway.motorway_link" priority="9" speed="22.22" allow="private emergency authority army vip passenger hov taxi bus coach delivery truck trailer motorcycle evehicle custom1 custom2" oneway="1"/>
    <type id="highway.path" priority="1" speed="2.78" allow="pedestrian bicycle" oneway="0" width="2.00"/>
    <type id="highway.pedestrian" priority="1" speed="2.78" allow="pedestrian" oneway="1" width="2.00"/>
    <type id="highway.primary" priority="12" speed="27.78" disallow="pedestrian tram rail_urban rail rail_electric rail_fast ship" oneway="0"/>
    <type id="highway.primary_link" priority="7" speed="22.22" disallow="pedestrian tram rail_urban rail rail_electric rail_fast ship" oneway="0"/>
    <type id="highway.raceway" priority="15" speed="83.33" allow="vip" oneway="0"/>
    <type id="highway.residential" priority="3" speed="13.89" disallow="pedestrian tram rail_urban rail rail_electric rail_fast ship" oneway="0"/>
    <type id="highway.secondary" priority="11" speed="27.78" disallow="pedestrian tram rail_urban rail rail_electric rail_fast ship" oneway="0"/>
    <type id="highway.secondary_link" priority="6" speed="22.22" disallow="pedestrian tram rail_urban rail rail_electric rail_fast ship" oneway="0"/>
    <type id="highway.service" priority="1" speed="5.56" allow="pedestrian delivery bicycle" oneway="0"/>
    <type id="highway.stairs" priority="1" speed="1.39" allow="pedestrian" oneway="1" width="2.00"/>
    <type id="highway.step" priority="1" speed="1.39" allow="pedestrian" oneway="1" width="2.00"/>
    <type id="highway.steps" priority="1" speed="1.39" allow="pedestrian" oneway="1" width="2.00"/>
    <type id="highway.tertiary" priority="10" speed="22.22" disallow="pedestrian tram rail_urban rail rail_electric rail_fast ship" oneway="0"/>
    <type id="highway.tertiary_link" priority="5" speed="22.22" disallow="pedestrian tram rail_urban rail rail_electric rail_fast ship" oneway="0"/>
    <type id="highway.track" priority="1" speed="5.56" allow="pedestrian motorcycle moped bicycle" oneway="0"/>
    <type id="highway.trunk" priority="13" speed="27.78" disallow="pedestrian bicycle tram rail_urban rail rail_electric rail_fast ship" oneway="0"/>
    <type id="highway.trunk_link" priority="8" speed="22.22" disallow="pedestrian bicycle tram rail_urban rail rail_electric rail_fast ship" oneway="0"/>
    <type id="highway.unclassified" priority="4" speed="13.89" disallow="pedestrian tram rail_urban rail rail_electric rail_fast ship" oneway="0"/>
    <type id="highway.unsurfaced" priority="1" speed="8.33" disallow="tram rail_urban rail rail_electric rail_fast ship" oneway="0"/>
    <type id="railway.highspeed" priority="21" speed="69.44" allow="rail_fast" oneway="1"/>
    <type id="railway.light_rail" priority="19" speed="27.78" allow="rail_urban" oneway="1"/>
    <type id="railway.preserved" priority="16" speed="27.78" allow="rail" oneway="1"/>
    <type id="railway.rail" priority="20" speed="44.44" allow="rail" oneway="1"/>
    <type id="railway.subway" priority="18" speed="27.78" allow="rail_urban" oneway="1"/>
    <type id="railway.tram" priority="17" speed="13.89" allow="tram" oneway="1"/>

    <edge id=":37_0" function="internal">
        <lane id=":37_0_0" index="0" disallow="pedestrian tram rail_urban rail rail_electric rail_fast ship" speed="36.11" length="37.36" width="3.50" shape="511.10,736.03 503.71,739.29 497.37,742.45 491.19,745.92 485.21,749.70 480.27,753.22 478.70,754.42"/>
    </edge>
    <edge id=":37_1" function="internal">
        <lane id=":37_1_0" index="0" disallow="pedestrian tram rail_urban rail rail_electric rail_fast ship" speed="11.79" length="35.91" width="3.50" shape="511.10,736.03 507.21,737.44 504.54,738.14 501.81,738.57 499.05,738.67 497.67,738.57 496.31,738.34 494.97,737.98 493.68,737.48 492.46,736.84 491.31,736.08 490.25,735.19 489.28,734.20 488.41,733.13 487.63,731.99 486.33,729.55 485.31,726.98 484.53,724.33 484.22,722.99"/>
    </edge>
    <edge id=":37_2" function="internal">
        <lane id=":37_2_0" index="0" disallow="pedestrian tram rail_urban rail rail_electric rail_fast ship" speed="10.75" length="29.65" width="3.50" shape="487.64,722.24 487.91,723.39 488.58,725.68 489.44,727.85 490.54,729.89 491.16,730.79 491.85,731.64 492.62,732.42 493.44,733.10 494.34,733.69 495.29,734.17 496.29,734.55 497.33,734.83 498.42,735.01 499.49,735.09 501.80,735.00 504.10,734.62 506.37,734.03 509.78,732.79"/>
    </edge>
    <edge id=":37_3" function="internal">
        <lane id=":37_3_0" index="0" disallow="pedestrian tram rail_urban rail rail_electric rail_fast ship" speed="15.41" length="35.39" width="3.50" shape="487.64,722.24 488.27,725.64 488.68,729.09 488.82,732.59 488.64,736.10 488.08,739.59 487.46,741.91 486.64,744.15 485.61,746.32 484.37,748.37 482.94,750.30 481.32,752.09 478.70,754.42"/>
    </edge>
    <edge id=":37_4" function="internal">
        <lane id=":37_4_0" index="0" disallow="pedestrian tram rail_urban rail rail_electric rail_fast ship" speed="14.56" length="31.53" width="3.50" shape="476.48,751.71 478.86,749.60 480.26,748.03 481.50,746.34 482.58,744.53 483.47,742.63 484.17,740.65 484.70,738.62 485.18,735.51 485.32,732.36 485.18,729.21 484.80,726.08 484.22,722.99"/>
    </edge>
    <edge id=":37_5" function="internal">
        <lane id=":37_5_0" index="0" disallow="pedestrian tram rail_urban rail rail_electric rail_fast ship" speed="36.11" length="38.41" width="3.50" shape="476.48,751.71 478.17,750.42 483.24,746.81 489.38,742.92 495.71,739.37 502.20,736.14 509.78,732.79"/>
    </edge>
    <edge id=":38_0" function="internal">
        <lane id=":38_0_0" index="0" disallow="pedestrian tram rail_urban rail rail_electric rail_fast ship" speed="11.17" length="28.33" width="3.50" shape="404.98,849.72 402.61,847.50 400.88,846.17 399.03,845.02 397.05,844.11 396.01,843.76 394.96,843.49 393.88,843.30 392.79,843.21 391.70,843.22 390.62,843.32 389.54,843.51 387.46,844.14 385.47,845.05 383.61,846.19 381.87,847.49 380.23,848.94"/>
    </edge>
    <edge id=":38_1" function="internal">
        <lane id=":38_1_0" index="0" disallow="pedestrian tram rail_urban rail rail_electric rail_fast ship" speed="12.23" length="34.09" width="3.50" shape="404.98,849.72 403.30,847.85 401.73,845.81 400.35,843.62 399.20,841.25 398.38,838.74 398.10,837.39 397.94,836.04 397.90,834.68 397.97,833.32 398.16,831.98 398.46,830.67 398.87,829.36 399.92,826.95 401.25,824.70 402.79,822.61 405.33,819.82"/>
    </edge>
    <edge id=":38_2" function="internal">
        <lane id=":38_2_0" index="0" disallow="pedestrian tram rail_urban rail rail_electric rail_fast ship" speed="11.23" length="28.59" width="3.50" shape="407.81,822.29 405.59,824.73 404.28,826.50 403.16,828.39 402.28,830.41 401.96,831.46 401.71,832.54 401.56,833.63 401.50,834.73 401.53,835.83 401.66,836.92 401.88,838.00 402.57,840.09 403.53,842.07 404.70,843.93 406.05,845.68 407.50,847.29"/>
    </edge>
    <edge id=":38_3" function="internal">
        <lane id=":38_3_0" index="0" disallow="pedestrian tram rail_urban rail rail_electric rail_fast ship" speed="36.11" length="38.35" width="3.50" shape="407.81,822.29 389.99,839.65 380.23,848.94"/>
    </edge>
    <edge id=":38_4" function="internal">
        <lane id=":38_4_0" index="0" disallow="pedestrian tram rail_urban rail rail_electric rail_fast ship" speed="36.11" length="38.24" width="3.50" shape="377.83,846.39 387.57,837.12 405.33,819.82"/>
    </edge>
    <edge id=":38_5" function="internal">
        <lane id=":38_5_0" index="0" disallow="pedestrian tram rail_urban rail rail_electric rail_fast ship" speed="12.18" length="33.87" width="3.50" shape="377.83,846.39 379.73,844.72 381.77,843.19 383.97,841.85 386.35,840.75 388.86,839.99 390.21,839.74 391.55,839.62 392.91,839.61 394.25,839.72 395.58,839.95 396.88,840.28 398.16,840.71 400.52,841.80 402.73,843.17 404.77,844.73 407.50,847.29"/>
    </edge>
    <edge id=":39_0" function="internal">
        <lane id=":39_0_0" index="0" disallow="pedestrian tram rail_urban rail rail_electric rail_fast ship" speed="11.11" length="28.37" width="3.50" shape="455.12,800.10 452.71,797.88 450.97,796.57 449.10,795.45 447.10,794.57 446.06,794.24 445.00,794.00 443.91,793.85 442.83,793.79 441.74,793.83 440.65,793.97 439.59,794.19 437.52,794.89 435.57,795.87 433.74,797.06 432.03,798.42 430.43,799.90"/>
    </edge>
    <edge id=":39_1" function="internal">
        <lane id=":39_1_0" index="0" disallow="pedestrian tram rail_urban rail rail_electric rail_fast ship" speed="12.15" length="34.31" width="3.50" shape="455.11,800.10 452.51,797.13 450.98,794.97 449.70,792.67 448.71,790.22 448.36,788.95 448.12,787.65 447.98,786.34 447.96,785.02 448.06,783.70 448.27,782.40 448.59,781.12 449.52,778.65 450.77,776.32 452.26,774.15 453.95,772.12 455.79,770.22"/>
    </edge>
    <edge id=":39_2" function="internal">
        <lane id=":39_2_0" index="0" disallow="pedestrian tram rail_urban rail rail_electric rail_fast ship" speed="11.15" length="28.73" width="3.50" shape="458.24,772.73 456.63,774.39 455.17,776.14 453.89,777.99 452.84,779.93 452.06,781.99 451.82,783.00 451.64,784.04 451.56,785.10 451.58,786.15 451.69,787.21 451.89,788.25 452.16,789.26 452.98,791.31 454.06,793.24 455.35,795.07 457.62,797.66"/>
    </edge>
    <edge id=":39_3" function="internal">
        <lane id=":39_3_0" index="0" disallow="pedestrian tram rail_urban rail rail_electric rail_fast ship" speed="36.11" length="38.88" width="3.50" shape="458.24,772.73 457.49,773.45 430.43,799.90"/>
    </edge>
    <edge id=":39_4" function="internal">
        <lane id=":39_4_0" index="0" disallow="pedestrian tram rail_urban rail rail_electric rail_fast ship" speed="36.11" length="38.91" width="3.50" shape="427.97,797.42 455.05,770.94 455.79,770.22"/>
    </edge>
    <edge id=":39_5" function="internal">
        <lane id=":39_5_0" index="0" disallow="pedestrian tram rail_urban rail rail_electric rail_fast ship" speed="12.12" length="33.97" width="3.50" shape="427.97,797.41 429.83,795.70 431.82,794.11 433.99,792.70 436.33,791.53 438.81,790.69 440.16,790.40 441.50,790.23 442.86,790.18 444.21,790.25 445.55,790.44 446.86,790.74 448.16,791.16 450.55,792.21 452.78,793.54 454.84,795.09 457.62,797.66"/>
    </edge>
    <edge id=":40_0" function="internal">
        <lane id=":40_0_0" index="0" disallow="pedestrian tram rail_urban rail rail_electric rail_fast ship" speed="11.43" length="28.78" width="3.50" shape="459.51,904.94 456.97,902.80 455.13,901.56 453.18,900.51 451.12,899.72 448.96,899.22 447.86,899.11 446.75,899.08 445.64,899.14 444.55,899.30 442.41,899.86 440.37,900.72 438.44,901.81 436.63,903.09 434.13,905.27"/>
    </edge>
    <edge id=":40_1" function="internal">
        <lane id=":40_1_0" index="0" disallow="pedestrian tram rail_urban rail rail_electric rail_fast ship" speed="36.11" length="38.50" width="3.50" shape="459.51,904.94 447.49,893.44 435.74,881.66 432.10,877.91"/>
    </edge>
    <edge id=":40_2" function="internal">
        <lane id=":40_2_0" index="0" disallow="pedestrian tram rail_urban rail rail_electric rail_fast ship" speed="36.11" length="38.29" width="3.50" shape="434.62,875.48 438.24,879.21 449.94,890.94 461.88,902.37"/>
    </edge>
    <edge id=":40_3" function="internal">
        <lane id=":40_3_0" index="0" disallow="pedestrian tram rail_urban rail rail_electric rail_fast ship" speed="12.19" length="34.17" width="3.50" shape="434.63,875.48 437.23,878.48 438.74,880.63 440.02,882.92 441.01,885.35 441.37,886.62 441.63,887.90 441.78,889.21 441.82,890.52 441.74,891.83 441.54,893.13 441.24,894.41 440.34,896.88 439.12,899.20 437.63,901.37 435.95,903.39 434.13,905.27"/>
    </edge>
    <edge id=":40_4" function="internal">
        <lane id=":40_4_0" index="0" disallow="pedestrian tram rail_urban rail rail_electric rail_fast ship" speed="11.18" length="28.60" width="3.50" shape="431.70,902.76 433.29,901.12 434.73,899.38 435.99,897.54 437.01,895.61 437.76,893.55 437.99,892.55 438.15,891.51 438.21,890.46 438.18,889.41 438.06,888.36 437.85,887.32 437.57,886.32 436.74,884.27 435.66,882.35 434.38,880.52 432.10,877.91"/>
    </edge>
    <edge id=":40_5" function="internal">
        <lane id=":40_5_0" index="0" disallow="pedestrian tram rail_urban rail rail_electric rail_fast ship" speed="12.42" length="34.15" width="3.50" shape="431.70,902.76 434.58,900.25 436.70,898.75 438.97,897.46 441.42,896.44 443.98,895.76 445.35,895.57 446.71,895.49 448.06,895.52 449.44,895.67 452.03,896.27 454.50,897.23 456.82,898.47 458.97,899.93 461.88,902.37"/>
    </edge>

    <edge id="29383" from="40" to="32" priority="3" type="highway.residential" spreadType="center" length="9.06" shape="443.14,893.24 468.50,908.55">
        <lane id="29383_0" index="0" disallow="pedestrian tram rail_urban rail rail_electric rail_fast ship" speed="36.11" length="9.06" width="3.50" customShape="1" shape="461.88,902.37 465.20,905.47 468.50,908.55"/>
    </edge>
    <edge id="29384" from="36" to="40" priority="3" type="highway.residential" spreadType="center" length="9.06" shape="466.11,911.11 441.34,896.23">
        <lane id="29384_0" index="0" disallow="pedestrian tram rail_urban rail rail_electric rail_fast ship" speed="36.11" length="9.06" width="3.50" customShape="1" shape="466.11,911.11 462.81,908.02 459.49,904.92"/>
    </edge>
    <edge id="29386" from="38" to="40" priority="3" type="highway.residential" spreadType="center" length="39.15" shape="398.64,837.97 443.72,893.72">
        <lane id="29386_0" index="0" disallow="pedestrian tram rail_urban rail rail_electric rail_fast ship" speed="36.11" length="39.15" width="3.50" customShape="1" shape="407.50,847.29 421.08,861.41 434.64,875.50"/>
    </edge>
    <edge id="29387" from="40" to="38" priority="3" type="highway.residential" spreadType="center" length="39.12" shape="441.00,895.92 395.92,840.17">
        <lane id="29387_0" index="0" disallow="pedestrian tram rail_urban rail rail_electric rail_fast ship" speed="36.11" length="39.12" width="3.50" customShape="1" shape="432.10,877.91 418.56,863.84 404.97,849.72"/>
    </edge>
    <edge id="29448" from="35" to="40" priority="3" type="highway.residential" spreadType="center" length="17.79" shape="418.91,915.10 441.18,893.47">
        <lane id="29448_0" index="0" disallow="pedestrian tram rail_urban rail rail_electric rail_fast ship" speed="36.11" length="17.79" width="3.50" customShape="1" shape="418.91,915.10 425.30,908.93 431.71,902.75"/>
    </edge>
    <edge id="29449" from="40" to="30" priority="3" type="highway.residential" spreadType="center" length="17.77" shape="443.62,895.97 421.34,917.61">
        <lane id="29449_0" index="0" disallow="pedestrian tram rail_urban rail rail_electric rail_fast ship" speed="36.11" length="17.77" width="3.50" customShape="1" shape="434.13,905.27 427.73,911.44 421.34,917.61"/>
    </edge>
    <edge id="29731" from="28" to="37" priority="3" type="highway.residential" spreadType="center" length="70.00" shape="472.74,653.85 493.03,736.31">
        <lane id="29731_0" index="0" disallow="pedestrian tram rail_urban rail rail_electric rail_fast ship" speed="36.11" length="70.00" width="3.50" customShape="1" shape="472.74,653.85 479.69,685.77 487.64,722.25"/>
    </edge>
    <edge id="29732" from="37" to="20" priority="3" type="highway.residential" spreadType="center" length="70.00" shape="489.64,737.15 469.32,654.59">
        <lane id="29732_0" index="0" disallow="pedestrian tram rail_urban rail rail_electric rail_fast ship" speed="36.11" length="70.00" width="3.50" customShape="1" shape="484.22,722.99 476.27,686.52 469.32,654.59"/>
    </edge>
    <edge id="29837" from="37" to="18" priority="3" type="highway.residential" spreadType="center" length="70.01" shape="490.78,735.03 575.57,708.89">
        <lane id="29837_0" index="0" disallow="pedestrian tram rail_urban rail rail_electric rail_fast ship" speed="36.11" length="70.01" width="3.50" customShape="1" shape="509.78,732.79 519.09,729.10 536.91,722.37 558.15,714.80 575.57,708.89"/>
    </edge>
    <edge id="29838" from="29" to="37" priority="3" type="highway.residential" spreadType="center" length="70.03" shape="576.89,712.13 491.81,738.37">
        <lane id="29838_0" index="0" disallow="pedestrian tram rail_urban rail rail_electric rail_fast ship" speed="36.11" length="70.03" width="3.50" customShape="1" shape="576.89,712.13 559.64,717.99 538.31,725.58 520.44,732.33 511.08,736.04"/>
    </edge>
    <edge id="29840" from="39" to="37" priority="3" type="highway.residential" spreadType="center" length="27.81" shape="446.15,788.59 489.98,735.58">
        <lane id="29840_0" index="0" disallow="pedestrian tram rail_urban rail rail_electric rail_fast ship" speed="36.11" length="27.81" width="3.50" customShape="1" shape="455.79,770.22 463.25,763.13 470.93,756.26 476.51,751.69"/>
    </edge>
    <edge id="29841" from="37" to="39" priority="3" type="highway.residential" spreadType="center" length="27.52" shape="492.67,737.81 448.85,790.82">
        <lane id="29841_0" index="0" disallow="pedestrian tram rail_urban rail rail_electric rail_fast ship" speed="36.11" length="27.52" width="3.50" customShape="1" shape="478.70,754.42 473.18,758.94 465.61,765.72 458.20,772.76"/>
    </edge>
    <edge id="29843" from="38" to="39" priority="3" type="highway.residential" spreadType="center" length="31.87" shape="396.05,837.82 446.33,788.39">
        <lane id="29843_0" index="0" disallow="pedestrian tram rail_urban rail rail_electric rail_fast ship" speed="36.11" length="31.87" width="3.50" customShape="1" shape="405.33,819.82 416.66,808.61 427.98,797.40"/>
    </edge>
    <edge id="29844" from="39" to="38" priority="3" type="highway.residential" spreadType="center" length="31.85" shape="448.79,790.89 398.51,840.32">
        <lane id="29844_0" index="0" disallow="pedestrian tram rail_urban rail rail_electric rail_fast ship" speed="36.11" length="31.85" width="3.50" customShape="1" shape="430.43,799.90 419.12,811.09 407.79,822.30"/>
    </edge>
    <edge id="29846" from="31" to="38" priority="3" type="highway.residential" spreadType="center" length="47.07" shape="343.59,878.67 396.24,837.66">
        <lane id="29846_0" index="0" disallow="pedestrian tram rail_urban rail rail_electric rail_fast ship" speed="36.11" length="47.07" width="3.50" customShape="1" shape="343.59,878.67 360.71,862.53 377.84,846.38"/>
    </edge>
    <edge id="29847" from="38" to="22" priority="3" type="highway.residential" spreadType="center" length="47.07" shape="398.39,840.42 345.98,881.23">
        <lane id="29847_0" index="0" disallow="pedestrian tram rail_urban rail rail_electric rail_fast ship" speed="36.11" length="47.07" width="3.50" customShape="1" shape="380.23,848.94 363.11,865.08 345.98,881.23"/>
    </edge>
    <edge id="29881" from="10" to="39" priority="3" type="highway.residential" spreadType="center" length="40.55" shape="483.42,829.13 446.24,790.85">
        <lane id="29881_0" index="0" disallow="pedestrian tram rail_urban rail rail_electric rail_fast ship" speed="36.11" length="40.55" width="3.50" customShape="1" shape="483.42,829.13 469.27,814.62 455.11,800.10"/>
    </edge>
    <edge id="29882" from="39" to="6" priority="3" type="highway.residential" spreadType="center" length="40.53" shape="448.74,788.41 485.92,826.68">
        <lane id="29882_0" index="0" disallow="pedestrian tram rail_urban rail rail_electric rail_fast ship" speed="36.11" length="40.53" width="3.50" customShape="1" shape="457.62,797.66 471.77,812.17 485.92,826.68"/>
    </edge>

    <junction id="10" type="dead_end" x="483.42" y="829.13" incLanes="" intLanes="" shape="484.67,827.91 482.16,830.35" rightOfWay="edgePriority"/>
    <junction id="18" type="dead_end" x="575.57" y="708.89" incLanes="29837_0" intLanes="" shape="575.00,707.23 576.13,710.54" rightOfWay="edgePriority"/>
    <junction id="20" type="dead_end" x="469.32" y="654.59" incLanes="29732_0" intLanes="" shape="467.61,654.96 471.03,654.22" rightOfWay="edgePriority"/>
    <junction id="22" type="dead_end" x="345.98" y="881.23" incLanes="29847_0" intLanes="" shape="347.18,882.51 344.78,879.96" rightOfWay="edgePriority"/>
    <junction id="28" type="dead_end" x="472.74" y="653.85" incLanes="" intLanes="" shape="471.03,654.23 474.45,653.48" rightOfWay="edgePriority"/>
    <junction id="29" type="dead_end" x="576.89" y="712.13" incLanes="" intLanes="" shape="576.32,710.48 577.45,713.79" rightOfWay="edgePriority"/>
    <junction id="30" type="dead_end" x="421.34" y="917.61" incLanes="29449_0" intLanes="" shape="422.56,918.87 420.13,916.36" rightOfWay="edgePriority"/>
    <junction id="31" type="dead_end" x="343.59" y="878.67" incLanes="" intLanes="" shape="344.79,879.95 342.39,877.40" rightOfWay="edgePriority"/>
    <junction id="32" type="dead_end" x="468.50" y="908.55" incLanes="29383_0" intLanes="" shape="469.69,907.28 467.30,909.83" rightOfWay="edgePriority"/>
    <junction id="35" type="dead_end" x="418.91" y="915.10" incLanes="" intLanes="" shape="420.13,916.36 417.70,913.84" rightOfWay="edgePriority"/>
    <junction id="36" type="dead_end" x="466.11" y="911.11" incLanes="" intLanes="" shape="467.30,909.83 464.91,912.38" rightOfWay="edgePriority"/>
    <junction id="37" type="priority" x="491.33" y="736.69" incLanes="29838_0 29731_0 29840_0" intLanes=":37_0_0 :37_1_0 :37_2_0 :37_3_0 :37_4_0 :37_5_0" shape="511.72,737.67 509.14,731.16 504.05,732.71 499.67,733.02 496.01,732.09 493.07,729.92 490.85,726.51 489.34,721.87 482.51,723.36 483.39,729.10 483.45,734.34 482.68,739.08 481.07,743.33 478.64,747.09 475.37,750.36 479.81,755.77 485.92,750.86 490.60,747.41 494.69,744.89 499.02,742.78 504.42,740.55">
        <request index="0" response="000000" foes="001000" cont="0"/>
        <request index="1" response="110000" foes="111000" cont="0"/>
        <request index="2" response="100000" foes="100000" cont="0"/>
        <request index="3" response="100011" foes="100011" cont="0"/>
        <request index="4" response="000000" foes="000010" cont="0"/>
        <request index="5" response="000000" foes="001110" cont="0"/>
    </junction>
    <junction id="38" type="priority" x="397.28" y="839.07" incLanes="29387_0 29844_0 29846_0" intLanes=":38_0_0 :38_1_0 :38_2_0 :38_3_0 :38_4_0 :38_5_0" shape="403.71,850.93 408.76,846.08 405.72,842.28 403.91,838.51 403.34,834.74 404.00,831.00 405.89,827.26 409.02,823.55 404.10,818.57 376.63,845.12 381.43,850.21 385.19,847.26 388.94,845.54 392.66,845.05 396.36,845.79 400.05,847.74">
        <request index="0" response="001000" foes="001000" cont="0"/>
        <request index="1" response="111000" foes="111000" cont="0"/>
        <request index="2" response="000000" foes="100000" cont="0"/>
        <request index="3" response="000000" foes="100011" cont="0"/>
        <request index="4" response="000000" foes="000010" cont="0"/>
        <request index="5" response="001100" foes="001110" cont="0"/>
    </junction>
    <junction id="39" type="priority" x="447.53" y="789.67" incLanes="29881_0 29841_0 29843_0" intLanes=":39_0_0 :39_1_0 :39_2_0 :39_3_0 :39_4_0 :39_5_0" shape="453.86,801.32 458.87,796.44 455.81,792.66 454.01,788.90 453.47,785.16 454.19,781.43 456.17,777.72 459.41,774.03 454.58,768.96 426.74,796.17 431.66,801.15 435.39,798.07 439.11,796.24 442.82,795.64 446.51,796.29 450.19,798.19">
        <request index="0" response="001000" foes="001000" cont="0"/>
        <request index="1" response="111000" foes="111000" cont="0"/>
        <request index="2" response="000000" foes="100000" cont="0"/>
        <request index="3" response="000000" foes="100011" cont="0"/>
        <request index="4" response="000000" foes="000010" cont="0"/>
        <request index="5" response="001100" foes="001110" cont="0"/>
    </junction>
    <junction id="40" type="priority" x="442.33" y="894.79" incLanes="29384_0 29386_0 29448_0" intLanes=":40_0_0 :40_1_0 :40_2_0 :40_3_0 :40_4_0 :40_5_0" shape="458.30,906.20 463.08,901.09 435.89,874.27 430.84,879.12 433.89,882.91 435.69,886.68 436.25,890.43 435.57,894.14 433.65,897.83 430.48,901.50 435.34,906.53 439.17,903.45 442.99,901.57 446.82,900.91 450.64,901.46 454.47,903.22">
        <request index="0" response="000000" foes="001000" cont="0"/>
        <request index="1" response="000000" foes="111000" cont="0"/>
        <request index="2" response="000000" foes="100000" cont="0"/>
        <request index="3" response="000011" foes="100011" cont="0"/>
        <request index="4" response="000010" foes="000010" cont="0"/>
        <request index="5" response="001110" foes="001110" cont="0"/>
    </junction>
    <junction id="6" type="dead_end" x="485.92" y="826.68" incLanes="29882_0" intLanes="" shape="487.17,825.46 484.67,827.91" rightOfWay="edgePriority"/>

    <connection from="29384" to="29449" fromLane="0" toLane="0" contPos="-4.00" shape="459.51,904.94 456.97,902.80 455.13,901.56 453.18,900.51 451.12,899.72 448.96,899.22 447.86,899.11 446.75,899.08 445.64,899.14 444.55,899.30 442.41,899.86 440.37,900.72 438.44,901.81 436.63,903.09 434.13,905.27" via=":40_0_0" dir="r" state="M"/>
    <connection from="29384" to="29387" fromLane="0" toLane="0" contPos="-4.00" shape="459.51,904.94 447.49,893.44 435.74,881.66 432.10,877.91" via=":40_1_0" dir="s" state="M"/>
    <connection from="29386" to="29383" fromLane="0" toLane="0" contPos="-4.00" shape="434.64,875.50 438.24,879.21 449.94,890.94 461.88,902.37" via=":40_2_0" dir="s" state="M"/>
    <connection from="29386" to="29449" fromLane="0" toLane="0" contPos="-4.00" shape="434.64,875.50 437.23,878.48 438.74,880.63 440.02,882.92 441.01,885.35 441.37,886.62 441.63,887.90 441.78,889.21 441.82,890.52 441.74,891.83 441.54,893.13 441.24,894.41 440.34,896.88 439.12,899.20 437.63,901.37 435.95,903.39 434.13,905.27" via=":40_3_0" dir="l" state="m"/>
    <connection from="29387" to="29847" fromLane="0" toLane="0" contPos="-4.00" shape="404.98,849.72 402.61,847.50 400.88,846.17 399.03,845.02 397.05,844.11 396.01,843.76 394.96,843.49 393.88,843.30 392.79,843.21 391.70,843.22 390.62,843.32 389.54,843.51 387.46,844.14 385.47,845.05 383.61,846.19 381.87,847.49 380.23,848.94" via=":38_0_0" dir="r" state="m"/>
    <connection from="29387" to="29843" fromLane="0" toLane="0" contPos="-4.00" shape="404.98,849.72 403.30,847.85 401.73,845.81 400.35,843.62 399.20,841.25 398.38,838.74 398.10,837.39 397.94,836.04 397.90,834.68 397.97,833.32 398.16,831.98 398.46,830.67 398.87,829.36 399.92,826.95 401.25,824.70 402.79,822.61 405.33,819.82" via=":38_1_0" dir="l" state="m"/>
    <connection from="29448" to="29387" fromLane="0" toLane="0" contPos="-4.00" shape="431.71,902.75 433.29,901.12 434.73,899.38 435.99,897.54 437.01,895.61 437.76,893.55 437.99,892.55 438.15,891.51 438.21,890.46 438.18,889.41 438.06,888.36 437.85,887.32 437.57,886.32 436.74,884.27 435.66,882.35 434.38,880.52 432.10,877.91" via=":40_4_0" dir="r" state="m"/>
    <connection from="29448" to="29383" fromLane="0" toLane="0" contPos="-4.00" shape="431.71,902.75 434.58,900.25 436.70,898.75 438.97,897.46 441.42,896.44 443.98,895.76 445.35,895.57 446.71,895.49 448.06,895.52 449.44,895.67 452.03,896.27 454.50,897.23 456.82,898.47 458.97,899.93 461.88,902.37" via=":40_5_0" dir="l" state="m"/>