<routes>
	<vehicle depart="0.1" departLane="0" departPos="38.37115293722526" departSpeed="0.69850829" id="3109" type="bus">
		<route edges="45087 44892"/>
	</vehicle>
	<vehicle depart="0.1" departLane="0" departPos="6.160330566985219" departSpeed="5.0815374" id="396" type="passenger">
		<route edges="44892 44756"/>
	</vehicle>
	<vehicle depart="0.1" departLane="0" departPos="15.048588493066012" departSpeed="6.732704" id="3101" type="passenger">
		<route edges=":114_0 44892"/>
	</vehicle>
</routes>
