<routes>
	<vehicle depart="0.1" departLane="0" departPos="2.5" departSpeed="0.0" id="31" type="passenger">
		<route edges="53153 53199"/>
	</vehicle>
	<vehicle depart="0.1" departLane="0" departPos="5.370445892323705" departSpeed="0.018474569" id="36" type="passenger">
		<route edges=":35_2 53201"/>
	</vehicle>
	<vehicle depart="0.1" departLane="0" departPos="12.859063570192724" departSpeed="0.00019740359" id="37" type="passenger">
		<route edges=":35_2 53201"/>
	</vehicle>
	<vehicle depart="0.1" departLane="0" departPos="22.11985872494204" departSpeed="2.7133254" id="313" type="passenger">
		<route edges="53180 53201"/>
	</vehicle>
	<vehicle depart="0.1" departLane="0" departPos="2.5" departSpeed="1.0329797" id="317" type="passenger">
		<route edges=":35_1 53178"/>
	</vehicle>
	<vehicle depart="0.1" departLane="0" departPos="2.5" departSpeed="0.95454472" id="335" type="passenger">
		<route edges=":37_0 53199"/>
	</vehicle>
	<vehicle depart="0.1" departLane="0" departPos="14.108624436835267" departSpeed="7.3750146" id="336" type="passenger">
		<route edges=":35_0 53178 53463"/>
	</vehicle>
	<vehicle depart="0.1" departLane="0" departPos="12.507686141649941" departSpeed="0.14851073" id="323" type="motorcycle">
		<route edges=":37_0 53199"/>
	</vehicle>
	<vehicle depart="0.1" departLane="0" departPos="22.81870453844387" departSpeed="0.0" id="30" type="truck">
		<route edges=":35_2 53201"/>
	</vehicle>
</routes>
