<routes>
	<vehicle depart="0.1" departLane="0" departPos="20.95841878471436" departSpeed="0.0" id="38" type="bicycle">
		<route edges="38439 38383"/>
	</vehicle>
	<vehicle depart="0.1" departLane="0" departPos="22.620719764017863" departSpeed="5.189274" id="32" type="passenger">
		<route edges=":54_0 38386 38440"/>
	</vehicle>
	<vehicle depart="0.1" departLane="0" departPos="19.4579083971177" departSpeed="0.0" id="315" type="passenger">
		<route edges="38439 38383"/>
	</vehicle>
	<vehicle depart="0.1" departLane="0" departPos="40.233244894586186" departSpeed="0.0" id="319" type="passenger">
		<route edges="38413 38390"/>
	</vehicle>
	<vehicle depart="0.1" departLane="0" departPos="17.225297392047196" departSpeed="6.419075" id="337" type="passenger">
		<route edges=":54_5 38412"/>
	</vehicle>
	<vehicle depart="0.1" departLane="0" departPos="5.458358034365481" departSpeed="0.0" id="338" type="passenger">
		<route edges="38387 38412"/>
	</vehicle>
	<vehicle depart="0.1" departLane="0" departPos="49.17557689596252" departSpeed="4.2052776" id="351" type="passenger">
		<route edges="38384 38440"/>
	</vehicle>
	<vehicle depart="0.1" departLane="0" departPos="26.675823189526117" departSpeed="6.9267545" id="354" type="passenger">
		<route edges="38384 38440"/>
	</vehicle>
	<vehicle depart="0.1" departLane="0" departPos="29.45877655760129" departSpeed="0.0" id="321" type="truck">
		<route edges="38439 38383"/>
	</vehicle>
	<vehicle depart="0.1" departLane="0" departPos="63.129964442497474" departSpeed="3.1646031" id="348" type="truck">
		<route edges="38384 38440"/>
	</vehicle>
</routes>
