<routes>
	<vehicle depart="0.1" departLane="0" departPos="20.544814650622687" departSpeed="1.687453" id="37" type="bicycle">
		<route edges=":131_1 63841"/>
	</vehicle>
	<vehicle depart="0.1" departLane="0" departPos="3.8357066489014726" departSpeed="0.6751058" id="330" type="bicycle">
		<route edges="64205 64208"/>
	</vehicle>
	<vehicle depart="0.1" departLane="0" departPos="35.773342430618406" departSpeed="8.7159228" id="34" type="passenger">
		<route edges=":134_1 64205 63841 63844"/>
	</vehicle>
	<vehicle depart="0.1" departLane="0" departPos="14.593748443888812" departSpeed="9.3120586" id="324" type="passenger">
		<route edges=":131_9 63841 63844"/>
	</vehicle>
	<vehicle depart="0.1" departLane="0" departPos="16.014914791367353" departSpeed="0.99578868" id="349" type="passenger">
		<route edges=":131_2 64204"/>
	</vehicle>
	<vehicle depart="0.1" departLane="0" departPos="11.71096262604745" departSpeed="2.3498481" id="357" type="passenger">
		<route edges=":131_5 63841"/>
	</vehicle>
	<vehicle depart="0.1" departLane="0" departPos="14.489753966964026" departSpeed="6.5400188" id="369" type="passenger">
		<route edges=":134_0 64205 64208"/>
	</vehicle>
	<vehicle depart="0.1" departLane="0" departPos="4.677785371885541" departSpeed="2.0162799" id="395" type="passenger">
		<route edges=":134_0 64205"/>
	</vehicle>
</routes>
