<additional>
	<vTypeDistribution id="DEFAULT_VEHTYPE">
		<vType accel="1.2" decel="3" guiShape="bicycle" id="bicycle" impatience="0.00" lcCooperative="1.00" lcImpatience="0.00" lcSpeedGain="3.00" lcStrategic="10.00" length="2.0" maxSpeed="6.944444444444445" minGap="1.0" probability="0.25" sigma="0.50" speedDev="0.10" speedFactor="0.90" vClass="bicycle" width="0.68"/>
		<vType accel="2.9" decel="7.5" guiShape="passenger" id="passenger" impatience="0.00" lcCooperative="1.00" lcImpatience="0.00" lcSpeedGain="3.00" lcStrategic="10.00" length="5.0" maxSpeed="50.0" minGap="1.0" probability="0.75" sigma="0.50" speedDev="0.10" speedFactor="0.90" vClass="passenger" width="2.0"/>
	</vTypeDistribution>
</additional>
