<!-- generated on Tue Feb  9 22:15:32 2021 by Eclipse SUMO netconvert Version 1.8.0
<configuration xmlns:xsi="http://www.w3.org/2001/XMLSchema-instance" xsi:noNamespaceSchemaLocation="http://sumo.dlr.de/xsd/netconvertConfiguration.xsd">

    <input>
        <node-files value="./converted_scenarios/scenario-factory/ESP_Ceuta-2_1_I-1-1/ESP_Ceuta-2_1_I-1-1.nod.xml"/>
        <edge-files value="./converted_scenarios/scenario-factory/ESP_Ceuta-2_1_I-1-1/ESP_Ceuta-2_1_I-1-1.edg.xml"/>
        <connection-files value="./converted_scenarios/scenario-factory/ESP_Ceuta-2_1_I-1-1/ESP_Ceuta-2_1_I-1-1.con.xml"/>
        <tllogic-files value="./converted_scenarios/scenario-factory/ESP_Ceuta-2_1_I-1-1/ESP_Ceuta-2_1_I-1-1.tll.xml"/>
        <type-files value="/home/zen/commonroad-interactive-benchmarks/install/commonroad-map-tool/crmapconverter/sumo_map/templates/DEU.typ.xml"/>
    </input>

    <output>
        <output-file value="./converted_scenarios/scenario-factory/ESP_Ceuta-2_1_I-1-1/ESP_Ceuta-2_1_I-1-1.net.xml"/>
    </output>

    <processing>
        <geometry.remove.keep-edges.explicit value="true"/>
        <geometry.avoid-overlap value="true"/>
        <offset.disable-normalization value="true"/>
    </processing>

    <junctions>
        <no-turnarounds value="true"/>
        <junctions.internal-link-detail value="20"/>
    </junctions>

    <report>
        <aggregate-warnings value="5"/>
    </report>

    <random_number>
        <seed value="1234"/>
    </random_number>

</configuration>
--><net xmlns:xsi="http://www.w3.org/2001/XMLSchema-instance" version="1.6" junctionCornerDetail="5" junctionLinkDetail="20" limitTurnSpeed="5.50" xsi:noNamespaceSchemaLocation="http://sumo.dlr.de/xsd/net_file.xsd">

    <location netOffset="0.00,0.00" convBoundary="-171.79,-551.63,129.41,-168.97" origBoundary="-171.79,-551.63,129.41,-168.97" projParameter="!"/>

    <type id="highway.bridleway" priority="1" speed="2.78" allow="pedestrian" oneway="1" width="2.00"/>
    <type id="highway.bus_guideway" priority="1" speed="27.78" allow="bus" oneway="1"/>
    <type id="highway.cycleway" priority="1" speed="8.33" allow="bicycle" oneway="0" width="1.00"/>
    <type id="highway.footway" priority="1" speed="2.78" allow="pedestrian" oneway="1" width="2.00"/>
    <type id="highway.ford" priority="1" speed="2.78" allow="army" oneway="0"/>
    <type id="highway.living_street" priority="2" speed="2.78" disallow="tram rail_urban rail rail_electric rail_fast ship" oneway="0"/>
    <type id="highway.motorway" priority="14" speed="39.44" allow="private emergency authority army vip passenger hov taxi bus coach delivery truck trailer motorcycle evehicle custom1 custom2" oneway="1"/>
    <type id="highway.motorway_link" priority="9" speed="22.22" allow="private emergency authority army vip passenger hov taxi bus coach delivery truck trailer motorcycle evehicle custom1 custom2" oneway="1"/>
    <type id="highway.path" priority="1" speed="2.78" allow="pedestrian bicycle" oneway="0" width="2.00"/>
    <type id="highway.pedestrian" priority="1" speed="2.78" allow="pedestrian" oneway="1" width="2.00"/>
    <type id="highway.primary" priority="12" speed="27.78" disallow="pedestrian tram rail_urban rail rail_electric rail_fast ship" oneway="0"/>
    <type id="highway.primary_link" priority="7" speed="22.22" disallow="pedestrian tram rail_urban rail rail_electric rail_fast ship" oneway="0"/>
    <type id="highway.raceway" priority="15" speed="83.33" allow="vip" oneway="0"/>
    <type id="highway.residential" priority="3" speed="13.89" disallow="pedestrian tram rail_urban rail rail_electric rail_fast ship" oneway="0"/>
    <type id="highway.secondary" priority="11" speed="27.78" disallow="pedestrian tram rail_urban rail rail_electric rail_fast ship" oneway="0"/>
    <type id="highway.secondary_link" priority="6" speed="22.22" disallow="pedestrian tram rail_urban rail rail_electric rail_fast ship" oneway="0"/>
    <type id="highway.service" priority="1" speed="5.56" allow="pedestrian delivery bicycle" oneway="0"/>
    <type id="highway.stairs" priority="1" speed="1.39" allow="pedestrian" oneway="1" width="2.00"/>
    <type id="highway.step" priority="1" speed="1.39" allow="pedestrian" oneway="1" width="2.00"/>
    <type id="highway.steps" priority="1" speed="1.39" allow="pedestrian" oneway="1" width="2.00"/>
    <type id="highway.tertiary" priority="10" speed="22.22" disallow="pedestrian tram rail_urban rail rail_electric rail_fast ship" oneway="0"/>
    <type id="highway.tertiary_link" priority="5" speed="22.22" disallow="pedestrian tram rail_urban rail rail_electric rail_fast ship" oneway="0"/>
    <type id="highway.track" priority="1" speed="5.56" allow="pedestrian motorcycle moped bicycle" oneway="0"/>
    <type id="highway.trunk" priority="13" speed="27.78" disallow="pedestrian bicycle tram rail_urban rail rail_electric rail_fast ship" oneway="0"/>
    <type id="highway.trunk_link" priority="8" speed="22.22" disallow="pedestrian bicycle tram rail_urban rail rail_electric rail_fast ship" oneway="0"/>
    <type id="highway.unclassified" priority="4" speed="13.89" disallow="pedestrian tram rail_urban rail rail_electric rail_fast ship" oneway="0"/>
    <type id="highway.unsurfaced" priority="1" speed="8.33" disallow="tram rail_urban rail rail_electric rail_fast ship" oneway="0"/>
    <type id="railway.highspeed" priority="21" speed="69.44" allow="rail_fast" oneway="1"/>
    <type id="railway.light_rail" priority="19" speed="27.78" allow="rail_urban" oneway="1"/>
    <type id="railway.preserved" priority="16" speed="27.78" allow="rail" oneway="1"/>
    <type id="railway.rail" priority="20" speed="44.44" allow="rail" oneway="1"/>
    <type id="railway.subway" priority="18" speed="27.78" allow="rail_urban" oneway="1"/>
    <type id="railway.tram" priority="17" speed="13.89" allow="tram" oneway="1"/>

    <edge id=":121_0" function="internal">
        <lane id=":121_0_0" index="0" disallow="pedestrian tram rail_urban rail rail_electric rail_fast ship" speed="12.60" length="36.85" width="3.50" shape="-115.67,-345.78 -118.16,-345.33 -120.74,-345.19 -123.31,-345.41 -124.65,-345.69 -125.92,-346.09 -127.16,-346.60 -128.34,-347.21 -129.46,-347.93 -130.53,-348.75 -132.37,-350.53 -133.97,-352.54 -135.31,-354.67 -136.46,-356.90 -137.84,-360.30 -138.94,-363.79 -139.81,-367.31"/>
    </edge>
    <edge id=":121_1" function="internal">
        <lane id=":121_1_0" index="0" disallow="pedestrian tram rail_urban rail rail_electric rail_fast ship" speed="11.64" length="31.27" width="3.50" shape="-136.40,-368.08 -135.62,-364.92 -134.67,-361.83 -133.47,-358.82 -132.51,-356.89 -131.40,-355.05 -130.09,-353.33 -128.59,-351.80 -127.75,-351.12 -126.86,-350.51 -125.92,-349.98 -124.94,-349.54 -123.92,-349.19 -122.87,-348.94 -120.73,-348.71 -118.58,-348.81 -116.46,-349.19"/>
    </edge>
    <edge id=":121_2" function="internal">
        <lane id=":121_2_0" index="0" disallow="pedestrian tram rail_urban rail rail_electric rail_fast ship" speed="36.11" length="30.45" width="3.50" shape="-136.40,-368.08 -135.23,-361.85 -134.24,-354.56 -133.35,-345.14 -132.88,-337.86"/>
    </edge>
    <edge id=":121_3" function="internal">
        <lane id=":121_3_0" index="0" disallow="pedestrian tram rail_urban rail rail_electric rail_fast ship" speed="36.11" length="29.88" width="3.50" shape="-136.36,-337.66 -136.83,-344.84 -137.71,-354.11 -138.68,-361.26 -139.81,-367.31"/>
    </edge>
    <edge id=":122_0" function="internal">
        <lane id=":122_0_0" index="0" disallow="pedestrian tram rail_urban rail rail_electric rail_fast ship" speed="9.60" length="19.76" width="3.50" shape="-69.52,-355.95 -69.55,-355.15 -70.44,-355.60 -71.41,-355.82 -72.40,-355.92 -73.40,-355.93 -75.39,-355.81 -77.37,-355.55 -80.32,-355.02 -84.21,-354.15 -88.08,-353.14"/>
    </edge>
    <edge id=":122_1" function="internal">
        <lane id=":122_1_0" index="0" disallow="pedestrian tram rail_urban rail rail_electric rail_fast ship" speed="36.11" length="23.37" width="3.50" shape="-69.52,-355.95 -72.93,-366.23 -76.90,-378.12"/>
    </edge>
    <edge id=":122_2" function="internal">
        <lane id=":122_2_0" index="0" disallow="pedestrian tram rail_urban rail rail_electric rail_fast ship" speed="36.11" length="28.04" width="3.39" shape="-73.58,-379.23 -69.61,-367.33 -64.62,-352.66"/>
    </edge>
    <edge id=":122_3" function="internal">
        <lane id=":122_3_0" index="0" disallow="pedestrian tram rail_urban rail rail_electric rail_fast ship" speed="12.03" length="34.70" width="3.50" shape="-73.58,-379.23 -72.82,-376.65 -72.27,-374.04 -71.97,-371.39 -72.01,-368.72 -72.17,-367.40 -72.44,-366.09 -72.82,-364.81 -73.31,-363.58 -73.92,-362.39 -74.64,-361.27 -75.46,-360.21 -76.37,-359.24 -78.40,-357.51 -80.65,-356.07 -83.04,-354.89 -85.53,-353.93 -88.08,-353.14"/>
    </edge>
    <edge id=":122_4" function="internal">
        <lane id=":122_4_0" index="0" disallow="pedestrian tram rail_urban rail rail_electric rail_fast ship" speed="11.01" length="28.91" width="3.50" shape="-89.01,-356.51 -86.78,-357.20 -84.63,-358.03 -82.60,-359.03 -80.72,-360.22 -79.03,-361.66 -78.32,-362.42 -77.66,-363.26 -77.09,-364.15 -76.60,-365.09 -76.21,-366.07 -75.90,-367.09 -75.68,-368.13 -75.55,-369.18 -75.52,-371.42 -75.76,-373.65 -76.24,-375.88 -76.90,-378.12"/>
    </edge>
    <edge id=":122_5" function="internal">
        <lane id=":122_5_0" index="0" disallow="pedestrian tram rail_urban rail rail_electric rail_fast ship" speed="11.43" length="27.96" width="3.39" shape="-89.01,-356.51 -84.56,-357.65 -80.06,-358.57 -76.60,-359.06 -74.21,-359.22 -71.80,-359.14 -70.51,-358.96 -69.21,-358.60 -67.91,-357.99 -66.70,-357.03 -64.62,-352.66"/>
    </edge>
    <edge id=":123_0" function="internal">
        <lane id=":123_0_0" index="0" disallow="pedestrian tram rail_urban rail rail_electric rail_fast ship" speed="36.11" length="25.54" width="3.46" shape="-62.25,-331.26 -65.36,-342.24 -69.46,-355.76"/>
    </edge>
    <edge id=":123_1" function="internal">
        <lane id=":123_1_0" index="0" disallow="pedestrian tram rail_urban rail rail_electric rail_fast ship" speed="12.28" length="34.06" width="3.50" shape="-62.25,-331.26 -62.86,-333.74 -63.28,-336.26 -63.48,-338.84 -63.39,-341.47 -62.96,-344.05 -62.59,-345.38 -62.12,-346.64 -61.54,-347.87 -60.86,-349.04 -60.09,-350.15 -59.23,-351.19 -58.27,-352.17 -56.26,-353.84 -54.05,-355.24 -51.73,-356.40 -48.19,-357.72"/>
    </edge>
    <edge id=":123_2" function="internal">
        <lane id=":123_2_0" index="0" disallow="pedestrian tram rail_urban rail rail_electric rail_fast ship" speed="11.29" length="28.59" width="3.50" shape="-47.13,-354.39 -50.21,-353.24 -52.18,-352.26 -54.03,-351.08 -55.72,-349.67 -56.49,-348.88 -57.19,-348.03 -57.82,-347.13 -58.37,-346.18 -58.84,-345.18 -59.22,-344.15 -59.52,-343.09 -59.88,-340.92 -59.95,-338.72 -59.78,-336.53 -59.41,-334.36 -58.89,-332.22"/>
    </edge>
    <edge id=":123_3" function="internal">
        <lane id=":123_3_0" index="0" disallow="pedestrian tram rail_urban rail rail_electric rail_fast ship" speed="10.56" length="24.84" width="3.46" shape="-47.13,-354.39 -51.61,-353.07 -56.17,-351.95 -59.70,-351.34 -62.13,-351.14 -63.43,-351.15 -64.77,-351.31 -66.15,-351.71 -67.50,-352.49 -69.46,-355.76"/>
    </edge>
    <edge id=":123_4" function="internal">
        <lane id=":123_4_0" index="0" disallow="pedestrian tram rail_urban rail rail_electric rail_fast ship" speed="9.40" length="19.19" width="3.50" shape="-64.55,-352.48 -64.84,-354.56 -63.86,-354.35 -62.85,-354.32 -61.85,-354.39 -60.85,-354.51 -58.86,-354.85 -55.91,-355.52 -52.02,-356.57 -48.19,-357.72"/>
    </edge>
    <edge id=":123_5" function="internal">
        <lane id=":123_5_0" index="0" disallow="pedestrian tram rail_urban rail rail_electric rail_fast ship" speed="36.11" length="21.04" width="3.50" shape="-64.55,-352.48 -62.01,-343.24 -58.89,-332.22"/>
    </edge>
    <edge id=":124_0" function="internal">
        <lane id=":124_0_0" index="0" disallow="pedestrian tram rail_urban rail rail_electric rail_fast ship" speed="36.11" length="38.60" width="3.50" shape="-83.55,-397.99 -89.60,-416.33 -95.65,-434.64"/>
    </edge>
    <edge id=":124_1" function="internal">
        <lane id=":124_1_0" index="0" disallow="pedestrian tram rail_urban rail rail_electric rail_fast ship" speed="12.09" length="34.72" width="3.50" shape="-83.55,-397.99 -84.63,-401.88 -85.08,-404.51 -85.25,-407.17 -85.08,-409.83 -84.85,-411.14 -84.51,-412.43 -84.06,-413.68 -83.49,-414.89 -82.81,-416.04 -82.04,-417.12 -81.17,-418.13 -80.21,-419.06 -78.12,-420.71 -75.83,-422.07 -73.41,-423.19 -69.60,-424.51"/>
    </edge>
    <edge id=":124_2" function="internal">
        <lane id=":124_2_0" index="0" disallow="pedestrian tram rail_urban rail rail_electric rail_fast ship" speed="11.08" length="28.99" width="3.50" shape="-68.62,-421.15 -71.95,-420.00 -74.00,-419.05 -75.93,-417.91 -77.68,-416.53 -78.43,-415.79 -79.13,-414.98 -79.75,-414.12 -80.29,-413.21 -80.74,-412.25 -81.10,-411.25 -81.37,-410.21 -81.56,-409.18 -81.70,-406.95 -81.55,-404.72 -81.17,-402.49 -80.23,-399.10"/>
    </edge>
    <edge id=":124_3" function="internal">
        <lane id=":124_3_0" index="0" disallow="pedestrian tram rail_urban rail rail_electric rail_fast ship" speed="12.37" length="34.39" width="3.50" shape="-68.62,-421.15 -72.51,-420.22 -75.13,-419.86 -77.77,-419.74 -80.41,-419.93 -82.99,-420.47 -84.25,-420.88 -85.46,-421.40 -86.63,-422.02 -87.74,-422.74 -88.79,-423.54 -89.77,-424.43 -91.52,-426.41 -92.99,-428.61 -94.21,-430.95 -95.22,-433.39 -95.65,-434.64"/>
    </edge>
    <edge id=":124_4" function="internal">
        <lane id=":124_4_0" index="0" disallow="pedestrian tram rail_urban rail rail_electric rail_fast ship" speed="11.39" length="28.95" width="3.50" shape="-92.33,-435.74 -91.95,-434.66 -91.08,-432.53 -90.04,-430.53 -88.80,-428.69 -87.33,-427.04 -86.55,-426.34 -85.70,-425.69 -84.80,-425.11 -83.85,-424.61 -82.87,-424.20 -81.88,-423.87 -79.71,-423.42 -77.50,-423.28 -75.25,-423.38 -73.01,-423.70 -69.60,-424.51"/>
    </edge>
    <edge id=":124_5" function="internal">
        <lane id=":124_5_0" index="0" disallow="pedestrian tram rail_urban rail rail_electric rail_fast ship" speed="36.11" length="38.59" width="3.50" shape="-92.33,-435.74 -86.28,-417.43 -80.23,-399.10"/>
    </edge>
    <edge id=":125_0" function="internal">
        <lane id=":125_0_0" index="0" disallow="pedestrian tram rail_urban rail rail_electric rail_fast ship" speed="36.11" length="38.37" width="3.50" shape="-104.81,-462.75 -110.75,-481.00 -116.68,-499.24"/>
    </edge>
    <edge id=":125_1" function="internal">
        <lane id=":125_1_0" index="0" disallow="pedestrian tram rail_urban rail rail_electric rail_fast ship" speed="12.15" length="34.51" width="3.50" shape="-104.81,-462.75 -105.80,-466.46 -106.22,-469.05 -106.36,-471.69 -106.16,-474.34 -105.90,-475.70 -105.53,-477.02 -105.05,-478.31 -104.45,-479.55 -103.74,-480.74 -102.94,-481.85 -102.04,-482.88 -101.05,-483.85 -98.98,-485.48 -96.72,-486.85 -94.36,-487.97 -90.75,-489.26"/>
    </edge>
    <edge id=":125_2" function="internal">
        <lane id=":125_2_0" index="0" disallow="pedestrian tram rail_urban rail rail_electric rail_fast ship" speed="11.14" length="28.85" width="3.50" shape="-89.73,-485.92 -92.87,-484.79 -94.88,-483.84 -96.77,-482.70 -98.52,-481.32 -99.31,-480.55 -100.04,-479.71 -100.69,-478.81 -101.26,-477.86 -101.74,-476.86 -102.13,-475.82 -102.43,-474.75 -102.64,-473.66 -102.81,-471.45 -102.69,-469.24 -102.34,-467.05 -101.48,-463.83"/>
    </edge>
    <edge id=":125_3" function="internal">
        <lane id=":125_3_0" index="0" disallow="pedestrian tram rail_urban rail rail_electric rail_fast ship" speed="12.33" length="34.31" width="3.50" shape="-89.73,-485.92 -93.58,-484.96 -96.19,-484.57 -98.82,-484.42 -101.46,-484.58 -104.04,-485.10 -105.30,-485.51 -106.52,-486.02 -107.68,-486.64 -108.79,-487.35 -109.84,-488.16 -110.82,-489.04 -112.56,-491.02 -114.03,-493.21 -115.25,-495.56 -116.25,-498.00 -116.68,-499.24"/>
    </edge>
    <edge id=":125_4" function="internal">
        <lane id=":125_4_0" index="0" disallow="pedestrian tram rail_urban rail rail_electric rail_fast ship" speed="11.33" length="28.83" width="3.50" shape="-113.36,-500.35 -112.99,-499.26 -112.12,-497.14 -111.08,-495.14 -109.85,-493.31 -108.38,-491.65 -107.60,-490.96 -106.76,-490.31 -105.86,-489.74 -104.92,-489.25 -103.93,-488.84 -102.95,-488.52 -100.79,-488.09 -98.59,-487.96 -96.35,-488.09 -94.11,-488.43 -90.75,-489.26"/>
    </edge>
    <edge id=":125_5" function="internal">
        <lane id=":125_5_0" index="0" disallow="pedestrian tram rail_urban rail rail_electric rail_fast ship" speed="36.11" length="38.40" width="3.50" shape="-113.36,-500.35 -107.42,-482.08 -101.48,-463.83"/>
    </edge>
    <edge id=":126_0" function="internal">
        <lane id=":126_0_0" index="0" disallow="pedestrian tram rail_urban rail rail_electric rail_fast ship" speed="11.42" length="29.11" width="3.50" shape="-0.53,-422.52 -1.29,-424.62 -2.19,-426.64 -3.26,-428.54 -4.51,-430.29 -5.95,-431.84 -7.60,-433.17 -8.46,-433.69 -9.38,-434.17 -10.34,-434.57 -11.30,-434.88 -13.39,-435.32 -15.53,-435.47 -17.70,-435.37 -19.87,-435.07 -23.14,-434.30"/>
    </edge>
    <edge id=":126_1" function="internal">
        <lane id=":126_1_0" index="0" disallow="pedestrian tram rail_urban rail rail_electric rail_fast ship" speed="36.11" length="39.06" width="3.50" shape="-0.53,-422.52 -10.85,-454.84 -12.38,-459.74"/>
    </edge>
    <edge id=":126_2" function="internal">
        <lane id=":126_2_0" index="0" disallow="pedestrian tram rail_urban rail rail_electric rail_fast ship" speed="12.45" length="34.86" width="3.50" shape="-0.53,-422.52 -1.50,-426.15 -1.90,-428.68 -2.05,-431.26 -1.88,-433.86 -1.34,-436.41 -0.91,-437.71 -0.39,-438.93 0.23,-440.11 0.95,-441.23 1.76,-442.32 3.54,-444.20 5.54,-445.85 7.68,-447.25 9.93,-448.44 13.38,-449.88"/>
    </edge>
    <edge id=":126_3" function="internal">
        <lane id=":126_3_0" index="0" disallow="pedestrian tram rail_urban rail rail_electric rail_fast ship" speed="11.47" length="29.39" width="3.50" shape="14.57,-446.59 11.55,-445.33 9.63,-444.31 7.80,-443.13 6.12,-441.75 4.63,-440.16 3.97,-439.30 3.38,-438.38 2.87,-437.42 2.44,-436.42 2.09,-435.39 1.64,-433.26 1.49,-431.09 1.61,-428.91 1.96,-426.76 2.80,-423.61"/>
    </edge>
    <edge id=":126_4" function="internal">
        <lane id=":126_4_0" index="0" disallow="pedestrian tram rail_urban rail rail_electric rail_fast ship" speed="36.11" length="39.67" width="3.50" shape="14.57,-446.59 0.77,-441.77 -13.14,-437.28 -23.14,-434.30"/>
    </edge>
    <edge id=":126_5" function="internal">
        <lane id=":126_5_0" index="0" disallow="pedestrian tram rail_urban rail rail_electric rail_fast ship" speed="12.08" length="34.79" width="3.50" shape="14.57,-446.59 10.73,-445.41 8.11,-444.88 5.44,-444.63 2.77,-444.71 1.44,-444.89 0.14,-445.19 -1.14,-445.59 -2.37,-446.12 -3.54,-446.75 -4.66,-447.50 -5.70,-448.34 -6.67,-449.26 -8.38,-451.32 -9.81,-453.58 -10.99,-455.98 -12.38,-459.74"/>
    </edge>
    <edge id=":126_6" function="internal">
        <lane id=":126_6_0" index="0" disallow="pedestrian tram rail_urban rail rail_electric rail_fast ship" speed="11.07" length="29.04" width="3.50" shape="-9.05,-460.79 -7.83,-457.51 -6.83,-455.47 -5.63,-453.58 -4.20,-451.86 -3.44,-451.14 -2.60,-450.47 -1.71,-449.87 -0.78,-449.37 0.20,-448.96 1.22,-448.63 2.27,-448.40 3.31,-448.25 5.56,-448.18 7.80,-448.40 10.03,-448.85 13.38,-449.88"/>
    </edge>
    <edge id=":126_7" function="internal">
        <lane id=":126_7_0" index="0" disallow="pedestrian tram rail_urban rail rail_electric rail_fast ship" speed="36.11" length="39.02" width="3.50" shape="-9.05,-460.79 -7.51,-455.89 2.80,-423.61"/>
    </edge>
    <edge id=":126_8" function="internal">
        <lane id=":126_8_0" index="0" disallow="pedestrian tram rail_urban rail rail_electric rail_fast ship" speed="12.15" length="34.49" width="3.50" shape="-9.05,-460.79 -8.36,-458.31 -7.87,-455.78 -7.60,-453.17 -7.63,-450.52 -8.01,-447.89 -8.38,-446.54 -8.85,-445.25 -9.43,-444.00 -10.13,-442.81 -10.93,-441.69 -11.81,-440.65 -12.80,-439.68 -14.87,-438.03 -17.14,-436.67 -19.51,-435.56 -23.14,-434.30"/>
    </edge>
    <edge id=":126_9" function="internal">
        <lane id=":126_9_0" index="0" disallow="pedestrian tram rail_urban rail rail_electric rail_fast ship" speed="11.14" length="28.82" width="3.50" shape="-24.11,-437.66 -20.97,-438.75 -18.96,-439.69 -17.06,-440.83 -15.33,-442.21 -14.54,-442.99 -13.82,-443.84 -13.18,-444.74 -12.62,-445.70 -12.15,-446.70 -11.77,-447.74 -11.48,-448.81 -11.16,-451.01 -11.14,-453.22 -11.37,-455.43 -11.79,-457.60 -12.38,-459.74"/>
    </edge>
    <edge id=":126_10" function="internal">
        <lane id=":126_10_0" index="0" disallow="pedestrian tram rail_urban rail rail_electric rail_fast ship" speed="36.11" length="39.44" width="3.50" shape="-24.11,-437.66 -14.17,-440.63 -0.34,-445.09 13.38,-449.88"/>
    </edge>
    <edge id=":126_11" function="internal">
        <lane id=":126_11_0" index="0" disallow="pedestrian tram rail_urban rail rail_electric rail_fast ship" speed="12.40" length="34.56" width="3.50" shape="-24.11,-437.66 -20.37,-438.54 -17.84,-438.89 -15.28,-439.00 -12.73,-438.82 -10.22,-438.30 -9.00,-437.90 -7.82,-437.41 -6.69,-436.82 -5.60,-436.14 -3.60,-434.54 -1.86,-432.67 -0.38,-430.58 0.88,-428.35 1.93,-426.02 2.80,-423.61"/>
    </edge>
    <edge id=":127_0" function="internal">
        <lane id=":127_0_0" index="0" disallow="pedestrian tram rail_urban rail rail_electric rail_fast ship" speed="11.12" length="28.51" width="3.50" shape="20.41,-356.95 19.29,-360.05 18.35,-362.03 17.21,-363.91 15.85,-365.63 15.08,-366.41 14.26,-367.14 13.37,-367.78 12.43,-368.35 11.44,-368.83 10.42,-369.23 9.36,-369.53 8.29,-369.74 6.10,-369.94 3.91,-369.84 1.73,-369.52 -1.43,-368.71"/>
    </edge>
    <edge id=":127_1" function="internal">
        <lane id=":127_1_0" index="0" disallow="pedestrian tram rail_urban rail rail_electric rail_fast ship" speed="36.11" length="38.77" width="3.50" shape="20.41,-356.95 12.54,-382.29 8.79,-393.94"/>
    </edge>
    <edge id=":127_2" function="internal">
        <lane id=":127_2_0" index="0" disallow="pedestrian tram rail_urban rail rail_electric rail_fast ship" speed="12.43" length="34.77" width="3.50" shape="20.41,-356.95 19.48,-360.70 19.10,-363.24 18.98,-365.81 19.15,-368.38 19.68,-370.90 20.08,-372.12 20.58,-373.31 21.17,-374.45 21.86,-375.54 23.47,-377.54 25.36,-379.29 27.45,-380.79 29.69,-382.06 33.23,-383.61 34.47,-384.05"/>
    </edge>
    <edge id=":127_3" function="internal">
        <lane id=":127_3_0" index="0" disallow="pedestrian tram rail_urban rail rail_electric rail_fast ship" speed="11.44" length="29.32" width="3.50" shape="35.59,-380.73 34.53,-380.36 31.41,-379.00 29.51,-377.92 27.75,-376.66 26.18,-375.21 24.84,-373.55 24.31,-372.69 23.82,-371.77 23.42,-370.80 23.10,-369.84 22.66,-367.74 22.51,-365.60 22.62,-363.42 22.94,-361.24 23.76,-357.96"/>
    </edge>
    <edge id=":127_4" function="internal">
        <lane id=":127_4_0" index="0" disallow="pedestrian tram rail_urban rail rail_electric rail_fast ship" speed="36.11" length="38.92" width="3.50" shape="35.59,-380.73 11.24,-372.73 -1.43,-368.71"/>
    </edge>
    <edge id=":127_5" function="internal">
        <lane id=":127_5_0" index="0" disallow="pedestrian tram rail_urban rail rail_electric rail_fast ship" speed="12.17" length="34.36" width="3.50" shape="35.59,-380.73 31.75,-379.65 29.15,-379.19 26.51,-378.99 23.88,-379.12 22.57,-379.33 21.29,-379.64 20.03,-380.06 18.82,-380.58 17.66,-381.21 16.56,-381.94 15.53,-382.77 14.57,-383.67 12.85,-385.68 11.41,-387.89 10.21,-390.25 8.79,-393.94"/>
    </edge>
    <edge id=":127_6" function="internal">
        <lane id=":127_6_0" index="0" disallow="pedestrian tram rail_urban rail rail_electric rail_fast ship" speed="11.17" length="28.75" width="3.50" shape="12.11,-395.03 13.35,-391.81 14.37,-389.82 15.58,-387.96 17.02,-386.28 17.78,-385.57 18.61,-384.90 19.49,-384.32 20.42,-383.81 21.39,-383.40 22.39,-383.06 23.43,-382.82 24.47,-382.65 26.69,-382.54 28.90,-382.71 31.12,-383.10 34.47,-384.05"/>
    </edge>
    <edge id=":127_7" function="internal">
        <lane id=":127_7_0" index="0" disallow="pedestrian tram rail_urban rail rail_electric rail_fast ship" speed="36.11" length="38.86" width="3.50" shape="12.11,-395.03 15.88,-383.35 23.76,-357.96"/>
    </edge>
    <edge id=":127_8" function="internal">
        <lane id=":127_8_0" index="0" disallow="pedestrian tram rail_urban rail rail_electric rail_fast ship" speed="12.09" length="33.94" width="3.50" shape="12.11,-395.03 12.81,-392.60 13.33,-390.11 13.62,-387.54 13.62,-384.92 13.25,-382.32 12.90,-380.99 12.45,-379.72 11.88,-378.49 11.21,-377.31 10.43,-376.20 9.58,-375.17 8.62,-374.19 6.60,-372.55 4.40,-371.16 2.09,-370.02 -1.43,-368.71"/>
    </edge>
    <edge id=":127_9" function="internal">
        <lane id=":127_9_0" index="0" disallow="pedestrian tram rail_urban rail rail_electric rail_fast ship" speed="11.08" length="28.31" width="3.50" shape="-2.48,-372.05 0.56,-373.18 2.52,-374.15 4.36,-375.30 6.05,-376.69 6.81,-377.46 7.51,-378.30 8.13,-379.20 8.68,-380.14 9.13,-381.13 9.50,-382.16 9.78,-383.21 10.08,-385.37 10.08,-387.55 9.84,-389.71 9.39,-391.85 8.79,-393.94"/>
    </edge>
    <edge id=":127_10" function="internal">
        <lane id=":127_10_0" index="0" disallow="pedestrian tram rail_urban rail rail_electric rail_fast ship" speed="36.11" length="38.85" width="3.50" shape="-2.48,-372.05 10.16,-376.06 34.47,-384.05"/>
    </edge>
    <edge id=":127_11" function="internal">
        <lane id=":127_11_0" index="0" disallow="pedestrian tram rail_urban rail rail_electric rail_fast ship" speed="12.13" length="34.14" width="3.50" shape="-2.48,-372.05 1.19,-372.99 3.75,-373.37 6.37,-373.48 8.99,-373.25 10.34,-372.99 11.64,-372.61 12.91,-372.13 14.14,-371.53 15.30,-370.83 16.40,-370.03 17.42,-369.14 18.38,-368.16 20.00,-366.11 21.36,-363.88 22.47,-361.54 23.76,-357.96"/>
    </edge>
    <edge id=":128_0" function="internal">
        <lane id=":128_0_0" index="0" disallow="pedestrian tram rail_urban rail rail_electric rail_fast ship" speed="36.11" length="37.88" width="3.50" shape="-42.13,-265.50 -43.32,-269.38 -50.75,-291.72 -53.78,-301.54"/>
    </edge>
    <edge id=":128_1" function="internal">
        <lane id=":128_1_0" index="0" disallow="pedestrian tram rail_urban rail rail_electric rail_fast ship" speed="12.29" length="34.33" width="3.50" shape="-42.13,-265.50 -42.47,-266.75 -43.03,-269.24 -43.36,-271.82 -43.42,-274.46 -43.14,-277.09 -42.84,-278.44 -42.44,-279.74 -41.93,-281.01 -41.30,-282.23 -40.57,-283.38 -39.75,-284.47 -38.85,-285.48 -37.86,-286.43 -35.79,-288.04 -33.55,-289.40 -31.20,-290.52 -27.61,-291.82"/>
    </edge>
    <edge id=":128_2" function="internal">
        <lane id=":128_2_0" index="0" disallow="pedestrian tram rail_urban rail rail_electric rail_fast ship" speed="11.30" length="28.81" width="3.50" shape="-26.55,-288.49 -29.70,-287.34 -31.70,-286.39 -33.60,-285.25 -35.35,-283.89 -36.15,-283.13 -36.89,-282.30 -37.56,-281.42 -38.15,-280.49 -38.65,-279.50 -39.07,-278.48 -39.40,-277.42 -39.65,-276.34 -39.89,-274.14 -39.84,-271.93 -39.55,-269.73 -39.07,-267.57 -38.77,-266.51"/>
    </edge>
    <edge id=":128_3" function="internal">
        <lane id=":128_3_0" index="0" disallow="pedestrian tram rail_urban rail rail_electric rail_fast ship" speed="12.14" length="34.77" width="3.50" shape="-26.54,-288.48 -30.46,-287.47 -33.10,-287.03 -35.76,-286.82 -38.43,-286.91 -41.07,-287.35 -42.35,-287.72 -43.60,-288.19 -44.80,-288.78 -45.94,-289.47 -47.02,-290.26 -48.02,-291.14 -48.95,-292.11 -50.56,-294.23 -51.88,-296.56 -52.95,-299.01 -53.78,-301.54"/>
    </edge>
    <edge id=":128_4" function="internal">
        <lane id=":128_4_0" index="0" disallow="pedestrian tram rail_urban rail rail_electric rail_fast ship" speed="11.14" length="29.11" width="3.50" shape="-50.43,-302.54 -49.70,-300.33 -48.79,-298.24 -47.69,-296.30 -46.32,-294.53 -45.59,-293.78 -44.78,-293.08 -43.91,-292.45 -43.00,-291.90 -42.03,-291.44 -41.02,-291.07 -40.01,-290.78 -37.80,-290.43 -35.56,-290.37 -33.29,-290.55 -31.02,-290.93 -27.61,-291.82"/>
    </edge>
    <edge id=":128_5" function="internal">
        <lane id=":128_5_0" index="0" disallow="pedestrian tram rail_urban rail rail_electric rail_fast ship" speed="36.11" length="37.87" width="3.50" shape="-50.43,-302.54 -47.40,-292.74 -39.98,-270.42 -38.77,-266.51"/>
    </edge>
    <edge id=":129_0" function="internal">
        <lane id=":129_0_0" index="0" disallow="pedestrian tram rail_urban rail rail_electric rail_fast ship" speed="36.11" length="100.00" width="3.50" shape="-145.41,-238.94 -144.18,-251.03 -142.09,-267.05 -138.73,-291.05 -137.35,-303.09 -136.54,-313.15 -136.14,-322.23 -136.13,-331.32 -136.40,-338.38"/>
    </edge>
    <edge id=":129_1" function="internal">
        <lane id=":129_1_0" index="0" disallow="pedestrian tram rail_urban rail rail_electric rail_fast ship" speed="36.11" length="100.46" width="3.50" shape="-132.91,-338.57 -132.63,-331.44 -132.64,-322.25 -133.04,-313.08 -133.86,-302.93 -135.25,-290.81 -138.61,-266.74 -140.70,-250.71 -141.92,-238.67"/>
    </edge>
    <edge id=":129_2" function="internal">
        <lane id=":129_2_0" index="0" disallow="pedestrian tram rail_urban rail rail_electric rail_fast ship" speed="36.11" length="96.04" width="3.44" shape="-132.91,-338.57 -132.95,-337.32 -133.11,-336.15 -134.06,-332.06 -135.86,-326.16 -139.22,-316.54 -145.00,-301.35 -153.70,-279.69 -166.57,-248.81"/>
    </edge>
    <edge id=":129_3" function="internal">
        <lane id=":129_3_0" index="0" disallow="pedestrian tram rail_urban rail rail_electric rail_fast ship" speed="36.11" length="94.47" width="3.50" shape="-169.80,-250.17 -157.03,-280.78 -148.39,-302.22 -142.66,-317.24 -139.31,-326.72 -137.52,-332.47 -136.59,-336.38 -136.44,-337.38 -136.40,-338.38"/>
    </edge>