<routes>
	<vehicle depart="0.1" departLane="0" departPos="69.43090081079926" departSpeed="0.0" id="310" type="bicycle">
		<route edges="231 685"/>
	</vehicle>
	<vehicle depart="0.1" departLane="0" departPos="77.58144324711367" departSpeed="0.0089049636" id="312" type="bicycle">
		<route edges="697 746"/>
	</vehicle>
	<vehicle depart="0.1" departLane="0" departPos="51.8875267793649" departSpeed="0.01383858" id="343" type="bicycle">
		<route edges="231 685"/>
	</vehicle>
	<vehicle depart="0.1" departLane="0" departPos="65.09679776320391" departSpeed="0.0011125701" id="340" type="bus">
		<route edges="231 685"/>
	</vehicle>
	<vehicle depart="0.1" departLane="0" departPos="139.5407623066363" departSpeed="0.85074248" id="347" type="bus">
		<route edges="637 695"/>
	</vehicle>
	<vehicle depart="0.1" departLane="0" departPos="46.611373681574086" departSpeed="1.129526" id="360" type="bus">
		<route edges="697 746"/>
	</vehicle>
	<vehicle depart="0.1" departLane="0" departPos="61.98708234897149" departSpeed="0.0" id="35" type="passenger">
		<route edges="745 693"/>
	</vehicle>
	<vehicle depart="0.1" departLane="0" departPos="54.811878744140834" departSpeed="0.0" id="37" type="passenger">
		<route edges="745 693"/>
	</vehicle>
	<vehicle depart="0.1" departLane="0" departPos="69.34152239461083" departSpeed="0.0" id="317" type="passenger">
		<route edges="745 693"/>
	</vehicle>
	<vehicle depart="0.1" departLane="0" departPos="2.5" departSpeed="3.9552471" id="319" type="passenger">
		<route edges=":43_4 695 699 1798"/>
	</vehicle>
	<vehicle depart="0.1" departLane="0" departPos="89.8665176379774" departSpeed="0.0" id="321" type="passenger">
		<route edges="697 693 689"/>
	</vehicle>
	<vehicle depart="0.1" departLane="0" departPos="152.62596262811897" departSpeed="2.4797586" id="323" type="passenger">
		<route edges="637 695"/>
	</vehicle>
	<vehicle depart="0.1" departLane="0" departPos="47.63686359195785" departSpeed="0.0" id="324" type="passenger">
		<route edges="745 693"/>
	</vehicle>
	<vehicle depart="0.1" departLane="0" departPos="83.1776635055148" departSpeed="0.0051704644" id="326" type="passenger">
		<route edges="697 746"/>
	</vehicle>
	<vehicle depart="0.1" departLane="0" departPos="40.533873945986365" departSpeed="0.0" id="327" type="passenger">
		<route edges="745 693"/>
	</vehicle>
	<vehicle depart="0.1" departLane="0" departPos="33.83108334918088" departSpeed="0.0" id="329" type="passenger">
		<route edges="745 693"/>
	</vehicle>
	<vehicle depart="0.1" departLane="0" departPos="76.38044254826848" departSpeed="0.0087595693" id="331" type="passenger">
		<route edges="697 746"/>
	</vehicle>
	<vehicle depart="0.1" departLane="0" departPos="9.984434086357155" departSpeed="5.6791271" id="332" type="passenger">
		<route edges=":45_4 746"/>
	</vehicle>
	<vehicle depart="0.1" departLane="0" departPos="26.72830598715755" departSpeed="0.0" id="335" type="passenger">
		<route edges="745 693"/>
	</vehicle>
	<vehicle depart="0.1" departLane="0" departPos="69.18400595343452" departSpeed="0.0075185437" id="336" type="passenger">
		<route edges="697 746"/>
	</vehicle>
	<vehicle depart="0.1" departLane="0" departPos="25.200294542874982" departSpeed="2.4099012e-05" id="341" type="passenger">
		<route edges="887 637"/>
	</vehicle>
	<vehicle depart="0.1" departLane="0" departPos="62.09360466348321" departSpeed="0.0098396447" id="342" type="passenger">
		<route edges="697 746"/>
	</vehicle>
	<vehicle depart="0.1" departLane="0" departPos="19.225301644083142" departSpeed="1.6437098e-05" id="344" type="passenger">
		<route edges="745 693"/>
	</vehicle>
	<vehicle depart="0.1" departLane="0" departPos="123.45541364914983" departSpeed="1.4491614" id="350" type="passenger">
		<route edges="637 695"/>
	</vehicle>
	<vehicle depart="0.1" departLane="0" departPos="50.30594718554572" departSpeed="0.011501636" id="351" type="passenger">
		<route edges="231 685"/>
	</vehicle>
	<vehicle depart="0.1" departLane="0" departPos="54.95822506735711" departSpeed="0.055568359" id="352" type="passenger">
		<route edges="697 746"/>
	</vehicle>
	<vehicle depart="0.1" departLane="0" departPos="11.866075636226164" departSpeed="9.7843904e-05" id="354" type="passenger">
		<route edges="745 693"/>
	</vehicle>
	<vehicle depart="0.1" departLane="0" departPos="18.099314272482022" departSpeed="0.00014828672" id="356" type="passenger">
		<route edges="887 637"/>
	</vehicle>
	<vehicle depart="0.1" departLane="0" departPos="42.83619813175794" departSpeed="0.061607714" id="358" type="passenger">
		<route edges="231 685"/>
	</vehicle>
	<vehicle depart="0.1" departLane="0" departPos="111.89664738280482" departSpeed="3.4368762" id="359" type="passenger">
		<route edges="637 695"/>
	</vehicle>
	<vehicle depart="0.1" departLane="0" departPos="10.93464830069963" departSpeed="0.00061393694" id="362" type="passenger">
		<route edges="887 637"/>
	</vehicle>
	<vehicle depart="0.1" departLane="0" departPos="28.917958659801375" departSpeed="2.936443" id="363" type="passenger">
		<route edges="697 746"/>
	</vehicle>
	<vehicle depart="0.1" departLane="0" departPos="35.66343533273921" departSpeed="0.21377705" id="364" type="passenger">
		<route edges="231 685"/>
	</vehicle>
	<vehicle depart="0.1" departLane="0" departPos="16.578066965317085" departSpeed="4.3452585" id="367" type="passenger">
		<route edges="697 746"/>
	</vehicle>
	<vehicle depart="0.1" departLane="0" departPos="28.589571054125184" departSpeed="0.54683964" id="369" type="passenger">
		<route edges="231 685"/>
	</vehicle>
	<vehicle depart="0.1" departLane="0" departPos="2.5" departSpeed="5.2058269" id="370" type="passenger">
		<route edges="697 746"/>
	</vehicle>
	<vehicle depart="0.1" departLane="0" departPos="41.23627359923109" departSpeed="16.797605" id="371" type="passenger">
		<route edges="637 695"/>
	</vehicle>
	<vehicle depart="0.1" departLane="0" departPos="17.586546996706268" departSpeed="7.8754877" id="372" type="passenger">
		<route edges=":43_2 695 699 1798"/>
	</vehicle>
	<vehicle depart="0.1" departLane="0" departPos="44.670406957035304" departSpeed="5.9998616" id="373" type="passenger">
		<route edges=":41_0 697 746"/>
	</vehicle>
	<vehicle depart="0.1" departLane="0" departPos="20.6908563289767" departSpeed="0.99705382" id="374" type="passenger">
		<route edges="231 685"/>
	</vehicle>
	<vehicle depart="0.1" departLane="0" departPos="17.456262759198886" departSpeed="15.084228" id="375" type="passenger">
		<route edges="637 695"/>
	</vehicle>
	<vehicle depart="0.1" departLane="0" departPos="16.408107755865966" departSpeed="11.013701" id="376" type="passenger">
		<route edges="230"/>
	</vehicle>
	<vehicle depart="0.1" departLane="0" departPos="13.282694266036197" departSpeed="10.788997" id="377" type="passenger">
		<route edges=":44_5 691 695 699 1798"/>
	</vehicle>
	<vehicle depart="0.1" departLane="0" departPos="6.380322684721966" departSpeed="10.869204" id="379" type="passenger">
		<route edges=":40_4 637 695"/>
	</vehicle>
	<vehicle depart="0.1" departLane="0" departPos="12.197799879935646" departSpeed="1.2796212" id="381" type="passenger">
		<route edges="231 685"/>
	</vehicle>
	<vehicle depart="0.1" departLane="0" departPos="34.34977333446933" departSpeed="8.6319753" id="382" type="passenger">
		<route edges="687 691 695 699"/>
	</vehicle>
	<vehicle depart="0.1" departLane="0" departPos="23.669468745540055" departSpeed="8.5487567" id="384" type="passenger">
		<route edges="734 637 695"/>
	</vehicle>
	<vehicle depart="0.1" departLane="0" departPos="21.062650352568383" departSpeed="7.3384554" id="385" type="passenger">
		<route edges="687 691 695"/>
	</vehicle>
	<vehicle depart="0.1" departLane="0" departPos="9.671792959960676" departSpeed="4.378204" id="388" type="passenger">
		<route edges="687 691 695 699"/>
	</vehicle>
	<vehicle depart="0.1" departLane="0" departPos="29.40129306189732" departSpeed="0.0" id="333" type="motorcycle">
		<route edges="887 637"/>
	</vehicle>
	<vehicle depart="0.1" departLane="0" departPos="144.60834950629828" departSpeed="1.444282" id="334" type="motorcycle">
		<route edges="637 695"/>
	</vehicle>
	<vehicle depart="0.1" departLane="0" departPos="73.24383780677056" departSpeed="0.022897437" id="348" type="motorcycle">
		<route edges="697 746"/>
	</vehicle>
	<vehicle depart="0.1" departLane="0" departPos="3.646867662550865" departSpeed="1.0604645" id="387" type="motorcycle">
		<route edges="231 685"/>
	</vehicle>
	<vehicle depart="0.1" departLane="0" departPos="38.60203106795928" departSpeed="0.0" id="328" type="truck">
		<route edges="887 637"/>
	</vehicle>
</routes>
