<!-- generated on Wed Feb 10 12:29:10 2021 by Eclipse SUMO netconvert Version 1.8.0
<configuration xmlns:xsi="http://www.w3.org/2001/XMLSchema-instance" xsi:noNamespaceSchemaLocation="http://sumo.dlr.de/xsd/netconvertConfiguration.xsd">

    <input>
        <node-files value="./converted_scenarios/SUMO/DEU_Flensburg-26_1_I-1-1/DEU_Flensburg-26_1_I-1-1.nod.xml"/>
        <edge-files value="./converted_scenarios/SUMO/DEU_Flensburg-26_1_I-1-1/DEU_Flensburg-26_1_I-1-1.edg.xml"/>
        <connection-files value="./converted_scenarios/SUMO/DEU_Flensburg-26_1_I-1-1/DEU_Flensburg-26_1_I-1-1.con.xml"/>
        <tllogic-files value="./converted_scenarios/SUMO/DEU_Flensburg-26_1_I-1-1/DEU_Flensburg-26_1_I-1-1.tll.xml"/>
        <type-files value="/home/zen/commonroad-interactive-benchmarks/install/commonroad-map-tool/crmapconverter/sumo_map/templates/DEU.typ.xml"/>
    </input>

    <output>
        <output-file value="./converted_scenarios/SUMO/DEU_Flensburg-26_1_I-1-1/DEU_Flensburg-26_1_I-1-1.net.xml"/>
    </output>

    <processing>
        <geometry.remove.keep-edges.explicit value="true"/>
        <geometry.avoid-overlap value="true"/>
        <offset.disable-normalization value="true"/>
    </processing>

    <junctions>
        <no-turnarounds value="true"/>
        <junctions.internal-link-detail value="20"/>
    </junctions>

    <report>
        <aggregate-warnings value="5"/>
    </report>

    <random_number>
        <seed value="1234"/>
    </random_number>

</configuration>
--><net xmlns:xsi="http://www.w3.org/2001/XMLSchema-instance" version="1.6" junctionCornerDetail="5" junctionLinkDetail="20" limitTurnSpeed="5.50" xsi:noNamespaceSchemaLocation="http://sumo.dlr.de/xsd/net_file.xsd">

    <location netOffset="0.00,0.00" convBoundary="404.65,-414.94,509.02,-241.49" origBoundary="404.65,-414.94,509.02,-241.49" projParameter="!"/>

    <type id="highway.bridleway" priority="1" speed="2.78" allow="pedestrian" oneway="1" width="2.00"/>
    <type id="highway.bus_guideway" priority="1" speed="27.78" allow="bus" oneway="1"/>
    <type id="highway.cycleway" priority="1" speed="8.33" allow="bicycle" oneway="0" width="1.00"/>
    <type id="highway.footway" priority="1" speed="2.78" allow="pedestrian" oneway="1" width="2.00"/>
    <type id="highway.ford" priority="1" speed="2.78" allow="army" oneway="0"/>
    <type id="highway.living_street" priority="2" speed="2.78" disallow="tram rail_urban rail rail_electric rail_fast ship" oneway="0"/>
    <type id="highway.motorway" priority="14" speed="39.44" allow="private emergency authority army vip passenger hov taxi bus coach delivery truck trailer motorcycle evehicle custom1 custom2" oneway="1"/>
    <type id="highway.motorway_link" priority="9" speed="22.22" allow="private emergency authority army vip passenger hov taxi bus coach delivery truck trailer motorcycle evehicle custom1 custom2" oneway="1"/>
    <type id="highway.path" priority="1" speed="2.78" allow="pedestrian bicycle" oneway="0" width="2.00"/>
    <type id="highway.pedestrian" priority="1" speed="2.78" allow="pedestrian" oneway="1" width="2.00"/>
    <type id="highway.primary" priority="12" speed="27.78" disallow="pedestrian tram rail_urban rail rail_electric rail_fast ship" oneway="0"/>
    <type id="highway.primary_link" priority="7" speed="22.22" disallow="pedestrian tram rail_urban rail rail_electric rail_fast ship" oneway="0"/>
    <type id="highway.raceway" priority="15" speed="83.33" allow="vip" oneway="0"/>
    <type id="highway.residential" priority="3" speed="13.89" disallow="pedestrian tram rail_urban rail rail_electric rail_fast ship" oneway="0"/>
    <type id="highway.secondary" priority="11" speed="27.78" disallow="pedestrian tram rail_urban rail rail_electric rail_fast ship" oneway="0"/>
    <type id="highway.secondary_link" priority="6" speed="22.22" disallow="pedestrian tram rail_urban rail rail_electric rail_fast ship" oneway="0"/>
    <type id="highway.service" priority="1" speed="5.56" allow="pedestrian delivery bicycle" oneway="0"/>
    <type id="highway.stairs" priority="1" speed="1.39" allow="pedestrian" oneway="1" width="2.00"/>
    <type id="highway.step" priority="1" speed="1.39" allow="pedestrian" oneway="1" width="2.00"/>
    <type id="highway.steps" priority="1" speed="1.39" allow="pedestrian" oneway="1" width="2.00"/>
    <type id="highway.tertiary" priority="10" speed="22.22" disallow="pedestrian tram rail_urban rail rail_electric rail_fast ship" oneway="0"/>
    <type id="highway.tertiary_link" priority="5" speed="22.22" disallow="pedestrian tram rail_urban rail rail_electric rail_fast ship" oneway="0"/>
    <type id="highway.track" priority="1" speed="5.56" allow="pedestrian motorcycle moped bicycle" oneway="0"/>
    <type id="highway.trunk" priority="13" speed="27.78" disallow="pedestrian bicycle tram rail_urban rail rail_electric rail_fast ship" oneway="0"/>
    <type id="highway.trunk_link" priority="8" speed="22.22" disallow="pedestrian bicycle tram rail_urban rail rail_electric rail_fast ship" oneway="0"/>
    <type id="highway.unclassified" priority="4" speed="13.89" disallow="pedestrian tram rail_urban rail rail_electric rail_fast ship" oneway="0"/>
    <type id="highway.unsurfaced" priority="1" speed="8.33" disallow="tram rail_urban rail rail_electric rail_fast ship" oneway="0"/>
    <type id="railway.highspeed" priority="21" speed="69.44" allow="rail_fast" oneway="1"/>
    <type id="railway.light_rail" priority="19" speed="27.78" allow="rail_urban" oneway="1"/>
    <type id="railway.preserved" priority="16" speed="27.78" allow="rail" oneway="1"/>
    <type id="railway.rail" priority="20" speed="44.44" allow="rail" oneway="1"/>
    <type id="railway.subway" priority="18" speed="27.78" allow="rail_urban" oneway="1"/>
    <type id="railway.tram" priority="17" speed="13.89" allow="tram" oneway="1"/>

    <edge id=":25_0" function="internal">
        <lane id=":25_0_0" index="0" disallow="pedestrian tram rail_urban rail rail_electric rail_fast ship" speed="7.85" length="11.48" width="3.50" shape="459.30,-342.93 458.95,-344.27 458.35,-345.51 457.49,-346.58 456.41,-347.44 455.19,-348.08 453.88,-348.53 452.08,-348.90 450.72,-349.04"/>
    </edge>
    <edge id=":25_1" function="internal">
        <lane id=":25_1_0" index="0" disallow="pedestrian tram rail_urban rail rail_electric rail_fast ship" speed="36.11" length="16.64" width="3.50" shape="459.30,-342.93 457.97,-351.12 456.63,-359.35"/>
    </edge>
    <edge id=":25_2" function="internal">
        <lane id=":25_2_0" index="0" disallow="pedestrian tram rail_urban rail rail_electric rail_fast ship" speed="36.11" length="16.57" width="3.50" shape="460.08,-359.91 461.42,-351.68 462.74,-343.55"/>
    </edge>
    <edge id=":25_3" function="internal">
        <lane id=":25_3_0" index="0" disallow="pedestrian tram rail_urban rail rail_electric rail_fast ship" speed="8.29" length="17.50" width="3.50" shape="460.08,-359.91 460.34,-357.50 460.24,-355.12 459.89,-353.57 459.23,-352.13 458.77,-351.48 458.22,-350.91 457.60,-350.41 456.92,-350.00 455.44,-349.42 453.88,-349.11 451.50,-349.00 450.72,-349.04"/>
    </edge>
    <edge id=":25_4" function="internal">
        <lane id=":25_4_0" index="0" disallow="pedestrian tram rail_urban rail rail_electric rail_fast ship" speed="6.75" length="11.14" width="3.50" shape="450.84,-352.54 451.52,-352.52 452.10,-352.51 452.68,-352.53 453.26,-352.59 453.83,-352.70 454.39,-352.86 454.93,-353.08 455.43,-353.38 455.86,-353.76 456.20,-354.23 456.46,-354.75 456.64,-355.31 456.75,-355.88 456.81,-356.45 456.83,-357.03 456.82,-357.62 456.78,-358.20 456.72,-358.77 456.63,-359.35"/>
    </edge>
    <edge id=":25_5" function="internal">
        <lane id=":25_5_0" index="0" disallow="pedestrian tram rail_urban rail rail_electric rail_fast ship" speed="9.23" length="16.25" width="3.50" shape="450.84,-352.54 452.76,-352.33 455.14,-351.82 456.94,-351.15 458.66,-350.18 460.19,-348.87 461.41,-347.24 462.26,-345.42 462.74,-343.55"/>
    </edge>
    <edge id=":26_0" function="internal">
        <lane id=":26_0_0" index="0" disallow="pedestrian tram rail_urban rail rail_electric rail_fast ship" speed="36.11" length="16.09" width="3.50" shape="484.31,-242.22 472.83,-243.02 468.25,-243.26"/>
    </edge>
    <edge id=":26_1" function="internal">
        <lane id=":26_1_0" index="0" disallow="pedestrian tram rail_urban rail rail_electric rail_fast ship" speed="9.61" length="17.05" width="3.50" shape="484.31,-242.22 483.63,-242.30 481.72,-242.73 479.85,-243.52 478.15,-244.69 476.73,-246.16 475.63,-247.83 474.82,-249.58 474.24,-251.39 473.74,-253.78"/>
    </edge>
    <edge id=":26_2" function="internal">
        <lane id=":26_2_0" index="0" disallow="pedestrian tram rail_urban rail rail_electric rail_fast ship" speed="9.18" length="14.93" width="3.50" shape="477.19,-254.32 477.34,-253.51 477.54,-252.74 477.78,-252.00 478.06,-251.31 478.39,-250.64 478.76,-250.02 479.18,-249.44 479.64,-248.89 480.14,-248.38 480.69,-247.91 481.28,-247.47 481.91,-247.08 482.59,-246.72 483.31,-246.39 484.08,-246.11 484.89,-245.86 485.74,-245.66 486.64,-245.48 487.58,-245.35"/>
    </edge>
    <edge id=":26_3" function="internal">
        <lane id=":26_3_0" index="0" disallow="pedestrian tram rail_urban rail rail_electric rail_fast ship" speed="8.22" length="17.20" width="3.50" shape="477.19,-254.33 477.43,-251.99 477.35,-249.64 477.04,-248.11 476.45,-246.66 476.03,-246.00 474.95,-244.88 474.31,-244.43 472.89,-243.78 471.37,-243.41 469.03,-243.24 468.25,-243.26"/>
    </edge>
    <edge id=":26_4" function="internal">
        <lane id=":26_4_0" index="0" disallow="pedestrian tram rail_urban rail rail_electric rail_fast ship" speed="6.66" length="10.84" width="3.50" shape="468.40,-246.75 468.97,-246.75 469.54,-246.76 470.11,-246.79 470.68,-246.88 471.23,-247.01 471.77,-247.20 472.28,-247.46 472.72,-247.82 473.11,-248.24 473.40,-248.73 473.61,-249.26 473.77,-249.81 473.86,-250.37 473.91,-250.94 473.93,-251.51 473.91,-252.08 473.88,-252.65 473.82,-253.22 473.74,-253.78"/>
    </edge>
    <edge id=":26_5" function="internal">
        <lane id=":26_5_0" index="0" disallow="pedestrian tram rail_urban rail rail_electric rail_fast ship" speed="36.11" length="15.52" width="3.50" shape="468.40,-246.75 483.89,-245.75"/>
    </edge>
    <edge id=":28_0" function="internal">
        <lane id=":28_0_0" index="0" disallow="pedestrian tram rail_urban rail rail_electric rail_fast ship" speed="8.79" length="17.55" width="3.50" shape="450.49,-397.10 450.37,-398.80 450.50,-399.93 450.85,-401.01 451.43,-401.99 452.21,-402.82 453.63,-403.77 455.21,-404.41 462.99,-405.70"/>
    </edge>
    <edge id=":28_1" function="internal">
        <lane id=":28_1_0" index="0" disallow="pedestrian tram rail_urban rail rail_electric rail_fast ship" speed="36.11" length="16.97" width="3.50" shape="446.23,-403.07 450.93,-403.85 462.99,-405.70"/>
    </edge>
    <edge id=":28_2" function="internal">
        <lane id=":28_2_0" index="0" disallow="pedestrian tram rail_urban rail rail_electric rail_fast ship" speed="6.98" length="10.43" width="3.50" shape="446.25,-402.94 446.59,-402.97 448.37,-402.90 450.11,-402.53 451.19,-402.05 452.14,-401.34 452.91,-400.44 453.46,-399.39 453.94,-397.66"/>
    </edge>

    <edge id="133" from="18" to="28" priority="3" type="highway.residential" spreadType="center" length="12.06">
        <lane id="133_0" index="0" disallow="pedestrian tram rail_urban rail rail_electric rail_fast ship" speed="36.11" length="12.06" width="3.50" customShape="1" shape="434.32,-401.15 439.27,-401.94 446.23,-403.05"/>
    </edge>
    <edge id="135" from="28" to="2" priority="3" type="highway.residential" spreadType="center" length="47.08">
        <lane id="135_0" index="0" disallow="pedestrian tram rail_urban rail rail_electric rail_fast ship" speed="36.11" length="47.08" width="3.50" customShape="1" shape="462.99,-405.70 469.63,-406.61 483.14,-408.39 491.10,-409.76 497.50,-411.21 503.32,-412.89 508.55,-414.76 509.02,-414.94"/>
    </edge>
    <edge id="1399" from="26" to="27" priority="3" type="highway.residential" spreadType="center" length="0.20" shape="474.77,-249.77 484.62,-245.70">
        <lane id="1399_0" index="0" disallow="pedestrian tram rail_urban rail rail_electric rail_fast ship" speed="36.11" length="0.20" width="3.50" customShape="1" shape="487.58,-245.35 487.78,-245.33"/>
    </edge>
    <edge id="1539" from="26" to="27" priority="3" type="highway.residential" spreadType="center" length="0.73">
        <lane id="1539_0" index="0" disallow="pedestrian tram rail_urban rail rail_electric rail_fast ship" speed="36.11" length="0.73" width="3.50" customShape="1" shape="483.89,-245.75 484.62,-245.70"/>
    </edge>
    <edge id="200" from="25" to="28" priority="3" type="highway.residential" spreadType="center" length="38.25" shape="455.00,-351.03 449.82,-400.50">
        <lane id="200_0" index="0" disallow="pedestrian tram rail_urban rail rail_electric rail_fast ship" speed="36.11" length="38.25" width="3.50" customShape="1" shape="456.63,-359.35 453.56,-378.21 450.49,-397.10"/>
    </edge>
    <edge id="201" from="28" to="25" priority="3" type="highway.residential" spreadType="center" length="38.28" shape="453.30,-400.86 458.48,-351.39">
        <lane id="201_0" index="0" disallow="pedestrian tram rail_urban rail rail_electric rail_fast ship" speed="36.11" length="38.28" width="3.50" customShape="1" shape="453.94,-397.66 457.01,-378.77 460.09,-359.88"/>
    </edge>
    <edge id="203" from="26" to="25" priority="3" type="highway.residential" spreadType="center" length="90.36" shape="472.66,-247.74 455.01,-350.92">
        <lane id="203_0" index="0" disallow="pedestrian tram rail_urban rail rail_electric rail_fast ship" speed="36.11" length="90.36" width="3.50" customShape="1" shape="473.74,-253.78 471.71,-266.63 459.29,-342.98"/>
    </edge>
    <edge id="204" from="25" to="26" priority="3" type="highway.residential" spreadType="center" length="90.39" shape="458.46,-351.51 476.11,-248.33">
        <lane id="204_0" index="0" disallow="pedestrian tram rail_urban rail rail_electric rail_fast ship" speed="36.11" length="90.39" width="3.50" customShape="1" shape="462.74,-343.55 475.16,-267.18 477.19,-254.32"/>
    </edge>
    <edge id="357" from="11" to="26" priority="3" type="highway.residential" spreadType="center" length="9.02" shape="493.30,-241.49 473.80,-246.41">
        <lane id="357_0" index="0" disallow="pedestrian tram rail_urban rail rail_electric rail_fast ship" speed="36.11" length="9.02" width="3.50" customShape="1" shape="493.30,-241.49 488.31,-241.89 486.34,-242.05 484.31,-242.22"/>
    </edge>
    <edge id="359" from="16" to="26" priority="3" type="highway.residential" spreadType="center" length="63.78" shape="404.65,-246.70 474.34,-249.82">
        <lane id="359_0" index="0" disallow="pedestrian tram rail_urban rail rail_electric rail_fast ship" speed="36.11" length="63.78" width="3.50" customShape="1" shape="404.65,-246.70 423.28,-247.32 438.95,-247.61 450.65,-247.50 468.40,-246.75"/>
    </edge>
    <edge id="360" from="26" to="21" priority="3" type="highway.residential" spreadType="center" length="63.54" shape="474.50,-246.32 404.74,-243.20">
        <lane id="360_0" index="0" disallow="pedestrian tram rail_urban rail rail_electric rail_fast ship" speed="36.11" length="63.54" width="3.50" customShape="1" shape="468.25,-243.26 450.56,-244.00 438.96,-244.11 423.38,-243.82 404.74,-243.20"/>
    </edge>
    <edge id="784" from="3" to="25" priority="3" type="highway.residential" spreadType="center" length="50.23" shape="427.43,-318.21 455.43,-352.37">
        <lane id="784_0" index="0" disallow="pedestrian tram rail_urban rail rail_electric rail_fast ship" speed="36.11" length="50.23" width="3.50" customShape="1" shape="427.43,-318.21 426.91,-326.66 426.81,-331.29 427.06,-334.96 427.53,-337.70 428.09,-339.40 429.33,-341.99 430.87,-344.40 433.62,-347.74 435.51,-349.69 436.91,-350.75 438.55,-351.62 440.31,-352.14 442.53,-352.48 446.24,-352.69 450.94,-352.53"/>
    </edge>
    <edge id="785" from="25" to="8" priority="3" type="highway.residential" spreadType="center" length="44.36" shape="458.11,-350.13 430.92,-318.37">
        <lane id="785_0" index="0" disallow="pedestrian tram rail_urban rail rail_electric rail_fast ship" speed="36.11" length="44.36" width="3.50" customShape="1" shape="450.72,-349.04 446.29,-349.20 442.91,-349.00 441.08,-348.73 439.90,-348.40 438.83,-347.83 437.85,-347.09 436.25,-345.43 433.71,-342.35 432.40,-340.31 431.35,-338.13 430.93,-336.87 430.53,-334.55 430.30,-331.23 430.41,-326.84 430.92,-318.37"/>
    </edge>

    <junction id="11" type="dead_end" x="493.30" y="-241.49" incLanes="" intLanes="" shape="493.44,-243.24 493.16,-239.75" rightOfWay="edgePriority"/>
    <junction id="16" type="dead_end" x="404.65" y="-246.70" incLanes="" intLanes="" shape="404.71,-244.95 404.59,-248.45" rightOfWay="edgePriority"/>
    <junction id="18" type="dead_end" x="434.32" y="-401.15" incLanes="" intLanes="" shape="434.60,-399.42 434.04,-402.87" rightOfWay="edgePriority"/>
    <junction id="2" type="dead_end" x="509.02" y="-414.94" incLanes="135_0" intLanes="" shape="508.37,-416.57 509.66,-413.32" rightOfWay="edgePriority"/>
    <junction id="21" type="dead_end" x="404.74" y="-243.20" incLanes="360_0" intLanes="" shape="404.80,-241.45 404.68,-244.95" rightOfWay="edgePriority"/>
    <junction id="25" type="priority" x="456.74" y="-351.21" incLanes="203_0 201_0 784_0" intLanes=":25_0_0 :25_1_0 :25_2_0 :25_3_0 :25_4_0 :25_5_0" shape="457.57,-342.70 464.47,-343.83 461.81,-360.19 454.90,-359.07 454.82,-356.34 454.30,-355.40 453.48,-354.74 452.35,-354.37 450.90,-354.28 450.66,-347.29 454.18,-346.68 455.48,-346.04 456.48,-345.16 457.18,-344.04">
        <request index="0" response="000000" foes="001000" cont="0"/>
        <request index="1" response="000000" foes="111000" cont="0"/>
        <request index="2" response="000000" foes="100000" cont="0"/>
        <request index="3" response="000011" foes="100011" cont="0"/>
        <request index="4" response="000010" foes="000010" cont="0"/>
        <request index="5" response="001110" foes="001110" cont="0"/>
    </junction>
    <junction id="26" type="priority" x="474.38" y="-248.07" incLanes="357_0 204_0 359_0" intLanes=":26_0_0 :26_1_0 :26_2_0 :26_3_0 :26_4_0 :26_5_0" shape="484.17,-240.47 484.45,-243.96 488.43,-243.45 493.20,-246.60 483.80,-244.01 483.98,-247.50 481.65,-248.42 480.72,-249.42 479.96,-250.78 479.36,-252.51 478.92,-254.60 472.01,-253.51 471.98,-250.65 471.53,-249.66 470.80,-248.98 469.78,-248.59 468.47,-248.50 468.18,-241.51">
        <request index="0" response="000000" foes="001000" cont="0"/>
        <request index="1" response="110000" foes="111000" cont="0"/>
        <request index="2" response="100000" foes="100000" cont="0"/>
        <request index="3" response="100011" foes="100011" cont="0"/>
        <request index="4" response="000000" foes="000010" cont="0"/>
        <request index="5" response="000000" foes="001110" cont="0"/>
    </junction>
    <junction id="27" type="dead_end" x="484.62" y="-245.70" incLanes="1399_0 1539_0" intLanes="" shape="484.82,-247.44 484.41,-243.97 484.74,-247.45 484.49,-243.96"/>
    <junction id="28" type="priority" x="451.57" y="-400.62" incLanes="200_0 133_0" intLanes=":28_0_0 :28_1_0 :28_2_0" shape="448.76,-396.82 455.66,-397.94 456.15,-400.79 457.16,-401.89 458.67,-402.79 460.69,-403.49 463.23,-403.97 462.75,-407.44 445.95,-404.78 446.51,-401.33 447.41,-400.93 447.81,-400.32 448.17,-399.43 448.48,-398.26">
        <request index="0" response="110" foes="110" cont="0"/>
        <request index="1" response="000" foes="001" cont="0"/>
        <request index="2" response="000" foes="001" cont="0"/>
    </junction>
    <junction id="3" type="dead_end" x="427.43" y="-318.21" incLanes="" intLanes="" shape="429.17,-318.32 425.68,-318.11" rightOfWay="edgePriority"/>
    <junction id="8" type="dead_end" x="430.92" y="-318.37" incLanes="785_0" intLanes="" shape="432.67,-318.48 429.18,-318.27" rightOfWay="edgePriority"/>

    <connection from="133" to="135" fromLane="0" toLane="0" contPos="-4.00" shape="444.23,-402.73 450.93,-403.85 457.62,-404.97" via=":28_1_0" dir="s" state="M"/>
    <connection from="133" to="201" fromLane="0" toLane="0" contPos="-4.00" shape="444.23,-402.73 446.59,-402.97 448.37,-402.90 450.11,-402.53 451.19,-402.05 452.14,-401.34 452.91,-400.44 453.46,-399.39 453.94,-397.66" via=":28_2_0" dir="l" state="M"/>
    <connection from="200" to="135" fromLane="0" toLane="0" contPos="-4.00" shape="450.49,-397.10 450.37,-398.80 450.50,-399.93 450.85,-401.01 451.43,-401.99 452.21,-402.82 453.63,-403.77 455.21,-404.41 457.62,-404.97" via=":28_0_0" dir="l" state="m"/>
    <connection from="201" to="204" fromLane="0" toLane="0" contPos="-4.00" shape="460.09,-359.88 461.42,-351.68 462.74,-343.55" via=":25_2_0" dir="s" state="M"/>
    <connection from="201" to="785" fromLane="0" toLane="0" contPos="-4.00" shape="460.09,-359.88 460.34,-357.50 460.24,-355.12 459.89,-353.57 459.23,-352.13 458.77,-351.48 458.22,-350.91 457.60,-350.41 456.92,-350.00 455.44,-349.42 453.88,-349.11 451.50,-349.00 450.72,-349.04" via=":25_3_0" dir="l" state="m"/>
    <connection from="203" to="785" fromLane="0" toLane="0" contPos="-4.00" shape="459.30,-342.93 458.95,-344.27 458.35,-345.51 457.49,-346.58 456.41,-347.44 455.19,-348.08 453.88,-348.53 452.08,-348.90 450.72,-349.04" via=":25_0_0" dir="r" state="M"/>
    <connection from="203" to="200" fromLane="0" toLane="0" contPos="-4.00" shape="459.30,-342.93 457.97,-351.12 456.63,-359.35" via=":25_1_0" dir="s" state="M"/>
    <connection from="204" to="1399" fromLane="0" toLane="0" contPos="-4.00" via=":26_2_0" dir="R" state="m"/>
    <connection from="204" to="360" fromLane="0" toLane="0" contPos="-4.00" shape="477.19,-254.32 477.43,-251.99 477.35,-249.64 477.04,-248.11 476.45,-246.66 476.03,-246.00 474.95,-244.88 474.31,-244.43 472.89,-243.78 471.37,-243.41 469.03,-243.24 468.25,-243.26" via=":26_3_0" dir="l" state="m"/>
    <connection from="357" to="360" fromLane="0" toLane="0" contPos="-4.00" shape="484.31,-242.22 472.83,-243.02 468.25,-243.26" via=":26_0_0" dir="s" state="M"/>
    <connection from="357" to="203" fromLane="0" toLane="0" contPos="-4.00" shape="484.31,-242.22 483.63,-242.30 481.72,-242.73 479.85,-243.52 478.15,-244.69 476.73,-246.16 475.63,-247.83 474.82,-249.58 474.24,-251.39 473.74,-253.78" via=":26_1_0" dir="l" state="m"/>
    <connection from="359" to="203" fromLane="0" toLane="0" contPos="-4.00" shape="468.40,-246.75 468.97,-246.75 469.54,-246.76 470.11,-246.79 470.68,-246.88 471.23,-247.01 471.77,-247.20 472.28,-247.46 472.72,-247.82 473.11,-248.24 473.40,-248.73 473.61,-249.26 473.77,-249.81 473.86,-250.37 473.91,-250.94 473.93,-251.51 473.91,-252.08 473.88,-252.65 473.82,-253.22 473.74,-253.78" via=":26_4_0" dir="r" state="M"/>
    <connection from="359" to="1539" fromLane="0" toLane="0" contPos="-4.00" via=":26_5_0" dir="s" state="M"/>
    <connection from="784" to="200" fromLane="0" toLane="0" contPos="-4.00" shape="450.94,-352.53 451.52,-352.52 452.10,-352.51 452.68,-352.53 453.26,-352.59 453.83,-352.70 454.39,-352.86 454.93,-353.08 455.43,-353.38 455.86,-353.76 456.20,-354.23 456.46,-354.75 456.64,-355.31 456.75,-355.88 456.81,-356.45 456.83,-357.03 456.82,-357.62 456.78,-358.20 456.72,-358.77 456.63,-359.35" via=":25_4_0" dir="r" state="m"/>
    <connection from="784" to="204" fromLane="0" toLane="0" contPos="-4.00" shape="450.94,-352.53 452.76,-352.33 455.14,-351.82 456.94,-351.15 458.66,-350.18 460.19,-348.87 461.41,-347.24 462.26,-345.42 462.74,-343.55" via=":25_5_0" dir="l" state="m"/>

    <connection from=":25_0" to="785" fromLane="0" toLane="0" dir="r" state="M"/>
    <connection from=":25_1" to="200" fromLane="0" toLane="0" dir="s" state="M"/>
    <connection from=":25_2" to="204" fromLane="0" toLane="0" dir="s" state="M"/>
    <connection from=":25_3" to="785" fromLane="0" toLane="0" dir="l" state="M"/>
    <connection from=":25_4" to="200" fromLane="0" toLane="0" dir="r" state="M"/>
    <connection from=":25_5" to="204" fromLane="0" toLane="0" dir="l" state="M"/>
    <connection from=":26_0" to="360" fromLane="0" toLane="0" dir="s" state="M"/>
    <connection from=":26_1" to="203" fromLane="0" toLane="0" dir="l" state="M"/>
    <connection from=":26_2" to="1399" fromLane="0" toLane="0" dir="R" state="M"/>
    <connection from=":26_3" to="360" fromLane="0" toLane="0" dir="l" state="M"/>
    <connection from=":26_4" to="203" fromLane="0" toLane="0" dir="r" state="M"/>
    <connection from=":26_5" to="1539" fromLane="0" toLane="0" dir="s" state="M"/>
    <connection from=":28_0" to="135" fromLane="0" toLane="0" dir="l" state="M"/>
    <connection from=":28_1" to="135" fromLane="0" toLane="0" dir="s" state="M"/>
    <connection from=":28_2" to="201" fromLane="0" toLane="0" dir="l" state="M"/>

</net>