<routes>
	<vehicle depart="0.1" departLane="0" departPos="37.16810452193796" departSpeed="8.0724597e-05" id="311" type="bicycle">
		<route edges="784 204"/>
	</vehicle>
	<vehicle depart="0.1" departLane="0" departPos="48.444277535498166" departSpeed="6.9212714" id="312" type="bicycle">
		<route edges="203 200 135"/>
	</vehicle>
	<vehicle depart="0.1" departLane="0" departPos="8.966808229040439" departSpeed="0.0" id="31" type="passenger">
		<route edges="357 203"/>
	</vehicle>
	<vehicle depart="0.1" departLane="0" departPos="90.48572872063819" departSpeed="0.0" id="34" type="passenger">
		<route edges="204 360"/>
	</vehicle>
	<vehicle depart="0.1" departLane="0" departPos="50.34680635775941" departSpeed="0.0" id="37" type="passenger">
		<route edges="784 204"/>
	</vehicle>
	<vehicle depart="0.1" departLane="0" departPos="43.08056341344215" departSpeed="0.0" id="38" type="passenger">
		<route edges="784 204"/>
	</vehicle>
	<vehicle depart="0.1" departLane="0" departPos="25.74348749539262" departSpeed="12.575867" id="39" type="passenger">
		<route edges="785"/>
	</vehicle>
	<vehicle depart="0.1" departLane="0" departPos="35.82429309589069" departSpeed="8.7596755e-05" id="314" type="passenger">
		<route edges="784 204"/>
	</vehicle>
	<vehicle depart="0.1" departLane="0" departPos="2.5" departSpeed="7.4052263" id="316" type="passenger">
		<route edges=":25_0 785"/>
	</vehicle>
	<vehicle depart="0.1" departLane="0" departPos="29.147021813380928" departSpeed="0.00090754087" id="317" type="passenger">
		<route edges="784 204"/>
	</vehicle>
	<vehicle depart="0.1" departLane="0" departPos="67.99015447786859" departSpeed="11.135729" id="320" type="passenger">
		<route edges="203 200 135"/>
	</vehicle>
	<vehicle depart="0.1" departLane="0" departPos="20.013774838502375" departSpeed="9.6990295" id="321" type="passenger">
		<route edges="203 785"/>
	</vehicle>
	<vehicle depart="0.1" departLane="0" departPos="17.233151880085206" departSpeed="0.022259431" id="323" type="passenger">
		<route edges="784 204"/>
	</vehicle>
	<vehicle depart="0.1" departLane="0" departPos="38.18061946063712" departSpeed="0.0" id="324" type="passenger">
		<route edges="201 785"/>
	</vehicle>
	<vehicle depart="0.1" departLane="0" departPos="4.831524162846883" departSpeed="8.5659312" id="326" type="passenger">
		<route edges="203 200"/>
	</vehicle>
	<vehicle depart="0.1" departLane="0" departPos="30.157481907396544" departSpeed="0.56756634" id="327" type="passenger">
		<route edges="201 785"/>
	</vehicle>
	<vehicle depart="0.1" departLane="0" departPos="64.85666198128295" departSpeed="6.4505745" id="328" type="passenger">
		<route edges="359 1539"/>
	</vehicle>
	<vehicle depart="0.1" departLane="0" departPos="5.229085319240602" departSpeed="0.094969862" id="331" type="passenger">
		<route edges="784 204"/>
	</vehicle>
	<vehicle depart="0.1" departLane="0" departPos="8.065725734369014" departSpeed="2.56011" id="332" type="passenger">
		<route edges="133 135"/>
	</vehicle>
	<vehicle depart="0.1" departLane="0" departPos="22.141938938219578" departSpeed="0.0054693694" id="319" type="motorcycle">
		<route edges="784 204"/>
	</vehicle>
	<vehicle depart="0.1" departLane="0" departPos="9.995184548319433" departSpeed="0.07148624" id="325" type="motorcycle">
		<route edges="784 204"/>
	</vehicle>
	<vehicle depart="0.1" departLane="0" departPos="30.983676678833657" departSpeed="0.4755125" id="30" type="truck">
		<route edges="200 135"/>
	</vehicle>
	<vehicle depart="0.1" departLane="0" departPos="82.89858959799959" departSpeed="0.31141802" id="310" type="truck">
		<route edges="204 360"/>
	</vehicle>
</routes>
