<routes>
	<vehicle depart="0.1" departLane="0" departPos="39.54568997587967" departSpeed="0.91833149" id="314" type="passenger">
		<route edges=":62_2 19527 19530"/>
	</vehicle>
	<vehicle depart="0.1" departLane="0" departPos="15.573674491995474" departSpeed="1.0763816" id="321" type="passenger">
		<route edges=":62_3 19482"/>
	</vehicle>
	<vehicle depart="0.1" departLane="0" departPos="5.307614418768657" departSpeed="2.614106" id="329" type="passenger">
		<route edges=":62_5 19527"/>
	</vehicle>
	<vehicle depart="0.1" departLane="0" departPos="44.99809542605983" departSpeed="2.402204" id="334" type="passenger">
		<route edges="19483 19527"/>
	</vehicle>
	<vehicle depart="0.1" departLane="0" departPos="35.14660788427038" departSpeed="1.3686036" id="336" type="passenger">
		<route edges="19483 19527"/>
	</vehicle>
	<vehicle depart="0.1" departLane="0" departPos="23.50935151086645" departSpeed="0.98891337" id="339" type="passenger">
		<route edges="19483 19527"/>
	</vehicle>
	<vehicle depart="0.1" departLane="0" departPos="13.308924988313834" departSpeed="2.0511679" id="343" type="passenger">
		<route edges="19483 19527"/>
	</vehicle>
	<vehicle depart="0.1" departLane="0" departPos="54.43047887438395" departSpeed="2.2111868" id="326" type="motorcycle">
		<route edges="19483 19527"/>
	</vehicle>
</routes>
