<!-- generated on Tue Feb  9 22:06:26 2021 by Eclipse SUMO netconvert Version 1.8.0
<configuration xmlns:xsi="http://www.w3.org/2001/XMLSchema-instance" xsi:noNamespaceSchemaLocation="http://sumo.dlr.de/xsd/netconvertConfiguration.xsd">

    <input>
        <node-files value="./converted_scenarios/scenario-factory/FRA_Miramas-2_1_I-1-1/FRA_Miramas-2_1_I-1-1.nod.xml"/>
        <edge-files value="./converted_scenarios/scenario-factory/FRA_Miramas-2_1_I-1-1/FRA_Miramas-2_1_I-1-1.edg.xml"/>
        <connection-files value="./converted_scenarios/scenario-factory/FRA_Miramas-2_1_I-1-1/FRA_Miramas-2_1_I-1-1.con.xml"/>
        <tllogic-files value="./converted_scenarios/scenario-factory/FRA_Miramas-2_1_I-1-1/FRA_Miramas-2_1_I-1-1.tll.xml"/>
        <type-files value="/home/zen/commonroad-interactive-benchmarks/install/commonroad-map-tool/crmapconverter/sumo_map/templates/DEU.typ.xml"/>
    </input>

    <output>
        <output-file value="./converted_scenarios/scenario-factory/FRA_Miramas-2_1_I-1-1/FRA_Miramas-2_1_I-1-1.net.xml"/>
    </output>

    <processing>
        <geometry.remove.keep-edges.explicit value="true"/>
        <geometry.avoid-overlap value="true"/>
        <offset.disable-normalization value="true"/>
    </processing>

    <junctions>
        <no-turnarounds value="true"/>
        <junctions.internal-link-detail value="20"/>
    </junctions>

    <report>
        <aggregate-warnings value="5"/>
    </report>

    <random_number>
        <seed value="1234"/>
    </random_number>

</configuration>
--><net xmlns:xsi="http://www.w3.org/2001/XMLSchema-instance" version="1.6" junctionCornerDetail="5" junctionLinkDetail="20" limitTurnSpeed="5.50" xsi:noNamespaceSchemaLocation="http://sumo.dlr.de/xsd/net_file.xsd">

    <location netOffset="0.00,0.00" convBoundary="588.97,-96.79,850.36,188.52" origBoundary="588.97,-96.79,850.36,188.52" projParameter="!"/>

    <type id="highway.bridleway" priority="1" speed="2.78" allow="pedestrian" oneway="1" width="2.00"/>
    <type id="highway.bus_guideway" priority="1" speed="27.78" allow="bus" oneway="1"/>
    <type id="highway.cycleway" priority="1" speed="8.33" allow="bicycle" oneway="0" width="1.00"/>
    <type id="highway.footway" priority="1" speed="2.78" allow="pedestrian" oneway="1" width="2.00"/>
    <type id="highway.ford" priority="1" speed="2.78" allow="army" oneway="0"/>
    <type id="highway.living_street" priority="2" speed="2.78" disallow="tram rail_urban rail rail_electric rail_fast ship" oneway="0"/>
    <type id="highway.motorway" priority="14" speed="39.44" allow="private emergency authority army vip passenger hov taxi bus coach delivery truck trailer motorcycle evehicle custom1 custom2" oneway="1"/>
    <type id="highway.motorway_link" priority="9" speed="22.22" allow="private emergency authority army vip passenger hov taxi bus coach delivery truck trailer motorcycle evehicle custom1 custom2" oneway="1"/>
    <type id="highway.path" priority="1" speed="2.78" allow="pedestrian bicycle" oneway="0" width="2.00"/>
    <type id="highway.pedestrian" priority="1" speed="2.78" allow="pedestrian" oneway="1" width="2.00"/>
    <type id="highway.primary" priority="12" speed="27.78" disallow="pedestrian tram rail_urban rail rail_electric rail_fast ship" oneway="0"/>
    <type id="highway.primary_link" priority="7" speed="22.22" disallow="pedestrian tram rail_urban rail rail_electric rail_fast ship" oneway="0"/>
    <type id="highway.raceway" priority="15" speed="83.33" allow="vip" oneway="0"/>
    <type id="highway.residential" priority="3" speed="13.89" disallow="pedestrian tram rail_urban rail rail_electric rail_fast ship" oneway="0"/>
    <type id="highway.secondary" priority="11" speed="27.78" disallow="pedestrian tram rail_urban rail rail_electric rail_fast ship" oneway="0"/>
    <type id="highway.secondary_link" priority="6" speed="22.22" disallow="pedestrian tram rail_urban rail rail_electric rail_fast ship" oneway="0"/>
    <type id="highway.service" priority="1" speed="5.56" allow="pedestrian delivery bicycle" oneway="0"/>
    <type id="highway.stairs" priority="1" speed="1.39" allow="pedestrian" oneway="1" width="2.00"/>
    <type id="highway.step" priority="1" speed="1.39" allow="pedestrian" oneway="1" width="2.00"/>
    <type id="highway.steps" priority="1" speed="1.39" allow="pedestrian" oneway="1" width="2.00"/>
    <type id="highway.tertiary" priority="10" speed="22.22" disallow="pedestrian tram rail_urban rail rail_electric rail_fast ship" oneway="0"/>
    <type id="highway.tertiary_link" priority="5" speed="22.22" disallow="pedestrian tram rail_urban rail rail_electric rail_fast ship" oneway="0"/>
    <type id="highway.track" priority="1" speed="5.56" allow="pedestrian motorcycle moped bicycle" oneway="0"/>
    <type id="highway.trunk" priority="13" speed="27.78" disallow="pedestrian bicycle tram rail_urban rail rail_electric rail_fast ship" oneway="0"/>
    <type id="highway.trunk_link" priority="8" speed="22.22" disallow="pedestrian bicycle tram rail_urban rail rail_electric rail_fast ship" oneway="0"/>
    <type id="highway.unclassified" priority="4" speed="13.89" disallow="pedestrian tram rail_urban rail rail_electric rail_fast ship" oneway="0"/>
    <type id="highway.unsurfaced" priority="1" speed="8.33" disallow="tram rail_urban rail rail_electric rail_fast ship" oneway="0"/>
    <type id="railway.highspeed" priority="21" speed="69.44" allow="rail_fast" oneway="1"/>
    <type id="railway.light_rail" priority="19" speed="27.78" allow="rail_urban" oneway="1"/>
    <type id="railway.preserved" priority="16" speed="27.78" allow="rail" oneway="1"/>
    <type id="railway.rail" priority="20" speed="44.44" allow="rail" oneway="1"/>
    <type id="railway.subway" priority="18" speed="27.78" allow="rail_urban" oneway="1"/>
    <type id="railway.tram" priority="17" speed="13.89" allow="tram" oneway="1"/>

    <edge id=":31_0" function="internal">
        <lane id=":31_0_0" index="0" disallow="pedestrian tram rail_urban rail rail_electric rail_fast ship" speed="36.11" length="0.10" width="3.50" shape="788.85,81.18 788.85,81.18"/>
    </edge>
    <edge id=":36_0" function="internal">
        <lane id=":36_0_0" index="0" disallow="pedestrian tram rail_urban rail rail_electric rail_fast ship" speed="36.11" length="2.99" width="3.50" shape="813.83,69.98 816.76,69.36"/>
    </edge>
    <edge id=":37_0" function="internal">
        <lane id=":37_0_0" index="0" disallow="pedestrian tram rail_urban rail rail_electric rail_fast ship" speed="36.11" length="0.10" width="3.50" shape="791.80,83.06 791.80,83.06"/>
    </edge>
    <edge id=":54_0" function="internal">
        <lane id=":54_0_0" index="0" disallow="pedestrian tram rail_urban rail rail_electric rail_fast ship" speed="36.11" length="3.00" width="3.50" shape="817.48,72.78 814.55,73.41"/>
    </edge>
    <edge id=":59_0" function="internal">
        <lane id=":59_0_0" index="0" disallow="pedestrian tram rail_urban rail rail_electric rail_fast ship" speed="20.82" length="23.93" width="3.47" shape="704.87,121.16 693.75,122.30 687.74,123.07 684.75,123.57 682.78,124.03 681.35,124.83"/>
    </edge>
    <edge id=":59_1" function="internal">
        <lane id=":59_1_0" index="0" disallow="pedestrian tram rail_urban rail rail_electric rail_fast ship" speed="12.96" length="34.14" width="3.50" shape="704.88,121.17 702.37,121.22 701.16,121.10 699.96,120.89 698.79,120.57 697.64,120.15 696.54,119.64 694.48,118.35 692.63,116.77 690.98,114.98 689.53,113.03 687.66,109.89 686.10,106.60 684.38,102.04 683.31,98.55"/>
    </edge>
    <edge id=":59_2" function="internal">
        <lane id=":59_2_0" index="0" disallow="pedestrian tram rail_urban rail rail_electric rail_fast ship" speed="11.99" length="29.22" width="3.50" shape="686.68,97.61 687.64,100.76 689.17,104.89 690.54,107.83 692.15,110.62 693.36,112.32 694.72,113.88 696.22,115.24 697.90,116.36 698.74,116.78 699.64,117.14 700.57,117.42 701.53,117.61 702.46,117.71 704.52,117.68"/>
    </edge>
    <edge id=":59_3" function="internal">
        <lane id=":59_3_0" index="0" disallow="pedestrian tram rail_urban rail rail_electric rail_fast ship" speed="13.65" length="29.62" width="3.47" shape="686.68,97.61 686.99,98.74 687.76,102.12 688.28,105.59 688.49,109.12 688.40,111.53 688.07,113.93 687.46,116.31 686.54,118.62 685.28,120.78 683.71,122.73 681.35,124.83"/>
    </edge>
    <edge id=":59_4" function="internal">
        <lane id=":59_4_0" index="0" disallow="pedestrian tram rail_urban rail rail_electric rail_fast ship" speed="12.71" length="25.53" width="3.50" shape="679.17,122.09 681.22,120.27 682.50,118.65 683.50,116.84 684.23,114.90 684.70,112.88 684.94,110.82 684.99,108.75 684.77,105.65 684.28,102.58 683.58,99.55 683.31,98.55"/>
    </edge>
    <edge id=":59_5" function="internal">
        <lane id=":59_5_0" index="0" disallow="pedestrian tram rail_urban rail rail_electric rail_fast ship" speed="21.78" length="25.91" width="3.50" shape="679.17,122.09 681.13,120.96 683.39,120.36 686.59,119.76 692.92,118.89 704.52,117.68"/>
    </edge>
    <edge id=":60_0" function="internal">
        <lane id=":60_0_0" index="0" disallow="pedestrian tram rail_urban rail rail_electric rail_fast ship" speed="36.11" length="4.03" width="3.50" shape="670.22,35.83 670.15,35.53 670.09,35.27 670.04,35.03 669.99,34.81 669.94,34.61 669.89,34.43 669.85,34.26 669.81,34.10 669.77,33.94 669.72,33.79 669.68,33.64 669.63,33.48 669.57,33.31 669.51,33.13 669.44,32.94 669.36,32.73 669.28,32.51 669.18,32.25 669.07,31.97"/>
    </edge>
    <edge id=":60_1" function="internal">
        <lane id=":60_1_0" index="0" disallow="pedestrian tram rail_urban rail rail_electric rail_fast ship" speed="16.06" length="36.70" width="3.50" shape="670.23,35.84 669.73,33.63 668.73,28.18 668.18,23.73 667.95,19.24 668.03,15.82 668.42,12.40 669.19,9.02 669.98,6.77 671.03,4.62 672.35,2.60 673.92,0.79"/>
    </edge>
    <edge id=":60_2" function="internal">
        <lane id=":60_2_0" index="0" disallow="pedestrian tram rail_urban rail rail_electric rail_fast ship" speed="15.22" length="32.99" width="3.50" shape="676.30,3.38 675.05,4.82 673.94,6.57 673.07,8.45 672.41,10.41 671.78,13.45 671.48,16.55 671.44,19.66 671.70,23.79 672.22,27.90 673.17,33.00 673.63,35.02"/>
    </edge>
    <edge id=":60_3" function="internal">
        <lane id=":60_3_0" index="0" disallow="pedestrian tram rail_urban rail rail_electric rail_fast ship" speed="36.11" length="33.56" width="3.50" shape="676.29,3.37 675.57,3.97 674.61,4.71 673.44,5.56 672.07,6.52 670.55,7.55 668.89,8.66 667.13,9.81 665.29,11.00 663.40,12.21 661.50,13.41 659.60,14.60 657.74,15.76 655.95,16.87 654.25,17.92 652.67,18.89 651.24,19.75 649.99,20.50 648.95,21.13 648.14,21.60"/>
    </edge>
    <edge id=":60_4" function="internal">
        <lane id=":60_4_0" index="0" disallow="pedestrian tram rail_urban rail rail_electric rail_fast ship" speed="26.12" length="34.79" width="3.50" shape="645.01,19.01 650.93,17.67 653.78,16.50 656.49,15.04 659.94,12.81 664.04,9.71 668.72,5.70 673.92,0.79"/>
    </edge>
    <edge id=":60_5" function="internal">
        <lane id=":60_5_0" index="0" disallow="pedestrian tram rail_urban rail rail_electric rail_fast ship" speed="12.99" length="38.03" width="3.50" shape="645.01,19.01 651.53,17.79 654.14,17.58 656.75,17.64 659.34,18.01 660.61,18.33 661.85,18.75 663.05,19.27 664.20,19.89 665.30,20.60 666.33,21.41 667.30,22.29 669.01,24.27 670.43,26.46 671.60,28.80 672.55,31.24 673.63,35.02"/>
    </edge>
    <edge id=":62_0" function="internal">
        <lane id=":62_0_0" index="0" disallow="pedestrian tram rail_urban rail rail_electric rail_fast ship" speed="10.97" length="28.76" width="3.49" shape="678.99,76.37 678.58,74.19 678.00,72.05 677.20,69.99 676.15,68.05 675.52,67.14 674.81,66.28 674.04,65.50 673.19,64.79 672.28,64.17 671.31,63.63 670.29,63.19 669.25,62.84 667.08,62.38 664.88,62.22 662.67,62.29 659.38,62.75 658.30,62.97"/>
    </edge>
    <edge id=":62_1" function="internal">
        <lane id=":62_1_0" index="0" disallow="pedestrian tram rail_urban rail rail_electric rail_fast ship" speed="36.11" length="39.03" width="3.50" shape="678.99,76.37 677.94,70.34 675.44,58.29 670.79,38.22"/>
    </edge>
    <edge id=":62_2" function="internal">
        <lane id=":62_2_0" index="0" disallow="pedestrian tram rail_urban rail rail_electric rail_fast ship" speed="36.11" length="39.28" width="3.50" shape="674.20,37.41 678.87,57.58 681.39,69.72 682.44,75.81"/>
    </edge>
    <edge id=":62_3" function="internal">
        <lane id=":62_3_0" index="0" disallow="pedestrian tram rail_urban rail rail_electric rail_fast ship" speed="12.21" length="34.67" width="3.49" shape="674.20,37.41 674.93,41.37 675.16,44.02 675.10,46.69 674.71,49.32 674.38,50.61 673.94,51.87 673.39,53.08 672.74,54.25 671.98,55.34 671.14,56.37 670.20,57.32 669.19,58.19 667.00,59.70 664.63,60.93 662.15,61.90 658.30,62.97"/>
    </edge>
    <edge id=":62_4" function="internal">
        <lane id=":62_4_0" index="0" disallow="pedestrian tram rail_urban rail rail_electric rail_fast ship" speed="11.21" length="29.05" width="3.50" shape="657.52,59.56 660.90,58.62 663.01,57.79 665.00,56.77 666.84,55.50 667.64,54.81 668.39,54.04 669.07,53.21 669.68,52.34 670.20,51.41 670.63,50.43 670.99,49.42 671.26,48.40 671.59,46.18 671.63,43.94 671.44,41.68 670.79,38.22"/>
    </edge>
    <edge id=":62_5" function="internal">
        <lane id=":62_5_0" index="0" disallow="pedestrian tram rail_urban rail rail_electric rail_fast ship" speed="11.99" length="34.59" width="3.50" shape="657.52,59.56 658.82,59.29 662.60,58.77 665.22,58.69 667.87,58.89 670.47,59.45 671.79,59.90 673.05,60.46 674.26,61.13 675.40,61.92 676.46,62.81 677.43,63.80 678.30,64.86 679.09,66.00 680.34,68.34 681.29,70.80 681.97,73.31 682.44,75.81"/>
    </edge>
    <edge id=":63_0" function="internal">
        <lane id=":63_0_0" index="0" disallow="pedestrian tram rail_urban rail rail_electric rail_fast ship" speed="11.30" length="26.97" width="3.50" shape="724.84,134.68 724.32,132.52 723.62,130.46 722.71,128.51 721.57,126.72 720.18,125.12 719.43,124.44 718.61,123.81 717.73,123.25 716.84,122.76 714.85,121.95 712.78,121.41 710.62,121.10 708.42,121.00 705.02,121.15"/>
    </edge>
    <edge id=":63_1" function="internal">
        <lane id=":63_1_0" index="0" disallow="pedestrian tram rail_urban rail rail_electric rail_fast ship" speed="12.30" length="34.09" width="3.50" shape="724.84,134.68 724.43,132.16 724.20,129.61 724.19,127.02 724.48,124.41 725.10,121.86 725.57,120.56 726.14,119.34 726.81,118.15 727.59,117.03 728.45,115.99 729.39,115.02 730.43,114.12 732.58,112.62 734.90,111.41 737.32,110.45 740.94,109.44"/>
    </edge>
    <edge id=":63_2" function="internal">
        <lane id=":63_2_0" index="0" disallow="pedestrian tram rail_urban rail rail_electric rail_fast ship" speed="11.30" length="28.62" width="3.50" shape="741.75,112.85 738.57,113.73 736.52,114.54 734.57,115.56 732.77,116.82 731.94,117.55 731.17,118.34 730.47,119.19 729.85,120.10 729.30,121.05 728.84,122.05 728.46,123.09 727.94,125.23 727.71,127.42 727.71,129.62 727.91,131.81 728.27,133.98"/>
    </edge>
    <edge id=":63_3" function="internal">
        <lane id=":63_3_0" index="0" disallow="pedestrian tram rail_urban rail rail_electric rail_fast ship" speed="36.11" length="37.70" width="3.50" shape="741.75,112.85 733.62,114.85 719.47,118.63 713.34,119.96 708.17,120.80 705.02,121.15"/>
    </edge>
    <edge id=":63_4" function="internal">
        <lane id=":63_4_0" index="0" disallow="pedestrian tram rail_urban rail rail_electric rail_fast ship" speed="36.11" length="37.21" width="3.50" shape="704.69,117.67 707.76,117.32 712.80,116.51 718.81,115.20 732.86,111.44 740.94,109.44"/>
    </edge>
    <edge id=":63_5" function="internal">
        <lane id=":63_5_0" index="0" disallow="pedestrian tram rail_urban rail rail_electric rail_fast ship" speed="12.27" length="32.15" width="3.50" shape="704.69,117.66 708.58,117.49 711.15,117.62 713.69,117.99 716.17,118.65 718.55,119.63 719.68,120.24 720.75,120.95 721.76,121.74 722.71,122.61 724.39,124.55 725.76,126.72 726.84,129.05 727.67,131.49 728.27,133.98"/>
    </edge>
    <edge id=":64_0" function="internal">
        <lane id=":64_0_0" index="0" disallow="pedestrian tram rail_urban rail rail_electric rail_fast ship" speed="14.33" length="17.99" width="3.50" shape="681.68,124.57 678.42,127.35 676.18,129.58 674.13,131.96 672.32,134.51 670.80,137.21 670.35,138.30"/>
    </edge>
    <edge id=":64_1" function="internal">
        <lane id=":64_1_0" index="0" disallow="pedestrian tram rail_urban rail rail_electric rail_fast ship" speed="25.75" length="31.19" width="3.50" shape="650.01,130.89 657.10,129.88 663.11,128.68 668.05,127.36 671.91,126.01 675.17,124.54 677.83,123.02 679.51,121.83"/>
    </edge>
    <edge id=":64_2" function="internal">
        <lane id=":64_2_0" index="0" disallow="pedestrian tram rail_urban rail rail_electric rail_fast ship" speed="8.93" length="21.83" width="3.50" shape="650.01,130.89 654.34,130.57 657.43,130.62 659.89,130.92 662.30,131.52 664.01,132.24 665.57,133.24 666.89,134.55 667.88,136.11 668.51,137.86 668.54,138.02"/>
    </edge>
    <edge id=":64_3" function="internal">
        <lane id=":64_3_0" index="0" disallow="pedestrian tram rail_urban rail rail_electric rail_fast ship" speed="15.35" length="20.63" width="3.50" shape="666.79,137.76 667.60,135.79 669.28,132.76 671.28,129.93 673.53,127.29 675.98,124.84 679.51,121.83"/>
    </edge>
    <edge id=":65_0" function="internal">
        <lane id=":65_0_0" index="0" disallow="pedestrian tram rail_urban rail rail_electric rail_fast ship" speed="14.45" length="29.03" width="3.50" shape="716.16,-22.69 713.03,-22.91 711.01,-22.83 708.98,-22.56 707.00,-22.09 705.06,-21.45 703.21,-20.63 700.51,-19.08 698.01,-17.22 695.69,-15.10 693.54,-12.77 691.56,-10.28"/>
    </edge>
    <edge id=":65_1" function="internal">
        <lane id=":65_1_0" index="0" disallow="pedestrian tram rail_urban rail rail_electric rail_fast ship" speed="11.74" length="35.88" width="3.50" shape="716.16,-22.69 712.05,-23.41 709.38,-24.11 706.79,-25.04 704.31,-26.26 703.14,-26.99 702.04,-27.81 701.01,-28.72 700.07,-29.74 699.25,-30.84 698.55,-32.03 697.98,-33.28 697.55,-34.59 697.24,-35.94 697.06,-37.30 697.00,-40.06 697.30,-42.80 697.87,-45.49 698.24,-46.83"/>
    </edge>
    <edge id=":65_2" function="internal">
        <lane id=":65_2_0" index="0" disallow="pedestrian tram rail_urban rail rail_electric rail_fast ship" speed="10.70" length="29.55" width="3.50" shape="701.56,-45.71 701.28,-44.71 700.79,-42.39 700.55,-40.09 700.60,-37.80 700.76,-36.74 701.01,-35.67 701.36,-34.65 701.81,-33.68 702.36,-32.77 703.01,-31.92 703.76,-31.13 704.58,-30.41 705.48,-29.76 706.42,-29.18 708.51,-28.16 710.72,-27.38 713.01,-26.79 716.61,-26.16"/>
    </edge>
    <edge id=":65_3" function="internal">
        <lane id=":65_3_0" index="0" disallow="pedestrian tram rail_urban rail rail_electric rail_fast ship" speed="36.11" length="37.16" width="3.50" shape="701.56,-45.71 701.06,-43.89 700.19,-39.88 698.02,-26.44 697.08,-22.23 696.13,-19.10 694.92,-16.02 693.40,-13.07 691.56,-10.28"/>
    </edge>
    <edge id=":65_4" function="internal">
        <lane id=":65_4_0" index="0" disallow="pedestrian tram rail_urban rail rail_electric rail_fast ship" speed="36.11" length="35.94" width="3.50" shape="688.82,-12.48 690.46,-14.96 691.86,-17.71 692.99,-20.58 693.87,-23.55 694.74,-27.57 696.83,-40.81 697.69,-44.83 698.24,-46.83"/>
    </edge>
    <edge id=":65_5" function="internal">
        <lane id=":65_5_0" index="0" disallow="pedestrian tram rail_urban rail rail_electric rail_fast ship" speed="15.30" length="32.61" width="3.50" shape="688.83,-12.48 690.94,-15.12 693.32,-17.69 695.92,-20.04 698.74,-22.11 701.79,-23.85 703.93,-24.78 706.15,-25.50 708.43,-26.02 710.75,-26.32 713.08,-26.41 716.61,-26.16"/>
    </edge>
    <edge id=":66_0" function="internal">
        <lane id=":66_0_0" index="0" disallow="pedestrian tram rail_urban rail rail_electric rail_fast ship" speed="11.39" length="27.54" width="3.50" shape="668.41,169.98 667.43,166.67 666.31,164.03 665.16,162.04 663.76,160.23 662.10,158.65 660.69,157.66 659.16,156.88 656.99,156.14 654.73,155.75 651.86,155.66 649.01,155.95 648.44,156.04"/>
    </edge>
    <edge id=":66_1" function="internal">
        <lane id=":66_1_0" index="0" disallow="pedestrian tram rail_urban rail rail_electric rail_fast ship" speed="31.91" length="21.18" width="3.50" shape="668.41,169.98 666.74,162.40 665.61,155.86 665.10,151.47 664.97,149.11"/>
    </edge>
    <edge id=":66_2" function="internal">
        <lane id=":66_2_0" index="0" disallow="pedestrian tram rail_urban rail rail_electric rail_fast ship" speed="29.91" length="19.85" width="3.50" shape="668.50,149.61 668.60,151.38 669.10,155.56 670.20,161.85 671.81,169.16"/>
    </edge>
    <edge id=":66_3" function="internal">
        <lane id=":66_3_0" index="0" disallow="pedestrian tram rail_urban rail rail_electric rail_fast ship" speed="10.34" length="18.96" width="3.50" shape="665.86,149.23 665.00,150.05 663.23,151.28 660.85,152.53 657.85,153.73 653.71,154.94 648.44,156.04"/>
    </edge>

    <edge id="19114" from="35" to="60" priority="3" type="highway.residential" spreadType="center" length="1.74" shape="643.30,19.35 668.57,16.88">
        <lane id="19114_0" index="0" disallow="pedestrian tram rail_urban rail rail_electric rail_fast ship" speed="36.11" length="1.74" width="3.50" customShape="1" shape="643.30,19.35 645.01,19.01"/>
    </edge>
    <edge id="19128" from="63" to="24" priority="3" type="highway.residential" spreadType="center" length="54.93" shape="725.97,121.25 739.06,187.84">
        <lane id="19128_0" index="0" disallow="pedestrian tram rail_urban rail rail_electric rail_fast ship" speed="36.11" length="54.93" width="3.50" customShape="1" shape="728.27,133.98 733.66,160.91 739.06,187.84"/>
    </edge>
    <edge id="19129" from="43" to="63" priority="3" type="highway.residential" spreadType="center" length="54.92" shape="735.62,188.52 722.53,121.92">
        <lane id="19129_0" index="0" disallow="pedestrian tram rail_urban rail rail_electric rail_fast ship" speed="36.11" length="54.92" width="3.50" customShape="1" shape="735.62,188.52 730.23,161.60 724.84,134.67"/>
    </edge>
    <edge id="19226" from="65" to="49" priority="3" type="highway.residential" spreadType="center" length="69.99" shape="700.66,-28.28 744.96,-96.79">
        <lane id="19226_0" index="0" disallow="pedestrian tram rail_urban rail rail_electric rail_fast ship" speed="36.11" length="69.99" width="3.50" customShape="1" shape="698.24,-46.83 699.23,-49.78 700.12,-51.66 701.25,-53.40 702.63,-54.95 704.62,-56.63 708.52,-59.21 713.68,-62.71 717.14,-65.02 719.56,-66.98 721.74,-69.21 724.32,-72.47 726.92,-76.36 731.36,-84.00 732.52,-86.33 733.53,-88.15 734.52,-89.34 735.69,-90.38 738.28,-92.11 744.96,-96.79"/>
    </edge>
    <edge id="19227" from="55" to="65" priority="3" type="highway.residential" spreadType="center" length="68.93" shape="747.91,-94.59 703.59,-26.38">
        <lane id="19227_0" index="0" disallow="pedestrian tram rail_urban rail rail_electric rail_fast ship" speed="36.11" length="68.93" width="3.49" customShape="1" shape="747.91,-94.59 740.40,-89.31 737.92,-87.68 737.00,-86.89 736.24,-85.91 735.38,-84.18 734.20,-81.93 729.77,-74.32 727.14,-70.40 724.52,-67.07 722.27,-64.73 719.78,-62.63 716.33,-60.25 711.24,-56.83 707.41,-54.30 705.56,-52.88 704.33,-51.62 703.31,-50.19 702.52,-48.58 701.55,-45.71"/>
    </edge>
    <edge id="19229" from="51" to="65" priority="3" type="highway.residential" spreadType="center" length="22.76" shape="738.14,-17.35 701.68,-25.68">
        <lane id="19229_0" index="0" disallow="pedestrian tram rail_urban rail rail_electric rail_fast ship" speed="36.11" length="22.76" width="3.50" customShape="1" shape="738.14,-17.35 732.45,-19.42 729.05,-20.40 723.11,-21.63 716.09,-22.70"/>
    </edge>
    <edge id="19230" from="65" to="50" priority="3" type="highway.residential" spreadType="center" length="23.44" shape="702.46,-29.09 739.32,-20.64">
        <lane id="19230_0" index="0" disallow="pedestrian tram rail_urban rail rail_electric rail_fast ship" speed="36.11" length="23.44" width="3.50" customShape="1" shape="716.61,-26.16 723.76,-25.07 729.90,-23.80 733.47,-22.76 739.32,-20.64"/>
    </edge>
    <edge id="19357" from="66" to="64" priority="3" type="highway.residential" spreadType="center" length="64.08" shape="662.75,156.43 667.29,132.63">
        <lane id="19357_0" index="0" disallow="pedestrian tram rail_urban rail rail_electric rail_fast ship" speed="36.11" length="64.08" width="3.50" customShape="1" shape="648.44,156.04 643.83,156.68 640.74,156.85 638.68,156.68 636.66,156.22 634.74,155.45 631.64,153.58 628.75,151.41 626.07,148.98 623.22,145.98 622.64,145.13 622.30,144.16 622.21,143.13 622.36,142.10 622.91,140.66 623.78,139.38 624.94,138.35 627.10,136.93 629.46,135.89 634.34,134.18 639.34,132.83 645.41,131.56 650.01,130.89"/>
    </edge>
    <edge id="19368" from="56" to="54" priority="3" type="highway.residential" spreadType="center" length="33.72">
        <lane id="19368_0" index="0" disallow="pedestrian tram rail_urban rail rail_electric rail_fast ship" speed="36.11" length="33.72" width="3.50" customShape="1" shape="850.36,65.34 847.39,66.13 836.48,68.77 817.48,72.78"/>
    </edge>
    <edge id="19369" from="36" to="53" priority="3" type="highway.residential" spreadType="center" length="33.51">
        <lane id="19369_0" index="0" disallow="pedestrian tram rail_urban rail rail_electric rail_fast ship" speed="36.11" length="33.51" width="3.50" customShape="1" shape="816.76,69.36 835.67,65.36 846.51,62.74 849.44,61.96"/>
    </edge>
    <edge id="19401" from="37" to="63" priority="3" type="highway.residential" spreadType="center" length="62.50" shape="791.80,83.06 725.13,123.15">
        <lane id="19401_0" index="0" disallow="pedestrian tram rail_urban rail rail_electric rail_fast ship" speed="36.11" length="62.50" width="3.50" customShape="1" shape="791.80,83.06 790.26,85.68 789.08,87.97 787.31,92.28 786.13,94.58 783.60,98.48 781.94,100.46 780.41,101.84 779.12,102.71 777.25,103.58 766.86,106.73 756.87,109.37 741.73,112.85"/>
    </edge>
    <edge id="19402" from="63" to="31" priority="3" type="highway.residential" spreadType="center" length="59.78" shape="723.33,120.14 788.85,81.18">
        <lane id="19402_0" index="0" disallow="pedestrian tram rail_urban rail rail_electric rail_fast ship" speed="36.11" length="59.78" width="3.50" customShape="1" shape="740.94,109.44 755.73,106.04 765.45,103.49 775.54,100.46 777.14,99.80 778.16,99.16 779.47,97.99 780.93,96.21 783.26,92.56 784.31,90.40 786.05,86.18 787.28,83.85 788.85,81.18"/>
    </edge>
    <edge id="19482" from="62" to="11" priority="3" type="highway.residential" spreadType="center" length="70.00" shape="670.75,60.10 589.69,76.04">
        <lane id="19482_0" index="0" disallow="pedestrian tram rail_urban rail rail_electric rail_fast ship" speed="36.11" length="70.00" width="3.49" customShape="1" shape="658.30,62.97 635.80,67.99 614.75,72.45 595.62,76.07 593.07,76.28 590.51,76.21 589.69,76.04"/>
    </edge>
    <edge id="19483" from="17" to="62" priority="3" type="highway.residential" spreadType="center" length="70.03" shape="588.97,72.15 670.08,56.67">
        <lane id="19483_0" index="0" disallow="pedestrian tram rail_urban rail rail_electric rail_fast ship" speed="36.11" length="70.03" width="3.49" customShape="1" shape="588.97,72.15 590.02,72.56 591.24,72.76 593.51,72.76 595.88,72.48 614.63,68.90 635.36,64.50 657.54,59.55"/>
    </edge>
    <edge id="19520" from="60" to="65" priority="3" type="highway.residential" spreadType="center" length="20.03" shape="667.21,17.60 700.77,-28.44">
        <lane id="19520_0" index="0" disallow="pedestrian tram rail_urban rail rail_electric rail_fast ship" speed="36.11" length="20.03" width="3.50" customShape="1" shape="673.92,0.79 678.83,-3.72 682.09,-6.17 684.96,-8.27 686.83,-10.00 688.83,-12.48"/>
    </edge>
    <edge id="19521" from="65" to="60" priority="3" type="highway.residential" spreadType="center" length="20.56" shape="703.60,-26.38 670.03,19.66">
        <lane id="19521_0" index="0" disallow="pedestrian tram rail_urban rail rail_electric rail_fast ship" speed="36.11" length="20.56" width="3.50" customShape="1" shape="691.56,-10.28 689.51,-7.74 687.46,-5.80 684.48,-3.57 681.24,-1.18 676.29,3.37"/>
    </edge>
    <edge id="19523" from="62" to="60" priority="3" type="highway.residential" spreadType="center" length="2.46" shape="668.63,58.55 666.87,18.70">
        <lane id="19523_0" index="0" disallow="pedestrian tram rail_urban rail rail_electric rail_fast ship" speed="36.11" length="2.46" width="3.50" customShape="1" shape="670.79,38.22 670.51,37.04 670.22,35.83"/>
    </edge>
    <edge id="19524" from="60" to="62" priority="3" type="highway.residential" spreadType="center" length="2.49" shape="670.37,18.55 672.12,58.39">
        <lane id="19524_0" index="0" disallow="pedestrian tram rail_urban rail rail_electric rail_fast ship" speed="36.11" length="2.49" width="3.50" customShape="1" shape="673.63,35.02 673.91,36.23 674.20,37.44"/>
    </edge>
    <edge id="19526" from="59" to="62" priority="3" type="highway.residential" spreadType="center" length="22.61" shape="688.52,114.09 668.71,58.94">
        <lane id="19526_0" index="0" disallow="pedestrian tram rail_urban rail rail_electric rail_fast ship" speed="36.11" length="22.61" width="3.50" customShape="1" shape="683.31,98.55 682.27,94.57 680.80,87.53 678.99,76.37"/>
    </edge>
    <edge id="19527" from="62" to="59" priority="3" type="highway.residential" spreadType="center" length="22.29" shape="672.00,57.75 691.82,112.91">
        <lane id="19527_0" index="0" disallow="pedestrian tram rail_urban rail rail_electric rail_fast ship" speed="36.11" length="22.29" width="3.50" customShape="1" shape="682.44,75.81 684.23,86.84 685.67,93.74 686.70,97.67"/>
    </edge>