<!-- generated on 2020-12-18 17:09:29.645853 by ipykernel_launcher.py v1_2_0+5214-53edc58fcd
-->
<edges>
	<edge from="1" function="normal" id="11" length="40.0" numLanes="1" priority="1" speed="36.11111111111111" spreadType="center" to="2">
		<lane allow="moped bicycle pedestrian custom1 trailer evehicle rail_urban ship private truck vip custom2 authority delivery rail_electric taxi tram army hov coach motorcycle passenger bus rail emergency" index="0" length="40.0" shape="0.0,20.1 0.404,20.1 0.8081,20.1 1.2121,20.1 1.6162,20.1 2.0202,20.1 2.4242,20.1 2.8283,20.1 3.2323,20.1 3.6364,20.1 4.0404,20.1 4.4444,20.1 4.8485,20.1 5.2525,20.1 5.6566,20.1 6.0606,20.1 6.4646,20.1 6.8687,20.1 7.2727,20.1 7.6768,20.1 8.0808,20.1 8.4848,20.1 8.8889,20.1 9.2929,20.1 9.697,20.1 10.101,20.1 10.5051,20.1 10.9091,20.1 11.3131,20.1 11.7172,20.1 12.1212,20.1 12.5253,20.1 12.9293,20.1 13.3333,20.1 13.7374,20.1 14.1414,20.1 14.5455,20.1 14.9495,20.1 15.3535,20.1 15.7576,20.1 16.1616,20.1 16.5657,20.1 16.9697,20.1 17.3737,20.1 17.7778,20.1 18.1818,20.1 18.5859,20.1 18.9899,20.1 19.3939,20.1 19.798,20.1 20.202,20.1 20.6061,20.1 21.0101,20.1 21.4141,20.1 21.8182,20.1 22.2222,20.1 22.6263,20.1 23.0303,20.1 23.4343,20.1 23.8384,20.1 24.2424,20.1 24.6465,20.1 25.0505,20.1 25.4545,20.1 25.8586,20.1 26.2626,20.1 26.6667,20.1 27.0707,20.1 27.4747,20.1 27.8788,20.1 28.2828,20.1 28.6869,20.1 29.0909,20.1 29.4949,20.1 29.899,20.1 30.303,20.1 30.7071,20.1 31.1111,20.1 31.5152,20.1 31.9192,20.1 32.3232,20.1 32.7273,20.1 33.1313,20.1 33.5354,20.1 33.9394,20.1 34.3434,20.1 34.7475,20.1 35.1515,20.1 35.5556,20.1 35.9596,20.1 36.3636,20.1 36.7677,20.1 37.1717,20.1 37.5758,20.1 37.9798,20.1 38.3838,20.1 38.7879,20.1 39.1919,20.1 39.596,20.1 40.0,20.1" speed="36.11111111111111" width="3.0"/>
	</edge>
	<edge from="3" function="normal" id="12" length="40.0" numLanes="1" priority="1" speed="36.11111111111111" spreadType="center" to="4">
		<lane allow="moped bicycle pedestrian custom1 trailer evehicle rail_urban ship private truck vip custom2 authority delivery rail_electric taxi tram army hov coach motorcycle passenger bus rail emergency" index="0" length="40.0" shape="0.0,23.1 0.404,23.1 0.8081,23.1 1.2121,23.1 1.6162,23.1 2.0202,23.1 2.4242,23.1 2.8283,23.1 3.2323,23.1 3.6364,23.1 4.0404,23.1 4.4444,23.1 4.8485,23.1 5.2525,23.1 5.6566,23.1 6.0606,23.1 6.4646,23.1 6.8687,23.1 7.2727,23.1 7.6768,23.1 8.0808,23.1 8.4848,23.1 8.8889,23.1 9.2929,23.1 9.697,23.1 10.101,23.1 10.5051,23.1 10.9091,23.1 11.3131,23.1 11.7172,23.1 12.1212,23.1 12.5253,23.1 12.9293,23.1 13.3333,23.1 13.7374,23.1 14.1414,23.1 14.5455,23.1 14.9495,23.1 15.3535,23.1 15.7576,23.1 16.1616,23.1 16.5657,23.1 16.9697,23.1 17.3737,23.1 17.7778,23.1 18.1818,23.1 18.5859,23.1 18.9899,23.1 19.3939,23.1 19.798,23.1 20.202,23.1 20.6061,23.1 21.0101,23.1 21.4141,23.1 21.8182,23.1 22.2222,23.1 22.6263,23.1 23.0303,23.1 23.4343,23.1 23.8384,23.1 24.2424,23.1 24.6465,23.1 25.0505,23.1 25.4545,23.1 25.8586,23.1 26.2626,23.1 26.6667,23.1 27.0707,23.1 27.4747,23.1 27.8788,23.1 28.2828,23.1 28.6869,23.1 29.0909,23.1 29.4949,23.1 29.899,23.1 30.303,23.1 30.7071,23.1 31.1111,23.1 31.5152,23.1 31.9192,23.1 32.3232,23.1 32.7273,23.1 33.1313,23.1 33.5354,23.1 33.9394,23.1 34.3434,23.1 34.7475,23.1 35.1515,23.1 35.5556,23.1 35.9596,23.1 36.3636,23.1 36.7677,23.1 37.1717,23.1 37.5758,23.1 37.9798,23.1 38.3838,23.1 38.7879,23.1 39.1919,23.1 39.596,23.1 40.0,23.1" speed="36.11111111111111" width="3.0"/>
	</edge>
	<edge from="5" function="normal" id="13" length="39.99999999999999" numLanes="1" priority="1" speed="36.11111111111111" spreadType="center" to="6">
		<lane allow="moped bicycle pedestrian custom1 trailer evehicle rail_urban ship private truck vip custom2 authority delivery rail_electric taxi tram army hov coach motorcycle passenger bus rail emergency" index="0" length="39.99999999999999" shape="40.0,26.1 39.596,26.1 39.1919,26.1 38.7879,26.1 38.3838,26.1 37.9798,26.1 37.5758,26.1 37.1717,26.1 36.7677,26.1 36.3636,26.1 35.9596,26.1 35.5556,26.1 35.1515,26.1 34.7475,26.1 34.3434,26.1 33.9394,26.1 33.5354,26.1 33.1313,26.1 32.7273,26.1 32.3232,26.1 31.9192,26.1 31.5152,26.1 31.1111,26.1 30.7071,26.1 30.303,26.1 29.899,26.1 29.4949,26.1 29.0909,26.1 28.6869,26.1 28.2828,26.1 27.8788,26.1 27.4747,26.1 27.0707,26.1 26.6667,26.1 26.2626,26.1 25.8586,26.1 25.4545,26.1 25.0505,26.1 24.6465,26.1 24.2424,26.1 23.8384,26.1 23.4343,26.1 23.0303,26.1 22.6263,26.1 22.2222,26.1 21.8182,26.1 21.4141,26.1 21.0101,26.1 20.6061,26.1 20.202,26.1 19.798,26.1 19.3939,26.1 18.9899,26.1 18.5859,26.1 18.1818,26.1 17.7778,26.1 17.3737,26.1 16.9697,26.1 16.5657,26.1 16.1616,26.1 15.7576,26.1 15.3535,26.1 14.9495,26.1 14.5455,26.1 14.1414,26.1 13.7374,26.1 13.3333,26.1 12.9293,26.1 12.5253,26.1 12.1212,26.1 11.7172,26.1 11.3131,26.1 10.9091,26.1 10.5051,26.1 10.101,26.1 9.697,26.1 9.2929,26.1 8.8889,26.1 8.4848,26.1 8.0808,26.1 7.6768,26.1 7.2727,26.1 6.8687,26.1 6.4646,26.1 6.0606,26.1 5.6566,26.1 5.2525,26.1 4.8485,26.1 4.4444,26.1 4.0404,26.1 3.6364,26.1 3.2323,26.1 2.8283,26.1 2.4242,26.1 2.0202,26.1 1.6162,26.1 1.2121,26.1 0.8081,26.1 0.404,26.1 0.0,26.1" speed="36.11111111111111" width="3.0"/>
	</edge>
	<edge from="7" function="normal" id="14" length="39.99999999999999" numLanes="1" priority="1" speed="36.11111111111111" spreadType="center" to="8">
		<lane allow="moped bicycle pedestrian custom1 trailer evehicle rail_urban ship private truck vip custom2 authority delivery rail_electric taxi tram army hov coach motorcycle passenger bus rail emergency" index="0" length="39.99999999999999" shape="40.0,29.1 39.596,29.1 39.1919,29.1 38.7879,29.1 38.3838,29.1 37.9798,29.1 37.5758,29.1 37.1717,29.1 36.7677,29.1 36.3636,29.1 35.9596,29.1 35.5556,29.1 35.1515,29.1 34.7475,29.1 34.3434,29.1 33.9394,29.1 33.5354,29.1 33.1313,29.1 32.7273,29.1 32.3232,29.1 31.9192,29.1 31.5152,29.1 31.1111,29.1 30.7071,29.1 30.303,29.1 29.899,29.1 29.4949,29.1 29.0909,29.1 28.6869,29.1 28.2828,29.1 27.8788,29.1 27.4747,29.1 27.0707,29.1 26.6667,29.1 26.2626,29.1 25.8586,29.1 25.4545,29.1 25.0505,29.1 24.6465,29.1 24.2424,29.1 23.8384,29.1 23.4343,29.1 23.0303,29.1 22.6263,29.1 22.2222,29.1 21.8182,29.1 21.4141,29.1 21.0101,29.1 20.6061,29.1 20.202,29.1 19.798,29.1 19.3939,29.1 18.9899,29.1 18.5859,29.1 18.1818,29.1 17.7778,29.1 17.3737,29.1 16.9697,29.1 16.5657,29.1 16.1616,29.1 15.7576,29.1 15.3535,29.1 14.9495,29.1 14.5455,29.1 14.1414,29.1 13.7374,29.1 13.3333,29.1 12.9293,29.1 12.5253,29.1 12.1212,29.1 11.7172,29.1 11.3131,29.1 10.9091,29.1 10.5051,29.1 10.101,29.1 9.697,29.1 9.2929,29.1 8.8889,29.1 8.4848,29.1 8.0808,29.1 7.6768,29.1 7.2727,29.1 6.8687,29.1 6.4646,29.1 6.0606,29.1 5.6566,29.1 5.2525,29.1 4.8485,29.1 4.4444,29.1 4.0404,29.1 3.6364,29.1 3.2323,29.1 2.8283,29.1 2.4242,29.1 2.0202,29.1 1.6162,29.1 1.2121,29.1 0.8081,29.1 0.404,29.1 0.0,29.1" speed="36.11111111111111" width="3.0"/>
	</edge>
</edges>
