<routes>
	<vehicle depart="0.1" departLane="0" departPos="96.73749107919764" departSpeed="6.9118763" id="39" type="bicycle">
		<route edges="339 16"/>
	</vehicle>
	<vehicle depart="0.1" departLane="0" departPos="24.533408147837562" departSpeed="0.19537805" id="360" type="bicycle">
		<route edges="40 29"/>
	</vehicle>
	<vehicle depart="0.1" departLane="0" departPos="56.23325188113558" departSpeed="6.9208255" id="371" type="bicycle">
		<route edges="31 28 25"/>
	</vehicle>
	<vehicle depart="0.1" departLane="0" departPos="37.161167241797806" departSpeed="0.080786991" id="356" type="bus">
		<route edges="40 29"/>
	</vehicle>
	<vehicle depart="0.1" departLane="0" departPos="21.718780027455512" departSpeed="0.0002414251" id="366" type="bus">
		<route edges="26 41"/>
	</vehicle>
	<vehicle depart="0.1" departLane="0" departPos="31.36612509741497" departSpeed="6.2680612" id="381" type="bus">
		<route edges="337 340 32"/>
	</vehicle>
	<vehicle depart="0.1" departLane="0" departPos="28.204424077294835" departSpeed="0.0" id="34" type="passenger">
		<route edges="29 32"/>
	</vehicle>
	<vehicle depart="0.1" departLane="0" departPos="20.988644545559115" departSpeed="0.0" id="38" type="passenger">
		<route edges="29 32"/>
	</vehicle>
	<vehicle depart="0.1" departLane="0" departPos="65.6021208879803" departSpeed="0.0" id="310" type="passenger">
		<route edges="40 29"/>
	</vehicle>
	<vehicle depart="0.1" departLane="0" departPos="35.93840291405614" departSpeed="0.0" id="313" type="passenger">
		<route edges="19 340"/>
	</vehicle>
	<vehicle depart="0.1" departLane="0" departPos="62.99632085149281" departSpeed="0.0" id="314" type="passenger">
		<route edges="17 340"/>
	</vehicle>
	<vehicle depart="0.1" departLane="0" departPos="16.352147789937334" departSpeed="6.5579706e-05" id="315" type="passenger">
		<route edges=":38_3 29"/>
	</vehicle>
	<vehicle depart="0.1" departLane="0" departPos="35.341355728645624" departSpeed="0.0" id="316" type="passenger">
		<route edges="29 32"/>
	</vehicle>
	<vehicle depart="0.1" departLane="0" departPos="149.38959738534064" departSpeed="0.0" id="317" type="passenger">
		<route edges="340 343"/>
	</vehicle>
	<vehicle depart="0.1" departLane="0" departPos="70.03365292916799" departSpeed="0.0" id="318" type="passenger">
		<route edges="17 340"/>
	</vehicle>
	<vehicle depart="0.1" departLane="0" departPos="67.54492435091295" departSpeed="18.091772" id="319" type="passenger">
		<route edges="340 343"/>
	</vehicle>
	<vehicle depart="0.1" departLane="0" departPos="56.215475319875026" departSpeed="0.0" id="322" type="passenger">
		<route edges="17 340"/>
	</vehicle>
	<vehicle depart="0.1" departLane="0" departPos="13.888107910420764" departSpeed="0.0" id="323" type="passenger">
		<route edges="29 32"/>
	</vehicle>
	<vehicle depart="0.1" departLane="0" departPos="58.75229323193688" departSpeed="0.00056832051" id="324" type="passenger">
		<route edges="40 29"/>
	</vehicle>
	<vehicle depart="0.1" departLane="0" departPos="28.53695675391279" departSpeed="0.0" id="325" type="passenger">
		<route edges="19 340"/>
	</vehicle>
	<vehicle depart="0.1" departLane="0" departPos="43.189947640348365" departSpeed="15.945495" id="327" type="passenger">
		<route edges="340 32"/>
	</vehicle>
	<vehicle depart="0.1" departLane="0" departPos="7.1870910164394" departSpeed="0.0" id="328" type="passenger">
		<route edges="29 32"/>
	</vehicle>
	<vehicle depart="0.1" departLane="0" departPos="51.50434092546631" departSpeed="0.005495104" id="329" type="passenger">
		<route edges="40 29"/>
	</vehicle>
	<vehicle depart="0.1" departLane="0" departPos="60.22499415861641" departSpeed="0.0" id="330" type="passenger">
		<route edges="31 343"/>
	</vehicle>
	<vehicle depart="0.1" departLane="0" departPos="21.27319073143472" departSpeed="0.0" id="332" type="passenger">
		<route edges="19 340"/>
	</vehicle>
	<vehicle depart="0.1" departLane="0" departPos="49.25727037647631" departSpeed="0.0" id="333" type="passenger">
		<route edges="17 340"/>
	</vehicle>
	<vehicle depart="0.1" departLane="0" departPos="44.15982669878865" departSpeed="0.026686288" id="335" type="passenger">
		<route edges="40 29"/>
	</vehicle>
	<vehicle depart="0.1" departLane="0" departPos="24.529036138924287" departSpeed="14.411487" id="338" type="passenger">
		<route edges="340 32"/>
	</vehicle>
	<vehicle depart="0.1" departLane="0" departPos="41.8992645317946" departSpeed="0.0" id="341" type="passenger">
		<route edges="17 340"/>
	</vehicle>
	<vehicle depart="0.1" departLane="0" departPos="53.03453151287875" departSpeed="0.0" id="344" type="passenger">
		<route edges="31 343"/>
	</vehicle>
	<vehicle depart="0.1" departLane="0" departPos="43.57146298639059" departSpeed="0.0" id="347" type="passenger">
		<route edges="26 41"/>
	</vehicle>
	<vehicle depart="0.1" departLane="0" departPos="36.35640604055073" departSpeed="0.0" id="349" type="passenger">
		<route edges="26 41"/>
	</vehicle>
	<vehicle depart="0.1" departLane="0" departPos="14.308137315858232" departSpeed="0.0" id="350" type="passenger">
		<route edges="19 340"/>
	</vehicle>
	<vehicle depart="0.1" departLane="0" departPos="29.742518651158523" departSpeed="0.00027360705" id="352" type="passenger">
		<route edges="17 340"/>
	</vehicle>
	<vehicle depart="0.1" departLane="0" departPos="117.88001220749591" departSpeed="19.797934" id="353" type="passenger">
		<route edges="339 336"/>
	</vehicle>
	<vehicle depart="0.1" departLane="0" departPos="41.31844512343962" departSpeed="0.00014927079" id="354" type="passenger">
		<route edges="31 343"/>
	</vehicle>
	<vehicle depart="0.1" departLane="0" departPos="28.875690150615654" departSpeed="3.3082006e-05" id="355" type="passenger">
		<route edges="26 41"/>
	</vehicle>
	<vehicle depart="0.1" departLane="0" departPos="34.09501785847814" departSpeed="0.00080442794" id="357" type="passenger">
		<route edges="31 343"/>
	</vehicle>
	<vehicle depart="0.1" departLane="0" departPos="93.68825757084723" departSpeed="19.672435" id="358" type="passenger">
		<route edges="339 16"/>
	</vehicle>
	<vehicle depart="0.1" departLane="0" departPos="6.537408391826658" departSpeed="12.837212" id="359" type="passenger">
		<route edges="340 32"/>
	</vehicle>
	<vehicle depart="0.1" departLane="0" departPos="22.703593459053277" departSpeed="0.0011652069" id="361" type="passenger">
		<route edges="17 340"/>
	</vehicle>
	<vehicle depart="0.1" departLane="0" departPos="68.77205057596466" departSpeed="18.660898" id="362" type="passenger">
		<route edges="339 16"/>
	</vehicle>
	<vehicle depart="0.1" departLane="0" departPos="27.26151033938518" departSpeed="0.0034319232" id="363" type="passenger">
		<route edges="31 343"/>
	</vehicle>
	<vehicle depart="0.1" departLane="0" departPos="7.435647236253763" departSpeed="2.1181868e-05" id="364" type="passenger">
		<route edges="19 340"/>
	</vehicle>
	<vehicle depart="0.1" departLane="0" departPos="22.92359375393239" departSpeed="0.18320926" id="365" type="passenger">
		<route edges="40 29"/>
	</vehicle>
	<vehicle depart="0.1" departLane="0" departPos="47.59709592559641" departSpeed="17.429323" id="367" type="passenger">
		<route edges="339 16"/>
	</vehicle>
	<vehicle depart="0.1" departLane="0" departPos="15.710609209717907" departSpeed="0.0040916978" id="368" type="passenger">
		<route edges="17 340"/>
	</vehicle>
	<vehicle depart="0.1" departLane="0" departPos="27.208204958149746" departSpeed="16.227974" id="370" type="passenger">
		<route edges="339 16"/>
	</vehicle>
	<vehicle depart="0.1" departLane="0" departPos="7.1812625144799105" departSpeed="0.0011322681" id="372" type="passenger">
		<route edges="26 41"/>
	</vehicle>
	<vehicle depart="0.1" departLane="0" departPos="15.82795750580914" departSpeed="0.34691706" id="373" type="passenger">
		<route edges="40 29"/>
	</vehicle>
	<vehicle depart="0.1" departLane="0" departPos="12.968418947996431" departSpeed="9.6483783" id="374" type="passenger">
		<route edges=":37_11 28 25"/>
	</vehicle>
	<vehicle depart="0.1" departLane="0" departPos="8.711400047731743" departSpeed="0.012657198" id="375" type="passenger">
		<route edges="17 340"/>
	</vehicle>
	<vehicle depart="0.1" departLane="0" departPos="51.741446640933574" departSpeed="9.332192" id="378" type="passenger">
		<route edges="342 339 16"/>
	</vehicle>
	<vehicle depart="0.1" departLane="0" departPos="35.434985911814415" departSpeed="8.8762664" id="379" type="passenger">
		<route edges="342 339 16"/>
	</vehicle>
	<vehicle depart="0.1" departLane="0" departPos="8.468323076655778" departSpeed="0.54070391" id="380" type="passenger">
		<route edges="40 29"/>
	</vehicle>
	<vehicle depart="0.1" departLane="0" departPos="19.606821680104755" departSpeed="7.4407608" id="382" type="passenger">
		<route edges="342 339 16"/>
	</vehicle>
	<vehicle depart="0.1" departLane="0" departPos="12.223086704876799" departSpeed="4.7846704" id="383" type="passenger">
		<route edges="337 340 32"/>
	</vehicle>
	<vehicle depart="0.1" departLane="0" departPos="5.098224364078205" departSpeed="1.842123" id="387" type="passenger">
		<route edges="337 340 32"/>
	</vehicle>
	<vehicle depart="0.1" departLane="0" departPos="48.13087344020065" departSpeed="0.0" id="331" type="motorcycle">
		<route edges="26 41"/>
	</vehicle>
	<vehicle depart="0.1" departLane="0" departPos="34.539786079647754" departSpeed="4.7667115e-05" id="345" type="motorcycle">
		<route edges="17 340"/>
	</vehicle>
	<vehicle depart="0.1" departLane="0" departPos="45.92221338125598" departSpeed="1.7535918e-05" id="346" type="motorcycle">
		<route edges="31 343"/>
	</vehicle>
	<vehicle depart="0.1" departLane="0" departPos="7.0781520523580745" departSpeed="3.9661123" id="384" type="motorcycle">
		<route edges="342 339 16"/>
	</vehicle>
	<vehicle depart="0.1" departLane="0" departPos="45.54156060067209" departSpeed="0.0" id="320" type="truck">
		<route edges="19 340"/>
	</vehicle>
	<vehicle depart="0.1" departLane="0" departPos="69.91643923764924" departSpeed="0.0" id="326" type="truck">
		<route edges="31 339"/>
	</vehicle>
	<vehicle depart="0.1" departLane="0" departPos="20.14730134123766" departSpeed="0.011646515" id="369" type="truck">
		<route edges="31 343"/>
	</vehicle>
	<vehicle depart="0.1" departLane="0" departPos="10.110098726433787" departSpeed="0.033636526" id="377" type="truck">
		<route edges="31 343"/>
	</vehicle>
</routes>
