<routes>
	<vehicle depart="0.1" departLane="0" departPos="26.81464396690256" departSpeed="2.023243" id="3152" type="bus">
		<route edges="3784 3715"/>
	</vehicle>
	<vehicle depart="0.1" departLane="0" departPos="7.374475405840104" departSpeed="0.97851831" id="335" type="passenger">
		<route edges=":134_2 3781"/>
	</vehicle>
	<vehicle depart="0.1" departLane="0" departPos="32.31306193575189" departSpeed="0.28841156" id="340" type="passenger">
		<route edges="3716 3781"/>
	</vehicle>
	<vehicle depart="0.1" departLane="0" departPos="47.40251318365816" departSpeed="0.13716374" id="357" type="passenger">
		<route edges="3716 3781"/>
	</vehicle>
	<vehicle depart="0.1" departLane="0" departPos="17.870090796565865" departSpeed="0.67158917" id="367" type="passenger">
		<route edges="3716 3781"/>
	</vehicle>
	<vehicle depart="0.1" departLane="0" departPos="36.545245911490625" departSpeed="0.0" id="3139" type="passenger">
		<route edges="3784 3715"/>
	</vehicle>
	<vehicle depart="0.1" departLane="0" departPos="51.17915001709673" departSpeed="0.68221187" id="334" type="motorcycle">
		<route edges="3716 3781"/>
	</vehicle>
	<vehicle depart="0.1" departLane="0" departPos="29.08531044272493" departSpeed="7.0504695" id="3129" type="truck">
		<route edges=":134_5 3781 3326"/>
	</vehicle>
</routes>
