<routes>
	<vehicle depart="0.1" departLane="0" departPos="53.517561514676785" departSpeed="1.5505103" id="334" type="passenger">
		<route edges="14197 14079"/>
	</vehicle>
	<vehicle depart="0.1" departLane="0" departPos="30.567073593790727" departSpeed="5.7217847" id="346" type="passenger">
		<route edges="14197 14079"/>
	</vehicle>
	<vehicle depart="0.1" departLane="0" departPos="28.255687418537022" departSpeed="15.981395" id="356" type="passenger">
		<route edges=":75_3 14197 14079"/>
	</vehicle>
	<vehicle depart="0.1" departLane="0" departPos="22.11546121076452" departSpeed="6.7818024" id="367" type="passenger">
		<route edges=":73_5 14083 14086"/>
	</vehicle>
	<vehicle depart="0.1" departLane="0" departPos="10.267450072926056" departSpeed="1.4358679" id="370" type="passenger">
		<route edges=":73_5 14083"/>
	</vehicle>
</routes>
