<?xml version="1.0" encoding="UTF-8"?>

<!-- generated on Fri Dec 18 17:02:01 2020 by Eclipse SUMO netconvert Version 1.8.0
<configuration xmlns:xsi="http://www.w3.org/2001/XMLSchema-instance" xsi:noNamespaceSchemaLocation="http://sumo.dlr.de/xsd/netconvertConfiguration.xsd">

    <input>
        <node-files value="./converted_scenarios/SUMO/CHN_Sha-12_1_I-1-1/nodes.net.xml"/>
        <edge-files value="./converted_scenarios/SUMO/CHN_Sha-12_1_I-1-1/edges.net.xml"/>
        <connection-files value="./converted_scenarios/SUMO/CHN_Sha-12_1_I-1-1/_connections.net.xml"/>
        <tllogic-files value="./converted_scenarios/SUMO/CHN_Sha-12_1_I-1-1/_tll.net.xml"/>
    </input>

    <output>
        <output-file value="./converted_scenarios/SUMO/CHN_Sha-12_1_I-1-1/CHN_Sha-12_1_I-1-1.net.xml"/>
    </output>

    <processing>
        <plain.extend-edge-shape value="true"/>
        <geometry.remove.keep-edges.explicit value="true"/>
        <geometry.avoid-overlap value="true"/>
        <offset.disable-normalization value="true"/>
    </processing>

    <junctions>
        <no-turnarounds value="true"/>
        <junctions.internal-link-detail value="20"/>
    </junctions>

    <report>
        <aggregate-warnings value="5"/>
    </report>

    <random_number>
        <seed value="1234"/>
    </random_number>

</configuration>
-->

<net version="1.6" junctionCornerDetail="5" junctionLinkDetail="20" limitTurnSpeed="5.50" xmlns:xsi="http://www.w3.org/2001/XMLSchema-instance" xsi:noNamespaceSchemaLocation="http://sumo.dlr.de/xsd/net_file.xsd">

    <location netOffset="0.00,0.00" convBoundary="-105.60,-30.96,46.75,210.64" origBoundary="-105.60,-30.96,46.75,210.64" projParameter="!"/>

    <edge id=":1_0" function="internal">
        <lane id=":1_0_0" index="0" disallow="bus truck rail_fast" speed="7.37" length="9.62" width="2.50" shape="-2.64,0.71 -2.50,0.16 -2.40,-0.37 -2.33,-0.89 -2.30,-1.40 -2.31,-1.89 -2.34,-2.37 -2.42,-2.84 -2.53,-3.30 -2.67,-3.74 -2.85,-4.17 -3.06,-4.58 -3.31,-4.99 -3.60,-5.38 -3.91,-5.76 -4.27,-6.12 -4.66,-6.47 -5.08,-6.81 -5.54,-7.14 -6.03,-7.45"/>
    </edge>
    <edge id=":1_1" function="internal">
        <lane id=":1_1_0" index="0" disallow="bus truck rail_fast" speed="36.11" length="8.84" width="2.50" shape="1.17,-2.34 0.65,-2.75 0.18,-3.12 -0.24,-3.46 -0.62,-3.76 -0.97,-4.04 -1.29,-4.29 -1.60,-4.53 -1.89,-4.75 -2.17,-4.96 -2.45,-5.17 -2.74,-5.37 -3.04,-5.58 -3.36,-5.79 -3.71,-6.02 -4.08,-6.26 -4.50,-6.52 -4.96,-6.80 -5.46,-7.11 -6.03,-7.45"/>
    </edge>
    <edge id=":4_0" function="internal">
        <lane id=":4_0_0" index="0" disallow="bus truck rail_fast" speed="36.11" length="2.83" width="2.50" shape="-4.18,4.19 -3.00,1.62"/>
    </edge>
    <edge id=":5_0" function="internal">
        <lane id=":5_0_0" index="0" disallow="bus truck rail_fast" speed="36.11" length="3.50" width="2.50" shape="-0.40,2.53 -0.56,2.74 -0.70,2.93 -0.82,3.10 -0.93,3.26 -1.03,3.41 -1.11,3.55 -1.19,3.68 -1.26,3.80 -1.32,3.93 -1.38,4.05 -1.44,4.18 -1.50,4.32 -1.56,4.46 -1.63,4.61 -1.70,4.77 -1.78,4.95 -1.87,5.14 -1.97,5.35 -2.08,5.59"/>
    </edge>
    <edge id=":8_0" function="internal">
        <lane id=":8_0_0" index="0" disallow="bus truck rail_fast" speed="6.53" length="8.99" width="2.50" shape="7.98,2.88 7.40,2.49 6.83,2.13 6.28,1.82 5.75,1.54 5.24,1.31 4.74,1.11 4.26,0.95 3.81,0.83 3.37,0.75 2.94,0.70 2.54,0.70 2.15,0.73 1.78,0.81 1.43,0.92 1.10,1.07 0.79,1.26 0.49,1.49 0.21,1.76 -0.05,2.07"/>
    </edge>
    <edge id=":8_1" function="internal">
        <lane id=":8_1_0" index="0" disallow="bus truck rail_fast" speed="36.11" length="8.38" width="2.50" shape="7.98,2.88 1.33,-2.22"/>
    </edge>

    <edge id="10" from="1" to="2" priority="1" spreadType="center" length="47.78">
        <lane id="10_0" index="0" disallow="rail_fast" speed="36.11" length="47.78" width="2.50" customShape="1" shape="-6.03,-7.45 -13.75,-12.07 -28.25,-20.50 -45.09,-30.96"/>
    </edge>
    <edge id="11" from="3" to="4" priority="1" spreadType="center" length="230.44">
        <lane id="11_0" index="0" disallow="rail_fast" speed="36.11" length="230.44" width="2.50" customShape="1" shape="-105.60,209.53 -54.58,106.23 -4.18,4.19"/>
    </edge>
    <edge id="12" from="5" to="6" priority="1" spreadType="center" length="230.45">
        <lane id="12_0" index="0" disallow="rail_fast" speed="36.11" length="230.45" width="2.50" customShape="1" shape="-2.08,5.59 -52.34,107.33 -103.36,210.64"/>
    </edge>
    <edge id="13" from="7" to="8" priority="1" spreadType="center" length="46.16">
        <lane id="13_0" index="0" disallow="bus truck rail_fast" speed="36.11" length="46.16" width="2.50" customShape="1" shape="46.75,24.64 31.43,16.72 18.56,9.58 11.19,5.11 7.98,2.88"/>
    </edge>
    <edge id="14" from="8" to="1" priority="1" spreadType="center" length="13.57">
        <lane id="14_0" index="0" disallow="bus truck rail_fast" speed="36.11" length="13.57" width="2.50" customShape="1" shape="1.33,-2.22 1.17,-2.34"/>
    </edge>
    <edge id="15" from="4" to="1" priority="1" spreadType="center" length="10.22">
        <lane id="15_0" index="0" disallow="bus truck rail_fast" speed="36.11" length="10.22" width="2.50" customShape="1" shape="-3.00,1.62 -2.67,0.83 -2.64,0.71"/>
    </edge>
    <edge id="16" from="8" to="5" priority="1" spreadType="center" length="9.84">
        <lane id="16_0" index="0" disallow="bus truck rail_fast" speed="36.11" length="9.84" width="2.50" customShape="1" shape="-0.05,2.07 -0.40,2.53"/>
    </edge>

    <junction id="1" type="priority" x="-4.16" y="-6.33" incLanes="15_0 14_0" intLanes=":1_0_0 :1_1_0" shape="-4.44,1.81 -1.08,-0.25 -0.63,-1.16 -0.34,-1.38 0.00,-1.42 0.39,-1.31 0.83,-1.03 2.25,-3.08 -0.48,-5.24 -1.45,-5.98 -2.44,-6.68 -3.68,-7.48 -5.39,-8.52 -6.67,-6.38 -4.41,-4.26 -3.84,-2.97 -3.66,-1.53 -3.86,0.06">
        <request index="0" response="00" foes="10" cont="0"/>
        <request index="1" response="01" foes="01" cont="0"/>
    </junction>
    <junction id="2" type="dead_end" x="-45.09" y="-30.96" incLanes="10_0" intLanes="" shape="-45.75,-29.90 -44.43,-32.02"/>
    <junction id="3" type="dead_end" x="-105.60" y="209.53" incLanes="" intLanes="" shape="-104.48,210.09 -106.72,208.98"/>
    <junction id="4" type="priority" x="-3.55" y="2.92" incLanes="11_0" intLanes=":4_0_0" shape="-1.85,2.10 -4.15,1.13 -5.30,3.63 -3.06,4.74">
        <request index="0" response="0" foes="0" cont="0"/>
    </junction>
    <junction id="5" type="priority" x="-1.31" y="4.02" incLanes="16_0" intLanes=":5_0_0" shape="0.70,3.15 -1.50,1.91 -2.25,2.99 -2.46,3.41 -2.65,3.83 -2.88,4.35 -3.21,5.04 -0.96,6.14 -0.24,4.58 -0.03,4.19 0.26,3.74">
        <request index="0" response="0" foes="0" cont="0"/>
    </junction>
    <junction id="6" type="dead_end" x="-103.36" y="210.64" incLanes="12_0" intLanes="" shape="-102.24,211.20 -104.48,210.09"/>
    <junction id="7" type="dead_end" x="46.75" y="24.64" incLanes="" intLanes="" shape="47.32,23.53 46.18,25.75"/>
    <junction id="8" type="priority" x="6.61" y="1.93" incLanes="13_0" intLanes=":8_0_0 :8_1_0" shape="7.27,3.91 8.69,1.85 1.73,-3.49 0.19,-1.53 0.64,-0.96 0.68,-0.67 0.60,-0.36 0.39,-0.05 0.06,0.27 -0.21,4.60">
        <request index="0" response="00" foes="00" cont="0"/>
        <request index="1" response="00" foes="00" cont="0"/>
    </junction>

    <connection from="11" to="15" fromLane="0" toLane="0" contPos="-4.00" via=":4_0_0" dir="s" state="M"/>
    <connection from="13" to="16" fromLane="0" toLane="0" contPos="-4.00" via=":8_0_0" dir="r" state="M"/>
    <connection from="13" to="14" fromLane="0" toLane="0" contPos="-4.00" via=":8_1_0" dir="s" state="M"/>
    <connection from="14" to="10" fromLane="0" toLane="0" contPos="-4.00" via=":1_1_0" dir="s" state="m"/>
    <connection from="15" to="10" fromLane="0" toLane="0" contPos="-4.00" via=":1_0_0" dir="r" state="M"/>
    <connection from="16" to="12" fromLane="0" toLane="0" contPos="-4.00" via=":5_0_0" dir="r" state="M"/>

    <connection from=":1_0" to="10" fromLane="0" toLane="0" dir="r" state="M"/>
    <connection from=":1_1" to="10" fromLane="0" toLane="0" dir="s" state="M"/>
    <connection from=":4_0" to="15" fromLane="0" toLane="0" dir="s" state="M"/>
    <connection from=":5_0" to="12" fromLane="0" toLane="0" dir="r" state="M"/>
    <connection from=":8_0" to="16" fromLane="0" toLane="0" dir="r" state="M"/>
    <connection from=":8_1" to="14" fromLane="0" toLane="0" dir="s" state="M"/>

</net>
