<!-- generated on Tue Feb  9 22:01:52 2021 by Eclipse SUMO netconvert Version 1.8.0
<configuration xmlns:xsi="http://www.w3.org/2001/XMLSchema-instance" xsi:noNamespaceSchemaLocation="http://sumo.dlr.de/xsd/netconvertConfiguration.xsd">

    <input>
        <node-files value="./converted_scenarios/scenario-factory/ESP_Berga-10_3_I-1-1/ESP_Berga-10_3_I-1-1.nod.xml"/>
        <edge-files value="./converted_scenarios/scenario-factory/ESP_Berga-10_3_I-1-1/ESP_Berga-10_3_I-1-1.edg.xml"/>
        <connection-files value="./converted_scenarios/scenario-factory/ESP_Berga-10_3_I-1-1/ESP_Berga-10_3_I-1-1.con.xml"/>
        <tllogic-files value="./converted_scenarios/scenario-factory/ESP_Berga-10_3_I-1-1/ESP_Berga-10_3_I-1-1.tll.xml"/>
        <type-files value="/home/zen/commonroad-interactive-benchmarks/install/commonroad-map-tool/crmapconverter/sumo_map/templates/DEU.typ.xml"/>
    </input>

    <output>
        <output-file value="./converted_scenarios/scenario-factory/ESP_Berga-10_3_I-1-1/ESP_Berga-10_3_I-1-1.net.xml"/>
    </output>

    <processing>
        <geometry.remove.keep-edges.explicit value="true"/>
        <geometry.avoid-overlap value="true"/>
        <offset.disable-normalization value="true"/>
    </processing>

    <junctions>
        <no-turnarounds value="true"/>
        <junctions.internal-link-detail value="20"/>
    </junctions>

    <report>
        <aggregate-warnings value="5"/>
    </report>

    <random_number>
        <seed value="1234"/>
    </random_number>

</configuration>
--><net xmlns:xsi="http://www.w3.org/2001/XMLSchema-instance" version="1.6" junctionCornerDetail="5" junctionLinkDetail="20" limitTurnSpeed="5.50" xsi:noNamespaceSchemaLocation="http://sumo.dlr.de/xsd/net_file.xsd">

    <location netOffset="0.00,0.00" convBoundary="-262.14,268.91,-113.89,459.41" origBoundary="-262.14,268.91,-113.89,459.41" projParameter="!"/>

    <type id="highway.bridleway" priority="1" speed="2.78" allow="pedestrian" oneway="1" width="2.00"/>
    <type id="highway.bus_guideway" priority="1" speed="27.78" allow="bus" oneway="1"/>
    <type id="highway.cycleway" priority="1" speed="8.33" allow="bicycle" oneway="0" width="1.00"/>
    <type id="highway.footway" priority="1" speed="2.78" allow="pedestrian" oneway="1" width="2.00"/>
    <type id="highway.ford" priority="1" speed="2.78" allow="army" oneway="0"/>
    <type id="highway.living_street" priority="2" speed="2.78" disallow="tram rail_urban rail rail_electric rail_fast ship" oneway="0"/>
    <type id="highway.motorway" priority="14" speed="39.44" allow="private emergency authority army vip passenger hov taxi bus coach delivery truck trailer motorcycle evehicle custom1 custom2" oneway="1"/>
    <type id="highway.motorway_link" priority="9" speed="22.22" allow="private emergency authority army vip passenger hov taxi bus coach delivery truck trailer motorcycle evehicle custom1 custom2" oneway="1"/>
    <type id="highway.path" priority="1" speed="2.78" allow="pedestrian bicycle" oneway="0" width="2.00"/>
    <type id="highway.pedestrian" priority="1" speed="2.78" allow="pedestrian" oneway="1" width="2.00"/>
    <type id="highway.primary" priority="12" speed="27.78" disallow="pedestrian tram rail_urban rail rail_electric rail_fast ship" oneway="0"/>
    <type id="highway.primary_link" priority="7" speed="22.22" disallow="pedestrian tram rail_urban rail rail_electric rail_fast ship" oneway="0"/>
    <type id="highway.raceway" priority="15" speed="83.33" allow="vip" oneway="0"/>
    <type id="highway.residential" priority="3" speed="13.89" disallow="pedestrian tram rail_urban rail rail_electric rail_fast ship" oneway="0"/>
    <type id="highway.secondary" priority="11" speed="27.78" disallow="pedestrian tram rail_urban rail rail_electric rail_fast ship" oneway="0"/>
    <type id="highway.secondary_link" priority="6" speed="22.22" disallow="pedestrian tram rail_urban rail rail_electric rail_fast ship" oneway="0"/>
    <type id="highway.service" priority="1" speed="5.56" allow="pedestrian delivery bicycle" oneway="0"/>
    <type id="highway.stairs" priority="1" speed="1.39" allow="pedestrian" oneway="1" width="2.00"/>
    <type id="highway.step" priority="1" speed="1.39" allow="pedestrian" oneway="1" width="2.00"/>
    <type id="highway.steps" priority="1" speed="1.39" allow="pedestrian" oneway="1" width="2.00"/>
    <type id="highway.tertiary" priority="10" speed="22.22" disallow="pedestrian tram rail_urban rail rail_electric rail_fast ship" oneway="0"/>
    <type id="highway.tertiary_link" priority="5" speed="22.22" disallow="pedestrian tram rail_urban rail rail_electric rail_fast ship" oneway="0"/>
    <type id="highway.track" priority="1" speed="5.56" allow="pedestrian motorcycle moped bicycle" oneway="0"/>
    <type id="highway.trunk" priority="13" speed="27.78" disallow="pedestrian bicycle tram rail_urban rail rail_electric rail_fast ship" oneway="0"/>
    <type id="highway.trunk_link" priority="8" speed="22.22" disallow="pedestrian bicycle tram rail_urban rail rail_electric rail_fast ship" oneway="0"/>
    <type id="highway.unclassified" priority="4" speed="13.89" disallow="pedestrian tram rail_urban rail rail_electric rail_fast ship" oneway="0"/>
    <type id="highway.unsurfaced" priority="1" speed="8.33" disallow="tram rail_urban rail rail_electric rail_fast ship" oneway="0"/>
    <type id="railway.highspeed" priority="21" speed="69.44" allow="rail_fast" oneway="1"/>
    <type id="railway.light_rail" priority="19" speed="27.78" allow="rail_urban" oneway="1"/>
    <type id="railway.preserved" priority="16" speed="27.78" allow="rail" oneway="1"/>
    <type id="railway.rail" priority="20" speed="44.44" allow="rail" oneway="1"/>
    <type id="railway.subway" priority="18" speed="27.78" allow="rail_urban" oneway="1"/>
    <type id="railway.tram" priority="17" speed="13.89" allow="tram" oneway="1"/>

    <edge id=":30_0" function="internal">
        <lane id=":30_0_0" index="0" disallow="pedestrian tram rail_urban rail rail_electric rail_fast ship" speed="36.11" length="0.10" width="3.50" shape="-131.05,428.58 -131.05,428.58"/>
    </edge>
    <edge id=":37_0" function="internal">
        <lane id=":37_0_0" index="0" disallow="pedestrian tram rail_urban rail rail_electric rail_fast ship" speed="36.11" length="2.59" width="3.50" shape="-133.95,430.82 -134.02,430.64 -134.08,430.48 -134.13,430.33 -134.18,430.19 -134.22,430.07 -134.26,429.95 -134.30,429.85 -134.33,429.75 -134.37,429.65 -134.40,429.55 -134.43,429.45 -134.46,429.35 -134.49,429.24 -134.52,429.12 -134.55,429.00 -134.59,428.86 -134.63,428.70 -134.68,428.54 -134.73,428.35"/>
    </edge>
    <edge id=":45_0" function="internal">
        <lane id=":45_0_0" index="0" disallow="pedestrian tram rail_urban rail rail_electric rail_fast ship" speed="36.11" length="27.75" width="3.50" shape="-212.16,347.12 -212.05,339.20 -212.16,324.97 -211.98,319.37"/>
    </edge>
    <edge id=":45_1" function="internal">
        <lane id=":45_1_0" index="0" disallow="pedestrian tram rail_urban rail rail_electric rail_fast ship" speed="36.11" length="27.35" width="3.50" shape="-208.48,319.56 -209.69,344.86 -209.71,346.88"/>
    </edge>
    <edge id=":46_0" function="internal">
        <lane id=":46_0_0" index="0" disallow="pedestrian tram rail_urban rail rail_electric rail_fast ship" speed="13.26" length="4.10" width="3.50" shape="-210.58,367.16 -211.20,365.02 -211.65,363.20"/>
    </edge>
    <edge id=":46_1" function="internal">
        <lane id=":46_1_0" index="0" disallow="pedestrian tram rail_urban rail rail_electric rail_fast ship" speed="36.11" length="0.72" width="3.50" shape="-209.88,366.89 -210.04,366.19"/>
    </edge>
    <edge id=":47_0" function="internal">
        <lane id=":47_0_0" index="0" disallow="pedestrian tram rail_urban rail rail_electric rail_fast ship" speed="25.71" length="27.46" width="3.50" shape="-170.70,363.08 -174.32,361.23 -178.08,359.68 -181.95,358.44 -185.91,357.51 -189.93,356.87 -193.99,356.52 -197.04,356.43"/>
    </edge>
    <edge id=":47_1" function="internal">
        <lane id=":47_1_0" index="0" disallow="pedestrian tram rail_urban rail rail_electric rail_fast ship" speed="26.09" length="24.94" width="3.50" shape="-196.99,352.93 -184.66,352.85 -176.95,352.52 -172.34,352.06 -172.09,352.01"/>
    </edge>
    <edge id=":47_2" function="internal">
        <lane id=":47_2_0" index="0" disallow="pedestrian tram rail_urban rail rail_electric rail_fast ship" speed="26.75" length="29.18" width="3.50" shape="-196.99,352.93 -193.77,353.02 -189.48,353.40 -185.20,354.08 -180.99,355.07 -176.85,356.40 -172.84,358.06 -169.01,360.02"/>
    </edge>
    <edge id=":48_0" function="internal">
        <lane id=":48_0_0" index="0" disallow="pedestrian tram rail_urban rail rail_electric rail_fast ship" speed="36.11" length="16.72" width="3.50" shape="-158.91,353.26 -158.74,352.41 -157.78,349.47 -156.31,346.16 -152.07,338.06"/>
    </edge>
    <edge id=":48_1" function="internal">
        <lane id=":48_1_0" index="0" disallow="pedestrian tram rail_urban rail rail_electric rail_fast ship" speed="11.77" length="16.61" width="3.50" shape="-164.59,349.01 -164.39,348.90 -160.81,346.62 -157.89,344.34 -155.59,342.15 -153.53,339.73 -152.37,338.00"/>
    </edge>
    <edge id=":49_0" function="internal">
        <lane id=":49_0_0" index="0" disallow="pedestrian tram rail_urban rail rail_electric rail_fast ship" speed="22.66" length="11.43" width="3.50" shape="-157.15,374.46 -159.17,372.12 -162.12,369.23 -165.37,366.56"/>
    </edge>
    <edge id=":49_1" function="internal">
        <lane id=":49_1_0" index="0" disallow="pedestrian tram rail_urban rail rail_electric rail_fast ship" speed="10.55" length="10.77" width="3.50" shape="-157.01,374.35 -157.33,373.87 -158.26,371.96 -159.09,369.44 -159.59,366.83 -159.82,364.08"/>
    </edge>
    <edge id=":49_2" function="internal">
        <lane id=":49_2_0" index="0" disallow="pedestrian tram rail_urban rail rail_electric rail_fast ship" speed="5.42" length="4.79" width="3.50" shape="-160.09,366.19 -161.47,366.20 -163.70,365.89 -164.81,365.57"/>
    </edge>
    <edge id=":50_0" function="internal">
        <lane id=":50_0_0" index="0" disallow="pedestrian tram rail_urban rail rail_electric rail_fast ship" speed="36.11" length="36.91" width="3.50" shape="-140.32,408.99 -141.24,406.04 -143.60,399.21 -145.88,393.48 -148.47,387.89 -150.89,383.40 -153.59,379.09 -156.01,375.80"/>
    </edge>
    <edge id=":50_1" function="internal">
        <lane id=":50_1_0" index="0" disallow="pedestrian tram rail_urban rail rail_electric rail_fast ship" speed="36.11" length="28.83" width="3.50" shape="-143.02,379.83 -142.70,382.58 -141.43,390.14 -139.67,398.12 -137.41,406.51 -136.97,407.98"/>
    </edge>
    <edge id=":50_2" function="internal">
        <lane id=":50_2_0" index="0" disallow="pedestrian tram rail_urban rail rail_electric rail_fast ship" speed="36.11" length="38.20" width="3.50" shape="-153.24,373.65 -150.73,377.08 -147.91,381.57 -145.39,386.24 -142.71,392.01 -140.34,397.92 -137.91,404.94 -136.97,407.98"/>
    </edge>
    <edge id=":51_0" function="internal">
        <lane id=":51_0_0" index="0" disallow="pedestrian tram rail_urban rail rail_electric rail_fast ship" speed="36.11" length="8.39" width="3.50" shape="-201.68,370.24 -201.17,372.87 -199.65,378.37"/>
    </edge>
    <edge id=":51_1" function="internal">
        <lane id=":51_1_0" index="0" disallow="pedestrian tram rail_urban rail rail_electric rail_fast ship" speed="36.11" length="35.25" width="3.50" shape="-209.92,344.75 -208.88,353.21 -207.30,361.75 -204.81,372.71 -203.03,379.28"/>
    </edge>
    <edge id=":52_0" function="internal">
        <lane id=":52_0_0" index="0" disallow="pedestrian tram rail_urban rail rail_electric rail_fast ship" speed="36.11" length="3.00" width="3.50" shape="-143.99,367.05 -143.91,370.05"/>
    </edge>
    <edge id=":52_1" function="internal">
        <lane id=":52_1_0" index="0" disallow="pedestrian tram rail_urban rail rail_electric rail_fast ship" speed="3.29" length="3.10" width="3.50" shape="-147.86,359.42 -149.91,361.74"/>
    </edge>

    <edge id="75817" from="50" to="49" priority="3" type="highway.residential" spreadType="center" length="1.79" shape="-147.63,387.89 -158.73,363.70">
        <lane id="75817_0" index="0" disallow="pedestrian tram rail_urban rail rail_electric rail_fast ship" speed="36.11" length="1.79" width="3.50" customShape="1" shape="-155.99,375.83 -157.10,374.42"/>
    </edge>
    <edge id="75818" from="26" to="50" priority="3" type="highway.residential" spreadType="center" length="5.24" shape="-156.52,369.57 -144.59,386.16">
        <lane id="75818_0" index="0" disallow="pedestrian tram rail_urban rail rail_electric rail_fast ship" speed="36.11" length="5.24" width="3.50" customShape="1" shape="-156.52,369.57 -153.39,373.47 -153.32,373.56 -153.24,373.65"/>
    </edge>
    <edge id="75820" from="52" to="49" priority="3" type="highway.residential" spreadType="center" length="13.07">
        <lane id="75820_0" index="0" disallow="pedestrian tram rail_urban rail rail_electric rail_fast ship" speed="36.11" length="13.07" width="3.50" customShape="1" shape="-149.91,361.74 -148.94,360.69 -156.89,369.19"/>
    </edge>
    <edge id="75829" from="45" to="51" priority="3" type="highway.residential" spreadType="center" length="0.20" shape="-208.91,332.79 -205.37,350.91">
        <lane id="75829_0" index="0" disallow="pedestrian tram rail_urban rail rail_electric rail_fast ship" speed="36.11" length="0.20" width="3.50" customShape="1" shape="-209.94,344.55 -209.92,344.75"/>
    </edge>
    <edge id="75845" from="49" to="47" priority="3" type="highway.residential" spreadType="center" length="6.37" shape="-158.73,363.70 -181.05,358.40">
        <lane id="75845_0" index="0" disallow="pedestrian tram rail_urban rail rail_electric rail_fast ship" speed="36.11" length="6.37" width="3.50" customShape="1" shape="-165.17,366.21 -170.58,363.15 -170.71,363.07"/>
    </edge>
    <edge id="75846" from="47" to="18" priority="3" type="highway.residential" spreadType="center" length="5.30" shape="-179.91,355.09 -164.40,362.63">
        <lane id="75846_0" index="0" disallow="pedestrian tram rail_urban rail rail_electric rail_fast ship" speed="36.11" length="5.30" width="3.50" customShape="1" shape="-169.01,360.02 -168.86,360.10 -168.75,360.16 -164.40,362.63"/>
    </edge>
    <edge id="75868" from="51" to="8" priority="3" type="highway.residential" spreadType="center" length="64.65">
        <lane id="75868_0" index="0" disallow="pedestrian tram rail_urban rail rail_electric rail_fast ship" speed="36.11" length="64.65" width="3.50" customShape="1" shape="-199.65,378.37 -199.32,379.53 -196.86,386.63 -190.33,404.01 -187.97,409.47 -185.51,414.31 -182.20,419.89 -172.93,434.23 -171.54,436.22"/>
        <lane id="75868_1" index="1" disallow="pedestrian tram rail_urban rail rail_electric rail_fast ship" speed="36.11" length="65.86" width="3.50" customShape="1" shape="-203.03,379.28 -202.68,380.52 -200.21,387.66 -193.65,405.13 -191.26,410.68 -188.77,415.64 -185.45,421.28 -176.17,435.69 -174.41,438.22"/>
    </edge>
    <edge id="75879" from="49" to="48" priority="3" type="highway.residential" spreadType="center" length="10.84">
        <lane id="75879_0" index="0" disallow="pedestrian tram rail_urban rail rail_electric rail_fast ship" speed="36.11" length="10.84" width="3.50" customShape="1" shape="-160.60,363.97 -159.28,355.06 -159.01,353.25"/>
    </edge>
    <edge id="75954" from="4" to="46" priority="3" type="highway.residential" spreadType="center" length="105.64">
        <lane id="75954_0" index="0" disallow="pedestrian tram rail_urban rail rail_electric rail_fast ship" speed="36.11" length="105.64" width="3.50" customShape="1" shape="-161.56,459.41 -167.89,452.85 -171.46,448.63 -176.00,442.60 -181.08,435.10 -187.25,425.31 -191.73,417.43 -195.94,409.41 -198.17,404.35 -212.23,367.79"/>
    </edge>
    <edge id="75956" from="46" to="45" priority="3" type="highway.residential" spreadType="center" length="14.14" shape="-209.36,360.77 -212.33,333.37">
        <lane id="75956_0" index="0" disallow="pedestrian tram rail_urban rail rail_electric rail_fast ship" speed="36.11" length="14.14" width="3.50" customShape="1" shape="-212.71,361.25 -212.17,347.46 -212.15,347.12"/>
    </edge>
    <edge id="75979" from="52" to="50" priority="3" type="highway.residential" spreadType="center" length="9.80">
        <lane id="75979_0" index="0" disallow="pedestrian tram rail_urban rail rail_electric rail_fast ship" speed="36.11" length="9.80" width="3.50" customShape="1" shape="-143.91,370.05 -143.55,379.84"/>
    </edge>
    <edge id="75981" from="44" to="45" priority="3" type="highway.residential" spreadType="center" length="46.96" shape="-199.24,273.74 -208.86,333.61">
        <lane id="75981_0" index="0" disallow="pedestrian tram rail_urban rail rail_electric rail_fast ship" speed="36.11" length="46.96" width="3.50" customShape="1" shape="-199.24,273.74 -200.19,276.59 -202.61,284.82 -205.88,298.57 -206.98,304.01 -207.77,310.01 -208.49,319.63"/>
    </edge>
    <edge id="75982" from="45" to="34" priority="3" type="highway.residential" spreadType="center" length="47.89" shape="-212.32,333.06 -202.54,272.58">
        <lane id="75982_0" index="0" disallow="pedestrian tram rail_urban rail rail_electric rail_fast ship" speed="36.11" length="47.89" width="3.50" customShape="1" shape="-211.98,319.37 -211.25,309.64 -210.44,303.46 -209.32,297.88 -205.99,283.91 -203.53,275.52 -202.54,272.58"/>
    </edge>
    <edge id="75994" from="47" to="48" priority="3" type="highway.residential" spreadType="center" length="8.06">
        <lane id="75994_0" index="0" disallow="pedestrian tram rail_urban rail rail_electric rail_fast ship" speed="36.11" length="8.06" width="3.50" customShape="1" shape="-171.80,352.62 -168.73,351.17 -164.52,349.17"/>
    </edge>
    <edge id="76019" from="47" to="12" priority="3" type="highway.residential" spreadType="center" length="70.00" shape="-180.90,358.44 -262.14,338.15">
        <lane id="76019_0" index="0" disallow="pedestrian tram rail_urban rail rail_electric rail_fast ship" speed="36.11" length="70.00" width="3.50" customShape="1" shape="-197.04,356.43 -198.59,356.39 -220.35,355.16 -227.61,355.10 -231.22,354.78 -234.28,354.20 -237.78,353.23 -243.65,351.16 -247.47,349.54 -250.66,347.81 -253.20,346.02 -260.32,339.98 -262.14,338.15"/>
    </edge>
    <edge id="76020" from="14" to="47" priority="3" type="highway.residential" spreadType="center" length="70.03" shape="-261.43,333.64 -180.04,355.05">
        <lane id="76020_0" index="0" disallow="pedestrian tram rail_urban rail rail_electric rail_fast ship" speed="36.11" length="70.03" width="3.50" customShape="1" shape="-261.43,333.64 -260.28,335.06 -257.88,337.47 -251.02,343.28 -248.68,344.92 -245.71,346.51 -242.08,348.01 -236.44,349.98 -233.14,350.87 -230.30,351.38 -226.88,351.62 -219.80,351.68 -198.48,352.89 -196.96,352.93"/>
    </edge>
    <edge id="76022" from="46" to="6" priority="3" type="highway.residential" spreadType="center" length="89.66">
        <lane id="76022_0" index="0" disallow="pedestrian tram rail_urban rail rail_electric rail_fast ship" speed="36.11" length="89.66" width="3.50" customShape="1" shape="-216.99,353.33 -216.25,325.54 -215.75,313.85 -215.66,302.66 -215.67,297.07 -216.00,293.01 -216.64,289.51 -217.81,285.61 -219.13,282.31 -220.76,279.14 -222.71,276.17 -224.97,273.42 -226.78,271.63 -228.80,270.09 -230.84,268.91"/>
    </edge>
    <edge id="76050" from="37" to="50" priority="3" type="highway.residential" spreadType="center" length="20.16" shape="-134.39,429.60 -147.78,387.52">
        <lane id="76050_0" index="0" disallow="pedestrian tram rail_urban rail rail_electric rail_fast ship" speed="36.11" length="20.16" width="3.50" customShape="1" shape="-134.73,428.35 -136.10,423.15 -140.32,408.98"/>
    </edge>
    <edge id="76051" from="50" to="30" priority="3" type="highway.residential" spreadType="center" length="21.44" shape="-144.45,386.46 -131.05,428.58">
        <lane id="76051_0" index="0" disallow="pedestrian tram rail_urban rail rail_electric rail_fast ship" speed="36.11" length="21.44" width="3.50" customShape="1" shape="-136.97,407.98 -132.74,422.17 -131.05,428.58"/>
    </edge>
    <edge id="76070" from="48" to="51" priority="3" type="highway.residential" spreadType="center" length="147.21">
        <lane id="76070_0" index="0" disallow="pedestrian tram rail_urban rail rail_electric rail_fast ship" speed="36.11" length="147.21" width="3.50" customShape="1" shape="-150.82,338.29 -149.14,329.24 -149.02,326.25 -149.19,321.78 -149.64,318.32 -150.42,314.93 -151.35,312.09 -152.43,309.85 -154.10,307.38 -156.06,305.12 -158.62,302.76 -161.79,300.36 -164.36,298.83 -167.10,297.65 -169.49,296.97 -172.45,296.53 -176.92,296.34 -179.40,296.50 -182.84,297.10 -185.71,297.91 -188.47,299.05 -190.65,300.25 -192.66,301.71 -194.44,303.45 -197.60,307.30 -199.53,310.20 -200.90,312.85 -202.00,315.63 -203.09,319.46 -203.72,322.88 -204.00,326.35 -203.88,330.33 -201.08,370.20"/>
    </edge>
    <edge id="76794" from="30" to="38" priority="3" type="highway.residential" spreadType="center" length="26.83">
        <lane id="76794_0" index="0" disallow="pedestrian tram rail_urban rail rail_electric rail_fast ship" speed="36.11" length="26.83" width="3.50" customShape="1" shape="-131.05,428.58 -130.36,430.49 -128.97,433.26 -127.29,435.86 -125.37,438.31 -122.56,441.34 -119.53,444.15 -115.52,447.43 -113.89,448.66"/>
    </edge>
    <edge id="76973" from="53" to="52" priority="3" type="highway.residential" spreadType="center" length="29.77">
        <lane id="76973_0" index="0" disallow="pedestrian tram rail_urban rail rail_electric rail_fast ship" speed="36.11" length="29.77" width="3.50" customShape="1" shape="-140.29,337.54 -141.02,343.55 -143.32,357.51 -143.85,362.53 -143.99,367.05"/>
    </edge>
    <edge id="76974" from="53" to="52" priority="3" type="highway.residential" spreadType="center" length="23.50">
        <lane id="76974_0" index="0" disallow="pedestrian tram rail_urban rail rail_electric rail_fast ship" speed="36.11" length="23.50" width="3.50" customShape="1" shape="-140.29,337.54 -140.86,342.20 -141.67,346.30 -142.68,349.81 -144.01,353.21 -145.45,355.99 -147.18,358.60 -147.86,359.42"/>
    </edge>
    <edge id="77001" from="43" to="37" priority="3" type="highway.residential" spreadType="center" length="27.78">
        <lane id="77001_0" index="0" disallow="pedestrian tram rail_urban rail rail_electric rail_fast ship" speed="36.11" length="27.78" width="3.50" customShape="1" shape="-115.95,451.49 -117.71,450.16 -121.95,446.68 -125.18,443.65 -128.19,440.38 -130.26,437.71 -132.10,434.83 -133.61,431.76 -133.95,430.82"/>
    </edge>

    <junction id="12" type="dead_end" x="-262.14" y="338.15" incLanes="76019_0" intLanes="" shape="-263.37,339.39 -260.90,336.92" rightOfWay="edgePriority"/>
    <junction id="14" type="dead_end" x="-261.43" y="333.64" incLanes="" intLanes="" shape="-262.79,334.75 -260.07,332.54" rightOfWay="edgePriority"/>
    <junction id="18" type="dead_end" x="-164.40" y="362.63" incLanes="75846_0" intLanes="" shape="-163.54,361.11 -165.27,364.15" rightOfWay="edgePriority"/>
    <junction id="26" type="dead_end" x="-156.52" y="369.57" incLanes="" intLanes="" shape="-157.89,370.66 -155.16,368.47" rightOfWay="edgePriority"/>
    <junction id="30" type="priority" x="-131.05" y="428.58" incLanes="76051_0" intLanes=":30_0_0" shape="-132.67,429.25 -129.38,428.05 -132.76,428.94 -132.72,429.10" rightOfWay="edgePriority">
        <request index="0" response="0" foes="0" cont="0"/>
    </junction>
    <junction id="34" type="dead_end" x="-202.54" y="272.58" incLanes="75982_0" intLanes="" shape="-204.20,272.02 -200.88,273.14" rightOfWay="edgePriority"/>
    <junction id="37" type="priority" x="-134.39" y="429.60" incLanes="77001_0" intLanes=":37_0_0" shape="-135.60,431.42 -132.31,430.23 -132.61,429.38 -132.71,429.08 -132.80,428.77 -132.90,428.40 -133.03,427.90 -136.42,428.79 -136.15,429.78 -136.05,430.12 -135.94,430.46 -135.80,430.87" rightOfWay="edgePriority">
        <request index="0" response="0" foes="0" cont="0"/>
    </junction>
    <junction id="38" type="dead_end" x="-113.89" y="448.66" incLanes="76794_0" intLanes="" shape="-112.84,447.26 -114.95,450.05" rightOfWay="edgePriority"/>
    <junction id="4" type="dead_end" x="-161.56" y="459.41" incLanes="" intLanes="" shape="-160.30,458.20 -162.82,460.63" rightOfWay="edgePriority"/>
    <junction id="43" type="dead_end" x="-115.95" y="451.49" incLanes="" intLanes="" shape="-114.90,450.09 -117.00,452.88" rightOfWay="edgePriority"/>
    <junction id="44" type="dead_end" x="-199.24" y="273.74" incLanes="" intLanes="" shape="-200.90,273.18 -197.58,274.29" rightOfWay="edgePriority"/>
    <junction id="45" type="priority" x="-210.58" y="333.29" incLanes="75956_0 75981_0" intLanes=":45_0_0 :45_1_0" shape="-213.91,347.29 -207.97,346.71 -208.40,340.99 -208.46,336.75 -208.23,333.25 -207.80,329.75 -207.28,325.50 -206.74,319.76 -213.72,319.24">
        <request index="0" response="00" foes="00" cont="0"/>
        <request index="1" response="00" foes="00" cont="0"/>
    </junction>
    <junction id="46" type="priority" x="-209.36" y="360.77" incLanes="75954_0" intLanes=":46_0_0 :46_1_0" shape="-213.86,368.42 -210.60,367.16 -210.97,366.13 -211.06,365.75 -211.10,365.36 -211.10,364.89 -211.08,364.26 -218.65,350.25 -218.62,354.25 -218.27,357.19 -217.62,359.57 -216.66,361.90 -215.41,364.68">
        <request index="0" response="00" foes="00" cont="0"/>
        <request index="1" response="00" foes="00" cont="0"/>
    </junction>
    <junction id="47" type="priority" x="-180.52" y="356.73" incLanes="75845_0 76020_0" intLanes=":47_0_0 :47_1_0 :47_2_0" shape="-171.57,364.60 -168.15,358.49 -170.91,356.65 -171.62,355.88 -171.88,355.22 -171.69,354.66 -171.05,354.20 -172.55,351.04 -177.33,352.88 -181.06,353.45 -184.30,353.17 -187.64,352.42 -191.65,351.62 -196.92,351.18 -197.08,358.17 -191.42,358.30 -187.16,358.53 -183.69,359.07 -180.35,360.12 -176.52,361.90">
        <request index="0" response="000" foes="000" cont="0"/>
        <request index="1" response="000" foes="000" cont="0"/>
        <request index="2" response="000" foes="000" cont="0"/>
    </junction>
    <junction id="48" type="priority" x="-159.16" y="345.91" incLanes="75879_0 75994_0" intLanes=":48_0_0 :48_1_0" shape="-160.74,352.99 -157.28,353.51 -156.35,350.06 -154.95,347.77 -153.30,346.04 -151.63,344.32 -150.16,342.03 -149.10,338.61 -152.54,337.97 -154.27,340.79 -156.08,342.34 -158.52,344.00 -161.58,345.74 -165.27,347.59 -163.77,350.75 -161.83,350.24 -161.20,350.45 -160.82,350.99 -160.66,351.83">
        <request index="0" response="10" foes="10" cont="0"/>
        <request index="1" response="00" foes="01" cont="0"/>
    </junction>
    <junction id="49" type="priority" x="-158.73" y="363.70" incLanes="75817_0 75820_0" intLanes=":49_0_0 :49_1_0 :49_2_0" shape="-158.47,375.51 -155.73,373.33 -156.26,372.33 -156.31,371.83 -156.22,371.34 -155.98,370.86 -155.61,370.38 -158.17,367.99 -158.91,368.28 -159.09,367.85 -159.14,367.03 -159.07,365.82 -158.87,364.23 -162.33,363.71 -162.68,364.68 -162.97,364.92 -163.34,365.00 -163.79,364.92 -164.31,364.68 -166.03,367.73 -164.07,368.94 -162.72,369.99 -161.75,371.03 -160.88,372.20 -159.87,373.64">
        <request index="0" response="000" foes="100" cont="0"/>
        <request index="1" response="000" foes="100" cont="0"/>
        <request index="2" response="011" foes="011" cont="0"/>
    </junction>
    <junction id="50" type="priority" x="-146.10" y="387.05" incLanes="76050_0 75979_0 75818_0" intLanes=":50_0_0 :50_1_0 :50_2_0" shape="-142.00,409.48 -135.29,407.48 -137.08,401.65 -138.46,397.36 -139.56,393.80 -140.50,390.21 -141.41,385.81 -142.42,379.81 -144.80,379.88 -145.63,379.73 -146.62,378.80 -147.99,377.29 -149.74,375.22 -151.87,372.56 -157.35,376.91 -152.69,383.02 -149.54,387.79 -147.41,392.01 -145.78,396.50 -144.14,402.05">
        <request index="0" response="000" foes="000" cont="0"/>
        <request index="1" response="000" foes="100" cont="0"/>
        <request index="2" response="010" foes="010" cont="0"/>
    </junction>
    <junction id="51" type="priority" x="-205.37" y="350.91" incLanes="76070_0 75829_0" intLanes=":51_0_0 :51_1_0" shape="-204.72,379.74 -197.96,377.92 -198.74,375.06 -198.95,374.05 -199.09,373.02 -199.21,371.77 -199.33,370.08 -202.82,370.32 -208.40,342.25 -211.88,342.59">
        <request index="0" response="00" foes="00" cont="0"/>
        <request index="1" response="00" foes="00" cont="0"/>
    </junction>
    <junction id="52" type="priority" x="-146.41" y="364.60" incLanes="76973_0 76974_0" intLanes=":52_0_0 :52_1_0" shape="-145.66,370.11 -142.16,369.99 -142.24,367.01 -145.74,367.08 -146.52,360.54 -149.20,358.30 -151.19,360.54 -148.64,362.93">
        <request index="0" response="00" foes="00" cont="0"/>
        <request index="1" response="00" foes="00" cont="0"/>
    </junction>
    <junction id="53" type="dead_end" x="-140.29" y="337.54" incLanes="" intLanes="" shape="-142.02,337.33 -138.55,337.75 -142.02,337.33 -138.55,337.75"/>
    <junction id="6" type="dead_end" x="-230.84" y="268.91" incLanes="76022_0" intLanes="" shape="-231.72,270.42 -229.96,267.40" rightOfWay="edgePriority"/>
    <junction id="8" type="dead_end" x="-172.97" y="437.22" incLanes="75868_0 75868_1" intLanes="" shape="-170.11,435.21 -175.84,439.23" rightOfWay="edgePriority"/>

    <connection from="75817" to="75845" fromLane="0" toLane="0" contPos="-4.00" shape="-156.14,375.63 -159.17,372.12 -162.12,369.23 -165.30,366.61 -168.70,364.26 -170.47,363.21" via=":49_0_0" dir="r" state="M"/>
    <connection from="75817" to="75879" fromLane="0" toLane="0" contPos="-4.00" shape="-156.14,375.63 -157.33,373.87 -158.26,371.96 -159.09,369.44 -159.59,366.83 -159.86,363.66 -159.80,359.94 -159.37,355.71 -159.30,355.18" via=":49_1_0" dir="s" state="M"/>