<routes>
	<vehicle depart="0.1" departLane="0" departPos="11.986956392297154" departSpeed="6.2625486" id="31" type="passenger">
		<route edges="76019"/>
	</vehicle>
	<vehicle depart="0.1" departLane="0" departPos="17.680697188557772" departSpeed="4.7338125" id="39" type="passenger">
		<route edges=":47_0 76019"/>
	</vehicle>
	<vehicle depart="0.1" departLane="0" departPos="2.5" departSpeed="1.8796631" id="310" type="passenger">
		<route edges=":47_0 76019"/>
	</vehicle>
	<vehicle depart="0.1" departLane="0" departPos="37.17064033673785" departSpeed="0.74036583" id="315" type="passenger">
		<route edges=":50_0 75817 75845"/>
	</vehicle>
	<vehicle depart="0.1" departLane="0" departPos="62.51015936303306" departSpeed="13.111107" id="326" type="passenger">
		<route edges=":46_0 76022"/>
	</vehicle>
	<vehicle depart="0.1" departLane="0" departPos="11.623976806927894" departSpeed="9.7894308" id="328" type="motorcycle">
		<route edges=":46_1 75956 75982"/>
	</vehicle>
</routes>
