<routes>
	<vehicle depart="0.1" departLane="0" departPos="7.58339155637953" departSpeed="2.2858216" id="32" type="passenger">
		<route edges=":84_2 20043"/>
	</vehicle>
	<vehicle depart="0.1" departLane="0" departPos="42.715141308552205" departSpeed="0.76152126" id="38" type="passenger">
		<route edges="19940 23688"/>
	</vehicle>
	<vehicle depart="0.1" departLane="0" departPos="7.4542224938642505" departSpeed="0.66955549" id="323" type="passenger">
		<route edges="20040 20043"/>
	</vehicle>
	<vehicle depart="0.1" departLane="0" departPos="22.202060528515275" departSpeed="1.2338282" id="335" type="passenger">
		<route edges="19940 23688"/>
	</vehicle>
	<vehicle depart="0.1" departLane="0" departPos="21.735756745689578" departSpeed="14.734313" id="340" type="passenger">
		<route edges="20042 19941"/>
	</vehicle>
	<vehicle depart="0.1" departLane="0" departPos="29.858041251901767" departSpeed="1.5470957" id="332" type="truck">
		<route edges="19940 23688"/>
	</vehicle>
</routes>
