<routes>
	<vehicle depart="0.1" departLane="1" departPos="85.96064652183036" departSpeed="12.235901" id="1" type="passenger">
		<route edges="26 28 24"/>
	</vehicle>
	<vehicle depart="0.1" departLane="0" departPos="0" departSpeed="11.60095" id="2" type="passenger">
		<route edges="26 27 24"/>
	</vehicle>
	<vehicle depart="0.1" departLane="0" departPos="90.54942582893784" departSpeed="14.315223" id="3" type="passenger">
		<route edges="26 27 24"/>
	</vehicle>
</routes>
