<!-- generated on Tue Feb  9 22:14:47 2021 by Eclipse SUMO netconvert Version 1.8.0
<configuration xmlns:xsi="http://www.w3.org/2001/XMLSchema-instance" xsi:noNamespaceSchemaLocation="http://sumo.dlr.de/xsd/netconvertConfiguration.xsd">

    <input>
        <node-files value="./converted_scenarios/scenario-factory/ITA_Segrate-1_1_I-1-1/ITA_Segrate-1_1_I-1-1.nod.xml"/>
        <edge-files value="./converted_scenarios/scenario-factory/ITA_Segrate-1_1_I-1-1/ITA_Segrate-1_1_I-1-1.edg.xml"/>
        <connection-files value="./converted_scenarios/scenario-factory/ITA_Segrate-1_1_I-1-1/ITA_Segrate-1_1_I-1-1.con.xml"/>
        <tllogic-files value="./converted_scenarios/scenario-factory/ITA_Segrate-1_1_I-1-1/ITA_Segrate-1_1_I-1-1.tll.xml"/>
        <type-files value="/home/zen/commonroad-interactive-benchmarks/install/commonroad-map-tool/crmapconverter/sumo_map/templates/DEU.typ.xml"/>
    </input>

    <output>
        <output-file value="./converted_scenarios/scenario-factory/ITA_Segrate-1_1_I-1-1/ITA_Segrate-1_1_I-1-1.net.xml"/>
    </output>

    <processing>
        <geometry.remove.keep-edges.explicit value="true"/>
        <geometry.avoid-overlap value="true"/>
        <offset.disable-normalization value="true"/>
    </processing>

    <junctions>
        <no-turnarounds value="true"/>
        <junctions.internal-link-detail value="20"/>
    </junctions>

    <report>
        <aggregate-warnings value="5"/>
    </report>

    <random_number>
        <seed value="1234"/>
    </random_number>

</configuration>
--><net xmlns:xsi="http://www.w3.org/2001/XMLSchema-instance" version="1.6" junctionCornerDetail="5" junctionLinkDetail="20" limitTurnSpeed="5.50" xsi:noNamespaceSchemaLocation="http://sumo.dlr.de/xsd/net_file.xsd">

    <location netOffset="0.00,0.00" convBoundary="790.85,-4.34,977.78,112.08" origBoundary="789.81,-4.34,977.78,112.08" projParameter="!"/>

    <type id="highway.bridleway" priority="1" speed="2.78" allow="pedestrian" oneway="1" width="2.00"/>
    <type id="highway.bus_guideway" priority="1" speed="27.78" allow="bus" oneway="1"/>
    <type id="highway.cycleway" priority="1" speed="8.33" allow="bicycle" oneway="0" width="1.00"/>
    <type id="highway.footway" priority="1" speed="2.78" allow="pedestrian" oneway="1" width="2.00"/>
    <type id="highway.ford" priority="1" speed="2.78" allow="army" oneway="0"/>
    <type id="highway.living_street" priority="2" speed="2.78" disallow="tram rail_urban rail rail_electric rail_fast ship" oneway="0"/>
    <type id="highway.motorway" priority="14" speed="39.44" allow="private emergency authority army vip passenger hov taxi bus coach delivery truck trailer motorcycle evehicle custom1 custom2" oneway="1"/>
    <type id="highway.motorway_link" priority="9" speed="22.22" allow="private emergency authority army vip passenger hov taxi bus coach delivery truck trailer motorcycle evehicle custom1 custom2" oneway="1"/>
    <type id="highway.path" priority="1" speed="2.78" allow="pedestrian bicycle" oneway="0" width="2.00"/>
    <type id="highway.pedestrian" priority="1" speed="2.78" allow="pedestrian" oneway="1" width="2.00"/>
    <type id="highway.primary" priority="12" speed="27.78" disallow="pedestrian tram rail_urban rail rail_electric rail_fast ship" oneway="0"/>
    <type id="highway.primary_link" priority="7" speed="22.22" disallow="pedestrian tram rail_urban rail rail_electric rail_fast ship" oneway="0"/>
    <type id="highway.raceway" priority="15" speed="83.33" allow="vip" oneway="0"/>
    <type id="highway.residential" priority="3" speed="13.89" disallow="pedestrian tram rail_urban rail rail_electric rail_fast ship" oneway="0"/>
    <type id="highway.secondary" priority="11" speed="27.78" disallow="pedestrian tram rail_urban rail rail_electric rail_fast ship" oneway="0"/>
    <type id="highway.secondary_link" priority="6" speed="22.22" disallow="pedestrian tram rail_urban rail rail_electric rail_fast ship" oneway="0"/>
    <type id="highway.service" priority="1" speed="5.56" allow="pedestrian delivery bicycle" oneway="0"/>
    <type id="highway.stairs" priority="1" speed="1.39" allow="pedestrian" oneway="1" width="2.00"/>
    <type id="highway.step" priority="1" speed="1.39" allow="pedestrian" oneway="1" width="2.00"/>
    <type id="highway.steps" priority="1" speed="1.39" allow="pedestrian" oneway="1" width="2.00"/>
    <type id="highway.tertiary" priority="10" speed="22.22" disallow="pedestrian tram rail_urban rail rail_electric rail_fast ship" oneway="0"/>
    <type id="highway.tertiary_link" priority="5" speed="22.22" disallow="pedestrian tram rail_urban rail rail_electric rail_fast ship" oneway="0"/>
    <type id="highway.track" priority="1" speed="5.56" allow="pedestrian motorcycle moped bicycle" oneway="0"/>
    <type id="highway.trunk" priority="13" speed="27.78" disallow="pedestrian bicycle tram rail_urban rail rail_electric rail_fast ship" oneway="0"/>
    <type id="highway.trunk_link" priority="8" speed="22.22" disallow="pedestrian bicycle tram rail_urban rail rail_electric rail_fast ship" oneway="0"/>
    <type id="highway.unclassified" priority="4" speed="13.89" disallow="pedestrian tram rail_urban rail rail_electric rail_fast ship" oneway="0"/>
    <type id="highway.unsurfaced" priority="1" speed="8.33" disallow="tram rail_urban rail rail_electric rail_fast ship" oneway="0"/>
    <type id="railway.highspeed" priority="21" speed="69.44" allow="rail_fast" oneway="1"/>
    <type id="railway.light_rail" priority="19" speed="27.78" allow="rail_urban" oneway="1"/>
    <type id="railway.preserved" priority="16" speed="27.78" allow="rail" oneway="1"/>
    <type id="railway.rail" priority="20" speed="44.44" allow="rail" oneway="1"/>
    <type id="railway.subway" priority="18" speed="27.78" allow="rail_urban" oneway="1"/>
    <type id="railway.tram" priority="17" speed="13.89" allow="tram" oneway="1"/>

    <edge id=":18_0" function="internal">
        <lane id=":18_0_0" index="0" disallow="pedestrian tram rail_urban rail rail_electric rail_fast ship" speed="36.11" length="5.77" width="3.50" shape="790.31,59.09 790.36,58.66 790.41,58.28 790.46,57.93 790.51,57.62 790.56,57.33 790.61,57.07 790.66,56.82 790.71,56.59 790.76,56.36 790.81,56.14 790.87,55.92 790.93,55.68 790.99,55.44 791.06,55.18 791.13,54.90 791.21,54.59 791.30,54.25 791.39,53.87 791.48,53.45"/>
    </edge>
    <edge id=":20_0" function="internal">
        <lane id=":20_0_0" index="0" disallow="pedestrian tram rail_urban rail rail_electric rail_fast ship" speed="36.11" length="6.13" width="3.50" shape="794.94,54.02 794.84,54.47 794.74,54.87 794.66,55.23 794.58,55.56 794.50,55.86 794.43,56.14 794.37,56.40 794.31,56.65 794.25,56.88 794.19,57.12 794.14,57.36 794.09,57.61 794.04,57.87 793.99,58.15 793.94,58.45 793.89,58.79 793.83,59.16 793.78,59.57 793.72,60.02"/>
    </edge>
    <edge id=":23_0" function="internal">
        <lane id=":23_0_0" index="0" disallow="pedestrian tram rail_urban rail rail_electric rail_fast ship" speed="36.11" length="38.23" width="3.50" shape="908.00,100.56 901.94,99.23 885.72,95.95 870.48,93.23"/>
    </edge>
    <edge id=":23_1" function="internal">
        <lane id=":23_1_0" index="0" disallow="pedestrian tram rail_urban rail rail_electric rail_fast ship" speed="12.12" length="33.99" width="3.50" shape="908.00,100.56 905.55,99.93 903.14,99.11 900.77,98.08 898.51,96.77 896.43,95.18 895.44,94.22 894.55,93.20 893.75,92.11 893.05,90.95 892.45,89.73 891.97,88.47 891.58,87.15 891.13,84.58 891.01,81.97 891.18,79.38 891.81,75.67"/>
    </edge>
    <edge id=":23_2" function="internal">
        <lane id=":23_2_0" index="0" disallow="pedestrian tram rail_urban rail rail_electric rail_fast ship" speed="11.11" length="28.39" width="3.50" shape="895.22,76.45 894.68,79.65 894.54,81.83 894.63,84.01 895.02,86.17 895.33,87.21 895.73,88.23 896.21,89.21 896.78,90.15 897.42,91.03 898.15,91.85 898.93,92.61 900.67,93.94 902.56,95.03 904.57,95.90 906.64,96.60 908.76,97.14"/>
    </edge>
    <edge id=":23_3" function="internal">
        <lane id=":23_3_0" index="0" disallow="pedestrian tram rail_urban rail rail_electric rail_fast ship" speed="12.38" length="33.75" width="3.50" shape="895.22,76.45 894.20,80.05 893.26,82.44 892.07,84.74 890.61,86.92 888.86,88.86 887.83,89.77 886.76,90.58 885.62,91.29 884.40,91.92 881.94,92.84 879.38,93.42 876.79,93.66 874.22,93.64 870.48,93.23"/>
    </edge>
    <edge id=":23_4" function="internal">
        <lane id=":23_4_0" index="0" disallow="pedestrian tram rail_urban rail rail_electric rail_fast ship" speed="11.40" length="28.42" width="3.50" shape="871.03,89.77 874.30,90.14 876.48,90.15 878.66,89.95 880.80,89.47 882.85,88.70 883.82,88.19 884.74,87.61 885.62,86.95 886.44,86.23 887.90,84.60 889.12,82.78 890.12,80.84 890.92,78.80 891.81,75.67"/>
    </edge>
    <edge id=":23_5" function="internal">
        <lane id=":23_5_0" index="0" disallow="pedestrian tram rail_urban rail rail_electric rail_fast ship" speed="36.11" length="38.45" width="3.50" shape="871.03,89.77 886.37,92.51 902.67,95.81 908.76,97.14"/>
    </edge>
    <edge id=":24_0" function="internal">
        <lane id=":24_0_0" index="0" disallow="pedestrian tram rail_urban rail rail_electric rail_fast ship" speed="36.11" length="28.23" width="3.50" shape="844.52,88.91 827.00,85.84 817.79,83.98 816.77,83.74"/>
    </edge>
    <edge id=":24_1" function="internal">
        <lane id=":24_1_0" index="0" disallow="pedestrian tram rail_urban rail rail_electric rail_fast ship" speed="12.18" length="34.66" width="3.50" shape="844.52,88.91 841.88,88.37 839.32,87.64 836.85,86.66 834.51,85.38 833.41,84.63 832.38,83.78 831.43,82.86 830.56,81.85 829.78,80.77 829.11,79.62 828.54,78.42 828.08,77.17 827.44,74.58 827.16,71.94 827.17,69.27 827.41,66.62 827.84,63.98"/>
    </edge>
    <edge id=":24_2" function="internal">
        <lane id=":24_2_0" index="0" disallow="pedestrian tram rail_urban rail rail_electric rail_fast ship" speed="11.18" length="28.99" width="3.50" shape="831.28,64.62 830.89,66.96 830.68,69.25 830.68,71.52 830.91,73.74 831.43,75.89 831.80,76.87 832.25,77.84 832.78,78.76 833.40,79.62 834.09,80.43 834.86,81.17 835.69,81.85 836.56,82.46 838.52,83.53 840.61,84.36 842.80,84.99 845.09,85.45"/>
    </edge>
    <edge id=":24_3" function="internal">
        <lane id=":24_3_0" index="0" disallow="pedestrian tram rail_urban rail rail_electric rail_fast ship" speed="10.65" length="26.77" width="3.50" shape="831.28,64.62 830.06,69.88 828.86,73.70 827.85,76.18 826.62,78.55 825.89,79.68 825.08,80.74 824.16,81.71 823.13,82.56 821.98,83.24 820.74,83.71 819.42,83.95 818.09,83.95 816.77,83.74"/>
    </edge>
    <edge id=":24_4" function="internal">
        <lane id=":24_4_0" index="0" disallow="pedestrian tram rail_urban rail rail_electric rail_fast ship" speed="9.48" length="21.18" width="3.50" shape="817.50,80.33 818.38,80.47 819.22,80.45 820.05,80.24 820.84,79.85 821.59,79.29 822.28,78.61 822.92,77.81 823.51,76.94 824.04,76.01 825.00,73.98 825.80,71.87 826.80,68.54 827.84,63.98"/>
    </edge>
    <edge id=":24_5" function="internal">
        <lane id=":24_5_0" index="0" disallow="pedestrian tram rail_urban rail rail_electric rail_fast ship" speed="36.11" length="28.06" width="3.50" shape="817.50,80.33 818.55,80.56 827.68,82.41 845.09,85.45"/>
    </edge>

    <edge id="17483" from="21" to="20" priority="3" type="highway.residential" spreadType="center" length="54.17">
        <lane id="17483_0" index="0" disallow="pedestrian tram rail_urban rail rail_electric rail_fast ship" speed="36.11" length="54.17" width="3.50" customShape="1" shape="806.85,1.18 800.56,29.11 794.94,54.02"/>
    </edge>
    <edge id="17484" from="18" to="19" priority="3" type="highway.residential" spreadType="center" length="54.37">
        <lane id="17484_0" index="0" disallow="pedestrian tram rail_urban rail rail_electric rail_fast ship" speed="36.11" length="54.37" width="3.50" customShape="1" shape="791.48,53.45 797.14,28.34 803.44,0.41"/>
    </edge>
    <edge id="17491" from="24" to="14" priority="3" type="highway.residential" spreadType="center" length="70.00" shape="828.76,77.58 842.83,-4.34">
        <lane id="17491_0" index="0" disallow="pedestrian tram rail_urban rail rail_electric rail_fast ship" speed="36.11" length="70.00" width="3.50" customShape="1" shape="827.84,63.98 834.05,30.59 836.69,18.00 839.14,8.00 841.69,-0.91 842.83,-4.34"/>
    </edge>
    <edge id="17492" from="16" to="24" priority="3" type="highway.residential" spreadType="center" length="69.99" shape="846.29,-3.66 832.21,78.17">
        <lane id="17492_0" index="0" disallow="pedestrian tram rail_urban rail rail_electric rail_fast ship" speed="36.11" length="69.99" width="3.50" customShape="1" shape="846.29,-3.66 844.70,1.23 842.26,9.91 839.91,19.65 837.35,31.95 831.27,64.64"/>
    </edge>
    <edge id="17715" from="23" to="8" priority="3" type="highway.residential" spreadType="center" length="69.99" shape="891.27,87.10 977.78,108.65">
        <lane id="17715_0" index="0" disallow="pedestrian tram rail_urban rail rail_electric rail_fast ship" speed="36.11" length="69.99" width="3.50" customShape="1" shape="908.76,97.14 912.69,98.01 926.01,100.73 952.85,105.04 971.27,107.80 977.78,108.65"/>
    </edge>
    <edge id="17716" from="17" to="23" priority="3" type="highway.residential" spreadType="center" length="70.00" shape="977.00,112.08 890.42,90.49">
        <lane id="17716_0" index="0" disallow="pedestrian tram rail_urban rail rail_electric rail_fast ship" speed="36.11" length="70.00" width="3.50" customShape="1" shape="977.00,112.08 970.74,111.26 952.27,108.49 925.34,104.16 911.95,101.43 907.98,100.55"/>
    </edge>
    <edge id="17718" from="24" to="23" priority="3" type="highway.residential" spreadType="center" length="26.33" shape="830.76,76.11 891.19,87.08">
        <lane id="17718_0" index="0" disallow="pedestrian tram rail_urban rail rail_electric rail_fast ship" speed="36.11" length="26.33" width="3.50" customShape="1" shape="845.09,85.45 858.05,87.61 871.06,89.78"/>
    </edge>
    <edge id="17719" from="23" to="24" priority="3" type="highway.residential" spreadType="center" length="26.35" shape="890.57,90.52 830.13,79.55">
        <lane id="17719_0" index="0" disallow="pedestrian tram rail_urban rail rail_electric rail_fast ship" speed="36.11" length="26.35" width="3.50" customShape="1" shape="870.48,93.23 857.47,91.06 844.49,88.90"/>
    </edge>
    <edge id="17721" from="20" to="24" priority="3" type="highway.residential" spreadType="center" length="36.87" shape="794.27,57.01 831.37,76.33">
        <lane id="17721_0" index="0" disallow="pedestrian tram rail_urban rail rail_electric rail_fast ship" speed="36.11" length="36.87" width="3.50" customShape="1" shape="793.72,60.02 793.39,62.66 793.32,64.87 793.47,67.05 793.89,69.17 794.19,70.13 794.59,71.08 795.07,71.97 795.63,72.80 796.28,73.57 797.00,74.26 797.81,74.88 798.67,75.42 799.60,75.89 800.55,76.28 802.70,76.91 802.88,76.95 810.10,78.62 817.32,80.28 817.56,80.34"/>
    </edge>
    <edge id="17733" from="15" to="23" priority="3" type="highway.residential" spreadType="center" length="70.00" shape="910.78,8.20 892.58,89.22">
        <lane id="17733_0" index="0" disallow="pedestrian tram rail_urban rail rail_electric rail_fast ship" speed="36.11" length="70.00" width="3.50" customShape="1" shape="910.78,8.20 903.33,40.89 895.22,76.45"/>
    </edge>
    <edge id="17734" from="23" to="9" priority="3" type="highway.residential" spreadType="center" length="70.00" shape="889.17,88.46 907.37,7.42">
        <lane id="17734_0" index="0" disallow="pedestrian tram rail_urban rail rail_electric rail_fast ship" speed="36.11" length="70.00" width="3.50" customShape="1" shape="891.81,75.67 899.92,40.11 907.37,7.42"/>
    </edge>
    <edge id="18062" from="24" to="18" priority="3" type="highway.residential" spreadType="center" length="42.58" shape="829.66,79.38 790.85,56.26">
        <lane id="18062_0" index="0" disallow="pedestrian tram rail_urban rail rail_electric rail_fast ship" speed="36.11" length="42.58" width="3.50" customShape="1" shape="816.77,83.74 816.65,83.72 816.53,83.69 809.32,82.03 802.10,80.37 801.98,80.34 801.87,80.31 799.34,79.58 798.13,79.09 796.95,78.51 795.83,77.83 794.78,77.05 793.81,76.17 792.93,75.19 792.17,74.12 791.52,72.98 790.99,71.78 790.56,70.54 790.01,67.98 789.81,65.36 789.86,62.74 790.31,59.09"/>
    </edge>

    <junction id="14" type="dead_end" x="842.83" y="-4.34" incLanes="17491_0" intLanes="" shape="841.17,-4.89 844.49,-3.79" rightOfWay="edgePriority"/>
    <junction id="15" type="dead_end" x="910.78" y="8.20" incLanes="" intLanes="" shape="909.07,7.81 912.48,8.59" rightOfWay="edgePriority"/>
    <junction id="16" type="dead_end" x="846.29" y="-3.66" incLanes="" intLanes="" shape="844.63,-4.20 847.96,-3.12" rightOfWay="edgePriority"/>
    <junction id="17" type="dead_end" x="977.00" y="112.08" incLanes="" intLanes="" shape="977.23,110.35 976.78,113.82" rightOfWay="edgePriority"/>
    <junction id="18" type="priority" x="790.85" y="56.26" incLanes="18062_0" intLanes=":18_0_0" shape="788.59,58.75 792.03,59.44 792.34,57.34 792.50,56.61 792.91,55.02 793.19,53.83 789.78,53.06 789.26,55.16 789.07,55.89 788.91,56.62 788.75,57.53" rightOfWay="edgePriority">
        <request index="0" response="0" foes="0" cont="0"/>
    </junction>
    <junction id="19" type="dead_end" x="803.44" y="0.41" incLanes="17484_0" intLanes="" shape="801.73,0.02 805.14,0.79" rightOfWay="edgePriority"/>
    <junction id="20" type="priority" x="794.27" y="57.01" incLanes="17483_0" intLanes=":20_0_0" shape="792.00,59.68 795.44,60.37 795.77,58.14 795.94,57.37 796.12,56.60 796.35,55.67 796.65,54.40 793.23,53.63 792.70,55.86 792.51,56.64 792.34,57.42 792.18,58.38" rightOfWay="edgePriority">
        <request index="0" response="0" foes="0" cont="0"/>
    </junction>
    <junction id="21" type="dead_end" x="806.85" y="1.18" incLanes="" intLanes="" shape="805.14,0.79 808.56,1.56" rightOfWay="edgePriority"/>
    <junction id="23" type="priority" x="890.88" y="88.80" incLanes="17716_0 17733_0 17718_0" intLanes=":23_0_0 :23_1_0 :23_2_0 :23_3_0 :23_4_0 :23_5_0" shape="907.63,102.27 909.13,95.43 904.44,93.96 900.82,91.83 898.25,89.06 896.75,85.63 896.31,81.56 896.93,76.84 890.11,75.28 888.61,79.89 886.47,83.51 883.67,86.13 880.22,87.76 876.11,88.40 871.34,88.05 870.20,94.95">
        <request index="0" response="000000" foes="001000" cont="0"/>
        <request index="1" response="110000" foes="111000" cont="0"/>
        <request index="2" response="100000" foes="100000" cont="0"/>
        <request index="3" response="100011" foes="100011" cont="0"/>
        <request index="4" response="000000" foes="000010" cont="0"/>
        <request index="5" response="000000" foes="001110" cont="0"/>
    </junction>
    <junction id="24" type="priority" x="830.49" y="77.84" incLanes="17719_0 17492_0 17721_0" intLanes=":24_0_0 :24_1_0 :24_2_0 :24_3_0 :24_4_0 :24_5_0" shape="844.23,90.63 845.38,83.73 840.76,82.50 837.16,80.50 834.59,77.75 833.03,74.24 832.51,69.97 833.00,64.94 826.12,63.66 825.05,68.59 823.87,72.55 822.57,75.53 821.15,77.54 819.61,78.57 817.96,78.64 816.37,85.45">
        <request index="0" response="000000" foes="001000" cont="0"/>
        <request index="1" response="110000" foes="111000" cont="0"/>
        <request index="2" response="100000" foes="100000" cont="0"/>
        <request index="3" response="100011" foes="100011" cont="0"/>
        <request index="4" response="000000" foes="000010" cont="0"/>
        <request index="5" response="000000" foes="001110" cont="0"/>
    </junction>
    <junction id="8" type="dead_end" x="977.78" y="108.65" incLanes="17715_0" intLanes="" shape="978.01,106.92 977.55,110.39" rightOfWay="edgePriority"/>
    <junction id="9" type="dead_end" x="907.37" y="7.42" incLanes="17734_0" intLanes="" shape="905.66,7.04 909.07,7.81" rightOfWay="edgePriority"/>

    <connection from="17483" to="17721" fromLane="0" toLane="0" contPos="-4.00" via=":20_0_0" dir="r" state="M"/>
    <connection from="17492" to="17718" fromLane="0" toLane="0" contPos="-4.00" shape="831.27,64.64 830.89,66.96 830.68,69.25 830.68,71.52 830.91,73.74 831.43,75.89 831.80,76.87 832.25,77.84 832.78,78.76 833.40,79.62 834.09,80.43 834.86,81.17 835.69,81.85 836.56,82.46 838.52,83.53 840.61,84.36 842.80,84.99 845.09,85.45" via=":24_2_0" dir="r" state="m"/>
    <connection from="17492" to="18062" fromLane="0" toLane="0" contPos="-4.00" shape="831.27,64.64 830.06,69.88 828.86,73.70 827.85,76.18 826.62,78.55 825.89,79.68 825.08,80.74 824.16,81.71 823.13,82.56 821.98,83.24 820.74,83.71 819.42,83.95 818.09,83.95 816.77,83.74" via=":24_3_0" dir="l" state="m"/>
    <connection from="17716" to="17719" fromLane="0" toLane="0" contPos="-4.00" shape="907.98,100.55 901.94,99.23 885.72,95.95 870.48,93.23" via=":23_0_0" dir="s" state="M"/>
    <connection from="17716" to="17734" fromLane="0" toLane="0" contPos="-4.00" shape="907.98,100.55 905.55,99.93 903.14,99.11 900.77,98.08 898.51,96.77 896.43,95.18 895.44,94.22 894.55,93.20 893.75,92.11 893.05,90.95 892.45,89.73 891.97,88.47 891.58,87.15 891.13,84.58 891.01,81.97 891.18,79.38 891.81,75.67" via=":23_1_0" dir="l" state="m"/>
    <connection from="17718" to="17734" fromLane="0" toLane="0" contPos="-4.00" shape="871.03,89.77 874.30,90.14 876.48,90.15 878.66,89.95 880.80,89.47 882.85,88.70 883.82,88.19 884.74,87.61 885.62,86.95 886.44,86.23 887.90,84.60 889.12,82.78 890.12,80.84 890.92,78.80 891.81,75.67" via=":23_4_0" dir="r" state="M"/>
    <connection from="17718" to="17715" fromLane="0" toLane="0" contPos="-4.00" shape="871.03,89.77 886.37,92.51 902.67,95.81 908.76,97.14" via=":23_5_0" dir="s" state="M"/>
    <connection from="17719" to="18062" fromLane="0" toLane="0" contPos="-4.00" shape="844.49,88.90 827.00,85.84 817.79,83.98 816.77,83.74" via=":24_0_0" dir="s" state="M"/>
    <connection from="17719" to="17491" fromLane="0" toLane="0" contPos="-4.00" shape="844.49,88.90 841.88,88.37 839.32,87.64 836.85,86.66 834.51,85.38 833.41,84.63 832.38,83.78 831.43,82.86 830.56,81.85 829.78,80.77 829.11,79.62 828.54,78.42 828.08,77.17 827.44,74.58 827.16,71.94 827.17,69.27 827.41,66.62 827.84,63.98" via=":24_1_0" dir="l" state="m"/>
    <connection from="17721" to="17491" fromLane="0" toLane="0" contPos="-4.00" shape="817.50,80.33 818.38,80.47 819.22,80.45 820.05,80.24 820.84,79.85 821.59,79.29 822.28,78.61 822.92,77.81 823.51,76.94 824.04,76.01 825.00,73.98 825.80,71.87 826.80,68.54 827.84,63.98" via=":24_4_0" dir="r" state="M"/>
    <connection from="17721" to="17718" fromLane="0" toLane="0" contPos="-4.00" shape="817.50,80.33 818.55,80.56 827.68,82.41 845.09,85.45" via=":24_5_0" dir="s" state="M"/>
    <connection from="17733" to="17715" fromLane="0" toLane="0" contPos="-4.00" shape="895.22,76.45 894.68,79.65 894.54,81.83 894.63,84.01 895.02,86.17 895.33,87.21 895.73,88.23 896.21,89.21 896.78,90.15 897.42,91.03 898.15,91.85 898.93,92.61 900.67,93.94 902.56,95.03 904.57,95.90 906.64,96.60 908.76,97.14" via=":23_2_0" dir="r" state="m"/>
    <connection from="17733" to="17719" fromLane="0" toLane="0" contPos="-4.00" shape="895.22,76.45 894.20,80.05 893.26,82.44 892.07,84.74 890.61,86.92 888.86,88.86 887.83,89.77 886.76,90.58 885.62,91.29 884.40,91.92 881.94,92.84 879.38,93.42 876.79,93.66 874.22,93.64 870.48,93.23" via=":23_3_0" dir="l" state="m"/>
    <connection from="18062" to="17484" fromLane="0" toLane="0" contPos="-4.00" via=":18_0_0" dir="l" state="M"/>

    <connection from=":18_0" to="17484" fromLane="0" toLane="0" dir="l" state="M"/>
    <connection from=":20_0" to="17721" fromLane="0" toLane="0" dir="r" state="M"/>
    <connection from=":23_0" to="17719" fromLane="0" toLane="0" dir="s" state="M"/>
    <connection from=":23_1" to="17734" fromLane="0" toLane="0" dir="l" state="M"/>
    <connection from=":23_2" to="17715" fromLane="0" toLane="0" dir="r" state="M"/>
    <connection from=":23_3" to="17719" fromLane="0" toLane="0" dir="l" state="M"/>
    <connection from=":23_4" to="17734" fromLane="0" toLane="0" dir="r" state="M"/>
    <connection from=":23_5" to="17715" fromLane="0" toLane="0" dir="s" state="M"/>
    <connection from=":24_0" to="18062" fromLane="0" toLane="0" dir="s" state="M"/>
    <connection from=":24_1" to="17491" fromLane="0" toLane="0" dir="l" state="M"/>
    <connection from=":24_2" to="17718" fromLane="0" toLane="0" dir="r" state="M"/>
    <connection from=":24_3" to="18062" fromLane="0" toLane="0" dir="l" state="M"/>
    <connection from=":24_4" to="17491" fromLane="0" toLane="0" dir="r" state="M"/>
    <connection from=":24_5" to="17718" fromLane="0" toLane="0" dir="s" state="M"/>

</net>