<routes>
	<vehicle depart="0.1" departLane="0" departPos="69.8997909582644" departSpeed="0.0" id="313" type="passenger">
		<route edges="17733 17715"/>
	</vehicle>
	<vehicle depart="0.1" departLane="0" departPos="8.638144970190444" departSpeed="0.20040312" id="317" type="passenger">
		<route edges=":24_2 17718"/>
	</vehicle>
	<vehicle depart="0.1" departLane="0" departPos="62.33596811242453" departSpeed="0.067484186" id="320" type="passenger">
		<route edges="17733 17715"/>
	</vehicle>
	<vehicle depart="0.1" departLane="0" departPos="20.519601404073462" departSpeed="9.3992598" id="336" type="passenger">
		<route edges="17719 17491"/>
	</vehicle>
	<vehicle depart="0.1" departLane="0" departPos="22.523383615166548" departSpeed="11.380903" id="340" type="passenger">
		<route edges=":23_3 17719 18062"/>
	</vehicle>
	<vehicle depart="0.1" departLane="0" departPos="27.136937909443" departSpeed="13.956687" id="342" type="passenger">
		<route edges=":23_1 17734"/>
	</vehicle>
	<vehicle depart="0.1" departLane="0" departPos="57.51168569395853" departSpeed="14.637963" id="345" type="passenger">
		<route edges="17716 17719 17491"/>
	</vehicle>
	<vehicle depart="0.1" departLane="0" departPos="49.56245048103293" departSpeed="10.431311" id="348" type="passenger">
		<route edges="17716 17719"/>
	</vehicle>
	<vehicle depart="0.1" departLane="0" departPos="28.28301074338542" departSpeed="10.822076" id="349" type="passenger">
		<route edges="17716 17734"/>
	</vehicle>
	<vehicle depart="0.1" departLane="0" departPos="19.33270695874511" departSpeed="0.16418983" id="30" type="truck">
		<route edges=":24_2 17718"/>
	</vehicle>
</routes>
