<!-- generated on Tue Feb  9 22:15:48 2021 by Eclipse SUMO netconvert Version 1.8.0
<configuration xmlns:xsi="http://www.w3.org/2001/XMLSchema-instance" xsi:noNamespaceSchemaLocation="http://sumo.dlr.de/xsd/netconvertConfiguration.xsd">

    <input>
        <node-files value="./converted_scenarios/scenario-factory/ITA_CarpiCentro-9_3_I-1-1/ITA_CarpiCentro-9_3_I-1-1.nod.xml"/>
        <edge-files value="./converted_scenarios/scenario-factory/ITA_CarpiCentro-9_3_I-1-1/ITA_CarpiCentro-9_3_I-1-1.edg.xml"/>
        <connection-files value="./converted_scenarios/scenario-factory/ITA_CarpiCentro-9_3_I-1-1/ITA_CarpiCentro-9_3_I-1-1.con.xml"/>
        <tllogic-files value="./converted_scenarios/scenario-factory/ITA_CarpiCentro-9_3_I-1-1/ITA_CarpiCentro-9_3_I-1-1.tll.xml"/>
        <type-files value="/home/zen/commonroad-interactive-benchmarks/install/commonroad-map-tool/crmapconverter/sumo_map/templates/DEU.typ.xml"/>
    </input>

    <output>
        <output-file value="./converted_scenarios/scenario-factory/ITA_CarpiCentro-9_3_I-1-1/ITA_CarpiCentro-9_3_I-1-1.net.xml"/>
    </output>

    <processing>
        <geometry.remove.keep-edges.explicit value="true"/>
        <geometry.avoid-overlap value="true"/>
        <offset.disable-normalization value="true"/>
    </processing>

    <junctions>
        <no-turnarounds value="true"/>
        <junctions.internal-link-detail value="20"/>
    </junctions>

    <report>
        <aggregate-warnings value="5"/>
    </report>

    <random_number>
        <seed value="1234"/>
    </random_number>

</configuration>
--><net xmlns:xsi="http://www.w3.org/2001/XMLSchema-instance" version="1.6" junctionCornerDetail="5" junctionLinkDetail="20" limitTurnSpeed="5.50" xsi:noNamespaceSchemaLocation="http://sumo.dlr.de/xsd/net_file.xsd">

    <location netOffset="0.00,0.00" convBoundary="-437.51,-123.48,-315.65,89.30" origBoundary="-437.51,-129.97,-315.65,89.30" projParameter="!"/>

    <type id="highway.bridleway" priority="1" speed="2.78" allow="pedestrian" oneway="1" width="2.00"/>
    <type id="highway.bus_guideway" priority="1" speed="27.78" allow="bus" oneway="1"/>
    <type id="highway.cycleway" priority="1" speed="8.33" allow="bicycle" oneway="0" width="1.00"/>
    <type id="highway.footway" priority="1" speed="2.78" allow="pedestrian" oneway="1" width="2.00"/>
    <type id="highway.ford" priority="1" speed="2.78" allow="army" oneway="0"/>
    <type id="highway.living_street" priority="2" speed="2.78" disallow="tram rail_urban rail rail_electric rail_fast ship" oneway="0"/>
    <type id="highway.motorway" priority="14" speed="39.44" allow="private emergency authority army vip passenger hov taxi bus coach delivery truck trailer motorcycle evehicle custom1 custom2" oneway="1"/>
    <type id="highway.motorway_link" priority="9" speed="22.22" allow="private emergency authority army vip passenger hov taxi bus coach delivery truck trailer motorcycle evehicle custom1 custom2" oneway="1"/>
    <type id="highway.path" priority="1" speed="2.78" allow="pedestrian bicycle" oneway="0" width="2.00"/>
    <type id="highway.pedestrian" priority="1" speed="2.78" allow="pedestrian" oneway="1" width="2.00"/>
    <type id="highway.primary" priority="12" speed="27.78" disallow="pedestrian tram rail_urban rail rail_electric rail_fast ship" oneway="0"/>
    <type id="highway.primary_link" priority="7" speed="22.22" disallow="pedestrian tram rail_urban rail rail_electric rail_fast ship" oneway="0"/>
    <type id="highway.raceway" priority="15" speed="83.33" allow="vip" oneway="0"/>
    <type id="highway.residential" priority="3" speed="13.89" disallow="pedestrian tram rail_urban rail rail_electric rail_fast ship" oneway="0"/>
    <type id="highway.secondary" priority="11" speed="27.78" disallow="pedestrian tram rail_urban rail rail_electric rail_fast ship" oneway="0"/>
    <type id="highway.secondary_link" priority="6" speed="22.22" disallow="pedestrian tram rail_urban rail rail_electric rail_fast ship" oneway="0"/>
    <type id="highway.service" priority="1" speed="5.56" allow="pedestrian delivery bicycle" oneway="0"/>
    <type id="highway.stairs" priority="1" speed="1.39" allow="pedestrian" oneway="1" width="2.00"/>
    <type id="highway.step" priority="1" speed="1.39" allow="pedestrian" oneway="1" width="2.00"/>
    <type id="highway.steps" priority="1" speed="1.39" allow="pedestrian" oneway="1" width="2.00"/>
    <type id="highway.tertiary" priority="10" speed="22.22" disallow="pedestrian tram rail_urban rail rail_electric rail_fast ship" oneway="0"/>
    <type id="highway.tertiary_link" priority="5" speed="22.22" disallow="pedestrian tram rail_urban rail rail_electric rail_fast ship" oneway="0"/>
    <type id="highway.track" priority="1" speed="5.56" allow="pedestrian motorcycle moped bicycle" oneway="0"/>
    <type id="highway.trunk" priority="13" speed="27.78" disallow="pedestrian bicycle tram rail_urban rail rail_electric rail_fast ship" oneway="0"/>
    <type id="highway.trunk_link" priority="8" speed="22.22" disallow="pedestrian bicycle tram rail_urban rail rail_electric rail_fast ship" oneway="0"/>
    <type id="highway.unclassified" priority="4" speed="13.89" disallow="pedestrian tram rail_urban rail rail_electric rail_fast ship" oneway="0"/>
    <type id="highway.unsurfaced" priority="1" speed="8.33" disallow="tram rail_urban rail rail_electric rail_fast ship" oneway="0"/>
    <type id="railway.highspeed" priority="21" speed="69.44" allow="rail_fast" oneway="1"/>
    <type id="railway.light_rail" priority="19" speed="27.78" allow="rail_urban" oneway="1"/>
    <type id="railway.preserved" priority="16" speed="27.78" allow="rail" oneway="1"/>
    <type id="railway.rail" priority="20" speed="44.44" allow="rail" oneway="1"/>
    <type id="railway.subway" priority="18" speed="27.78" allow="rail_urban" oneway="1"/>
    <type id="railway.tram" priority="17" speed="13.89" allow="tram" oneway="1"/>

    <edge id=":36_0" function="internal">
        <lane id=":36_0_0" index="0" disallow="pedestrian tram rail_urban rail rail_electric rail_fast ship" speed="36.11" length="3.00" width="3.50" shape="-344.53,22.48 -343.32,25.22"/>
    </edge>
    <edge id=":38_0" function="internal">
        <lane id=":38_0_0" index="0" disallow="pedestrian tram rail_urban rail rail_electric rail_fast ship" speed="36.11" length="3.00" width="3.50" shape="-346.52,26.64 -347.73,23.89"/>
    </edge>
    <edge id=":43_0" function="internal">
        <lane id=":43_0_0" index="0" disallow="pedestrian tram rail_urban rail rail_electric rail_fast ship" speed="7.53" length="26.98" width="3.49" shape="-403.27,-89.11 -408.80,-99.43 -416.07,-112.86"/>
    </edge>
    <edge id=":43_1" function="internal">
        <lane id=":43_1_0" index="0" disallow="pedestrian tram rail_urban rail rail_electric rail_fast ship" speed="12.25" length="33.79" width="3.50" shape="-403.27,-89.11 -404.93,-92.67 -405.80,-95.12 -406.41,-97.64 -406.72,-100.22 -406.66,-102.81 -406.47,-104.10 -406.18,-105.36 -405.78,-106.60 -405.28,-107.80 -404.68,-108.95 -403.23,-111.10 -401.49,-113.03 -399.55,-114.76 -397.45,-116.29 -395.24,-117.65"/>
    </edge>
    <edge id=":43_2" function="internal">
        <lane id=":43_2_0" index="0" disallow="pedestrian tram rail_urban rail rail_electric rail_fast ship" speed="11.25" length="28.32" width="3.50" shape="-393.50,-114.62 -395.43,-113.43 -397.23,-112.11 -398.88,-110.65 -400.32,-109.04 -401.53,-107.25 -402.00,-106.35 -402.40,-105.38 -402.72,-104.39 -402.95,-103.37 -403.10,-102.36 -403.15,-100.21 -402.89,-98.07 -402.37,-95.95 -401.64,-93.86 -400.18,-90.76"/>
    </edge>
    <edge id=":43_3" function="internal">
        <lane id=":43_3_0" index="0" disallow="pedestrian tram rail_urban rail rail_electric rail_fast ship" speed="10.77" length="26.25" width="3.49" shape="-393.50,-114.62 -397.52,-112.41 -401.65,-110.38 -404.88,-109.04 -407.15,-108.31 -408.38,-108.04 -409.69,-107.89 -411.10,-107.96 -412.55,-108.41 -416.07,-112.86"/>
    </edge>
    <edge id=":43_4" function="internal">
        <lane id=":43_4_0" index="0" disallow="pedestrian tram rail_urban rail rail_electric rail_fast ship" speed="9.89" length="21.71" width="3.50" shape="-413.42,-114.98 -410.40,-110.96 -409.42,-111.02 -408.46,-111.25 -407.53,-111.54 -406.61,-111.88 -404.80,-112.65 -402.15,-113.92 -398.67,-115.74 -395.24,-117.65"/>
    </edge>
    <edge id=":43_5" function="internal">
        <lane id=":43_5_0" index="0" disallow="pedestrian tram rail_urban rail rail_electric rail_fast ship" speed="36.11" length="27.60" width="3.50" shape="-413.42,-114.98 -405.72,-101.09 -400.18,-90.76"/>
    </edge>
    <edge id=":44_0" function="internal">
        <lane id=":44_0_0" index="0" disallow="pedestrian tram rail_urban rail rail_electric rail_fast ship" speed="11.03" length="28.77" width="3.50" shape="-374.93,-36.05 -376.54,-38.95 -377.81,-40.76 -379.27,-42.42 -380.94,-43.88 -381.85,-44.51 -382.82,-45.06 -383.82,-45.52 -384.87,-45.88 -385.94,-46.15 -387.04,-46.31 -388.14,-46.39 -389.25,-46.37 -391.45,-46.09 -393.59,-45.55 -395.68,-44.79 -398.66,-43.36"/>
    </edge>
    <edge id=":44_1" function="internal">
        <lane id=":44_1_0" index="0" disallow="pedestrian tram rail_urban rail rail_electric rail_fast ship" speed="36.11" length="26.15" width="3.47" shape="-374.93,-36.05 -380.32,-46.42 -387.20,-59.14"/>
    </edge>
    <edge id=":44_2" function="internal">
        <lane id=":44_2_0" index="0" disallow="pedestrian tram rail_urban rail rail_electric rail_fast ship" speed="36.11" length="26.05" width="3.50" shape="-384.04,-60.63 -377.22,-48.04 -371.80,-37.63"/>
    </edge>
    <edge id=":44_3" function="internal">
        <lane id=":44_3_0" index="0" disallow="pedestrian tram rail_urban rail rail_electric rail_fast ship" speed="10.64" length="24.84" width="3.50" shape="-384.04,-60.63 -383.30,-58.62 -383.33,-56.88 -383.79,-55.40 -384.46,-54.16 -385.23,-53.08 -386.06,-52.11 -386.95,-51.22 -388.79,-49.64 -391.66,-47.55 -394.63,-45.65 -398.66,-43.36"/>
    </edge>
    <edge id=":44_4" function="internal">
        <lane id=":44_4_0" index="0" disallow="pedestrian tram rail_urban rail rail_electric rail_fast ship" speed="9.48" length="19.69" width="3.47" shape="-400.33,-46.44 -396.84,-48.40 -394.26,-49.97 -391.76,-51.65 -390.17,-52.87 -389.40,-53.52 -388.67,-54.20 -387.98,-54.94 -387.37,-55.73 -386.89,-56.61 -386.68,-57.59 -387.20,-59.14"/>
    </edge>
    <edge id=":44_5" function="internal">
        <lane id=":44_5_0" index="0" disallow="pedestrian tram rail_urban rail rail_electric rail_fast ship" speed="12.04" length="34.47" width="3.50" shape="-400.33,-46.44 -396.88,-48.08 -394.42,-48.98 -391.87,-49.62 -389.25,-49.95 -387.86,-49.97 -386.50,-49.88 -385.14,-49.67 -383.80,-49.34 -382.49,-48.88 -381.24,-48.30 -380.05,-47.62 -378.90,-46.83 -376.91,-45.08 -375.16,-43.09 -373.65,-40.94 -371.80,-37.63"/>
    </edge>
    <edge id=":45_0" function="internal">
        <lane id=":45_0_0" index="0" disallow="pedestrian tram rail_urban rail rail_electric rail_fast ship" speed="9.34" length="18.86" width="3.48" shape="-370.86,-72.97 -374.38,-70.99 -376.97,-69.38 -379.47,-67.65 -381.05,-66.38 -381.80,-65.70 -382.52,-64.98 -383.17,-64.20 -383.73,-63.36 -384.13,-62.43 -384.24,-61.43 -384.12,-60.81"/>
    </edge>
    <edge id=":45_1" function="internal">
        <lane id=":45_1_0" index="0" disallow="pedestrian tram rail_urban rail rail_electric rail_fast ship" speed="12.12" length="33.97" width="3.50" shape="-370.86,-72.97 -373.12,-71.85 -375.48,-70.89 -377.96,-70.15 -380.55,-69.69 -383.17,-69.58 -384.55,-69.69 -385.88,-69.91 -387.20,-70.25 -388.48,-70.70 -389.71,-71.26 -390.88,-71.92 -392.01,-72.69 -394.00,-74.37 -395.77,-76.29 -397.32,-78.36 -399.25,-81.57"/>
    </edge>
    <edge id=":45_2" function="internal">
        <lane id=":45_2_0" index="0" disallow="pedestrian tram rail_urban rail rail_electric rail_fast ship" speed="11.11" length="28.39" width="3.50" shape="-396.18,-83.24 -394.49,-80.43 -393.18,-78.68 -391.70,-77.08 -390.03,-75.66 -389.13,-75.05 -388.17,-74.52 -387.18,-74.06 -386.15,-73.70 -385.09,-73.42 -384.01,-73.25 -382.93,-73.16 -380.74,-73.24 -378.59,-73.63 -376.50,-74.26 -374.47,-75.08 -372.53,-76.05"/>
    </edge>
    <edge id=":45_3" function="internal">
        <lane id=":45_3_0" index="0" disallow="pedestrian tram rail_urban rail rail_electric rail_fast ship" speed="36.11" length="25.47" width="3.48" shape="-396.18,-83.24 -390.07,-71.85 -384.12,-60.81"/>
    </edge>
    <edge id=":45_4" function="internal">
        <lane id=":45_4_0" index="0" disallow="pedestrian tram rail_urban rail rail_electric rail_fast ship" speed="36.11" length="25.26" width="3.50" shape="-387.29,-59.32 -393.15,-70.19 -399.25,-81.57"/>
    </edge>
    <edge id=":45_5" function="internal">
        <lane id=":45_5_0" index="0" disallow="pedestrian tram rail_urban rail rail_electric rail_fast ship" speed="10.42" length="24.03" width="3.50" shape="-387.29,-59.32 -387.59,-60.32 -387.67,-62.02 -387.31,-63.55 -386.72,-64.87 -385.99,-66.01 -385.18,-67.03 -384.30,-67.98 -382.47,-69.63 -379.60,-71.79 -376.60,-73.72 -372.53,-76.05"/>
    </edge>
    <edge id=":46_0" function="internal">
        <lane id=":46_0_0" index="0" disallow="pedestrian tram rail_urban rail rail_electric rail_fast ship" speed="9.30" length="20.34" width="3.50" shape="-355.31,6.76 -355.76,5.89 -356.30,5.14 -356.95,4.51 -357.72,4.02 -358.58,3.67 -359.53,3.45 -360.54,3.36 -361.59,3.37 -362.65,3.46 -364.87,3.90 -367.06,4.55 -370.34,5.83 -373.52,7.34"/>
    </edge>
    <edge id=":46_1" function="internal">
        <lane id=":46_1_0" index="0" disallow="pedestrian tram rail_urban rail rail_electric rail_fast ship" speed="36.11" length="28.36" width="3.50" shape="-355.31,6.76 -361.16,-6.18 -366.99,-19.08"/>
    </edge>
    <edge id=":46_2" function="internal">
        <lane id=":46_2_0" index="0" disallow="pedestrian tram rail_urban rail rail_electric rail_fast ship" speed="36.11" length="28.37" width="3.50" shape="-363.81,-20.55 -357.97,-7.62 -352.13,5.30"/>
    </edge>
    <edge id=":46_3" function="internal">
        <lane id=":46_3_0" index="0" disallow="pedestrian tram rail_urban rail rail_electric rail_fast ship" speed="12.22" length="33.47" width="3.50" shape="-363.81,-20.56 -362.44,-17.05 -361.75,-14.60 -361.32,-12.08 -361.19,-9.48 -361.43,-6.90 -361.71,-5.57 -362.09,-4.29 -362.58,-3.06 -363.19,-1.84 -364.61,0.33 -366.32,2.29 -368.24,3.99 -370.30,5.48 -373.52,7.34"/>
    </edge>
    <edge id=":46_4" function="internal">
        <lane id=":46_4_0" index="0" disallow="pedestrian tram rail_urban rail rail_electric rail_fast ship" speed="11.22" length="28.03" width="3.50" shape="-375.12,4.23 -372.32,2.62 -370.57,1.35 -368.96,-0.08 -367.54,-1.70 -366.36,-3.51 -365.88,-4.48 -365.49,-5.48 -365.17,-6.51 -364.95,-7.57 -364.75,-9.71 -364.86,-11.87 -365.22,-13.99 -365.81,-16.07 -366.99,-19.08"/>
    </edge>
    <edge id=":46_5" function="internal">
        <lane id=":46_5_0" index="0" disallow="pedestrian tram rail_urban rail rail_electric rail_fast ship" speed="10.48" length="26.04" width="3.50" shape="-375.12,4.23 -371.40,2.48 -367.56,1.03 -364.91,0.30 -362.21,-0.13 -360.84,-0.19 -359.47,-0.12 -358.12,0.11 -356.81,0.53 -355.59,1.15 -354.49,1.96 -353.55,2.95 -352.77,4.08 -352.13,5.30"/>
    </edge>
    <edge id=":47_0" function="internal">
        <lane id=":47_0_0" index="0" disallow="pedestrian tram rail_urban rail rail_electric rail_fast ship" speed="5.31" length="12.09" width="3.36" shape="-420.27,-119.59 -415.52,-116.24 -413.68,-114.63 -412.08,-112.74 -411.36,-111.59"/>
    </edge>

    <edge id="47772" from="20" to="45" priority="3" type="highway.residential" spreadType="center" length="10.53" shape="-361.61,-77.99 -384.56,-70.50">
        <lane id="47772_0" index="0" disallow="pedestrian tram rail_urban rail rail_electric rail_fast ship" speed="36.11" length="10.53" width="3.50" customShape="1" shape="-361.61,-77.99 -366.23,-75.48 -370.87,-72.97"/>
    </edge>
    <edge id="47773" from="45" to="9" priority="3" type="highway.residential" spreadType="center" length="10.53" shape="-385.64,-73.82 -363.27,-81.06">
        <lane id="47773_0" index="0" disallow="pedestrian tram rail_urban rail rail_electric rail_fast ship" speed="36.11" length="10.53" width="3.50" customShape="1" shape="-372.53,-76.05 -367.90,-78.56 -363.27,-81.06"/>
    </edge>
    <edge id="47782" from="35" to="46" priority="3" type="highway.residential" spreadType="center" length="70.02" shape="-437.51,35.99 -365.30,-4.20">
        <lane id="47782_0" index="0" disallow="pedestrian tram rail_urban rail rail_electric rail_fast ship" speed="36.11" length="70.02" width="3.50" customShape="1" shape="-437.51,35.99 -375.11,4.23"/>
    </edge>
    <edge id="47783" from="46" to="33" priority="3" type="highway.residential" spreadType="center" length="70.01" shape="-363.59,-1.15 -435.91,39.10">
        <lane id="47783_0" index="0" disallow="pedestrian tram rail_urban rail rail_electric rail_fast ship" speed="36.11" length="70.01" width="3.50" customShape="1" shape="-373.52,7.34 -435.91,39.10"/>
    </edge>
    <edge id="47942" from="39" to="38" priority="3" type="highway.residential" spreadType="center" length="68.50">
        <lane id="47942_0" index="0" disallow="pedestrian tram rail_urban rail rail_electric rail_fast ship" speed="36.11" length="68.50" width="3.50" customShape="1" shape="-318.85,89.30 -323.08,79.72 -346.52,26.64"/>
    </edge>
    <edge id="47943" from="36" to="37" priority="3" type="highway.residential" spreadType="center" length="68.50">
        <lane id="47943_0" index="0" disallow="pedestrian tram rail_urban rail rail_electric rail_fast ship" speed="36.11" length="68.50" width="3.50" customShape="1" shape="-343.32,25.22 -319.87,78.31 -315.65,87.88"/>
    </edge>
    <edge id="47996" from="44" to="15" priority="3" type="highway.residential" spreadType="center" length="22.14" shape="-385.36,-45.43 -418.13,-32.82">
        <lane id="47996_0" index="0" disallow="pedestrian tram rail_urban rail rail_electric rail_fast ship" speed="36.11" length="22.14" width="3.50" customShape="1" shape="-398.66,-43.36 -408.40,-38.08 -418.13,-32.82"/>
    </edge>
    <edge id="47997" from="25" to="44" priority="3" type="highway.residential" spreadType="center" length="22.17" shape="-419.80,-35.89 -386.61,-48.69">
        <lane id="47997_0" index="0" disallow="pedestrian tram rail_urban rail rail_electric rail_fast ship" speed="36.11" length="22.17" width="3.50" customShape="1" shape="-419.80,-35.89 -410.07,-41.16 -400.31,-46.45"/>
    </edge>
    <edge id="48061" from="38" to="46" priority="3" type="highway.residential" spreadType="center" length="18.79" shape="-347.13,25.27 -365.96,-1.73">
        <lane id="48061_0" index="0" disallow="pedestrian tram rail_urban rail rail_electric rail_fast ship" speed="36.11" length="18.79" width="3.50" customShape="1" shape="-347.73,23.89 -351.18,16.10 -355.23,6.94 -355.33,6.71"/>
    </edge>
    <edge id="48063" from="44" to="46" priority="3" type="highway.residential" spreadType="center" length="18.91" shape="-384.49,-47.79 -362.88,-3.37">
        <lane id="48063_0" index="0" disallow="pedestrian tram rail_urban rail rail_electric rail_fast ship" speed="36.11" length="18.91" width="3.50" customShape="1" shape="-371.80,-37.63 -370.67,-35.29 -363.79,-20.50"/>
    </edge>
    <edge id="48064" from="46" to="44" priority="3" type="highway.residential" spreadType="center" length="18.79" shape="-366.02,-1.84 -387.64,-46.26">
        <lane id="48064_0" index="0" disallow="pedestrian tram rail_urban rail rail_electric rail_fast ship" speed="36.11" length="18.79" width="3.50" customShape="1" shape="-366.99,-19.08 -373.82,-33.78 -374.95,-36.10"/>
    </edge>
    <edge id="48066" from="45" to="44" priority="3" type="highway.residential" spreadType="center" length="0.20" shape="-383.24,-72.24 -384.33,-46.95">
        <lane id="48066_0" index="0" disallow="pedestrian tram rail_urban rail rail_electric rail_fast ship" speed="36.11" length="0.20" width="3.48" customShape="1" shape="-384.12,-60.81 -384.04,-60.63"/>
    </edge>
    <edge id="48067" from="44" to="45" priority="3" type="highway.residential" spreadType="center" length="0.20" shape="-387.80,-47.10 -386.70,-72.39">
        <lane id="48067_0" index="0" disallow="pedestrian tram rail_urban rail rail_electric rail_fast ship" speed="36.11" length="0.20" width="3.47" customShape="1" shape="-387.20,-59.14 -387.29,-59.32"/>
    </edge>
    <edge id="48069" from="43" to="45" priority="3" type="highway.residential" spreadType="center" length="8.54" shape="-401.39,-106.34 -383.40,-72.96">
        <lane id="48069_0" index="0" disallow="pedestrian tram rail_urban rail rail_electric rail_fast ship" speed="36.11" length="8.54" width="3.50" customShape="1" shape="-400.18,-90.76 -398.19,-87.02 -396.16,-83.22"/>
    </edge>
    <edge id="48070" from="45" to="43" priority="3" type="highway.residential" spreadType="center" length="8.58" shape="-386.48,-71.30 -404.47,-104.68">
        <lane id="48070_0" index="0" disallow="pedestrian tram rail_urban rail rail_electric rail_fast ship" speed="36.11" length="8.58" width="3.50" customShape="1" shape="-399.25,-81.57 -401.27,-85.37 -403.28,-89.14"/>
    </edge>
    <edge id="48072" from="47" to="43" priority="3" type="highway.residential" spreadType="center" length="7.48" shape="-417.39,-121.96 -401.76,-106.71">
        <lane id="48072_0" index="0" disallow="pedestrian tram rail_urban rail rail_electric rail_fast ship" speed="36.11" length="7.48" width="3.36" customShape="1" shape="-417.31,-121.37 -413.42,-114.98"/>
    </edge>
    <edge id="48073" from="43" to="47" priority="3" type="highway.residential" spreadType="center" length="14.90" shape="-404.15,-104.26 -419.78,-119.53">
        <lane id="48073_0" index="0" disallow="pedestrian tram rail_urban rail rail_electric rail_fast ship" speed="36.11" length="14.90" width="3.49" customShape="1" shape="-416.07,-112.86 -414.37,-109.81 -419.92,-119.78"/>
    </edge>
    <edge id="48159" from="28" to="43" priority="3" type="highway.residential" spreadType="center" length="11.78" shape="-383.27,-120.44 -401.87,-104.12">
        <lane id="48159_0" index="0" disallow="pedestrian tram rail_urban rail rail_electric rail_fast ship" speed="36.11" length="11.78" width="3.50" customShape="1" shape="-383.27,-120.44 -388.39,-117.53 -393.51,-114.61"/>
    </edge>
    <edge id="48160" from="43" to="23" priority="3" type="highway.residential" spreadType="center" length="11.77" shape="-404.17,-106.75 -385.01,-123.48">
        <lane id="48160_0" index="0" disallow="pedestrian tram rail_urban rail rail_electric rail_fast ship" speed="36.11" length="11.77" width="3.50" customShape="1" shape="-395.24,-117.65 -390.12,-120.57 -385.01,-123.48"/>
    </edge>
    <edge id="48343" from="46" to="36" priority="3" type="highway.residential" spreadType="center" length="18.79" shape="-363.10,-3.73 -343.93,23.85">
        <lane id="48343_0" index="0" disallow="pedestrian tram rail_urban rail rail_electric rail_fast ship" speed="36.11" length="18.79" width="3.50" customShape="1" shape="-352.13,5.30 -352.08,5.41 -352.03,5.52 -347.98,14.69 -344.53,22.48"/>
    </edge>

    <junction id="15" type="dead_end" x="-418.13" y="-32.82" incLanes="47996_0" intLanes="" shape="-417.30,-31.28 -418.96,-34.35" rightOfWay="edgePriority"/>
    <junction id="20" type="dead_end" x="-361.61" y="-77.99" incLanes="" intLanes="" shape="-362.44,-79.53 -360.77,-76.45" rightOfWay="edgePriority"/>
    <junction id="23" type="dead_end" x="-385.01" y="-123.48" incLanes="48160_0" intLanes="" shape="-385.87,-125.00 -384.14,-121.96" rightOfWay="edgePriority"/>
    <junction id="25" type="dead_end" x="-419.80" y="-35.89" incLanes="" intLanes="" shape="-418.96,-34.35 -420.63,-37.43" rightOfWay="edgePriority"/>
    <junction id="28" type="dead_end" x="-383.27" y="-120.44" incLanes="" intLanes="" shape="-384.14,-121.96 -382.41,-118.92" rightOfWay="edgePriority"/>
    <junction id="33" type="dead_end" x="-435.91" y="39.10" incLanes="47783_0" intLanes="" shape="-435.11,40.66 -436.70,37.54" rightOfWay="edgePriority"/>
    <junction id="35" type="dead_end" x="-437.51" y="35.99" incLanes="" intLanes="" shape="-436.71,37.55 -438.30,34.43" rightOfWay="edgePriority"/>
    <junction id="36" type="priority" x="-343.93" y="23.85" incLanes="48343_0" intLanes=":36_0_0" shape="-344.92,25.93 -341.72,24.52 -342.93,21.77 -346.13,23.19" rightOfWay="edgePriority">
        <request index="0" response="0" foes="0" cont="0"/>
    </junction>
    <junction id="37" type="dead_end" x="-315.65" y="87.88" incLanes="47943_0" intLanes="" shape="-314.05,87.18 -317.25,88.59" rightOfWay="edgePriority"/>
    <junction id="38" type="priority" x="-347.13" y="25.27" incLanes="47942_0" intLanes=":38_0_0" shape="-348.12,27.35 -344.92,25.93 -346.13,23.19 -349.33,24.60" rightOfWay="edgePriority">
        <request index="0" response="0" foes="0" cont="0"/>
    </junction>
    <junction id="39" type="dead_end" x="-318.85" y="89.30" incLanes="" intLanes="" shape="-317.25,88.59 -320.45,90.01" rightOfWay="edgePriority"/>
    <junction id="43" type="priority" x="-402.93" y="-105.51" incLanes="48070_0 48159_0 48072_0" intLanes=":43_0_0 :43_1_0 :43_2_0 :43_3_0 :43_4_0 :43_5_0" shape="-404.81,-88.29 -398.63,-91.58 -400.52,-96.03 -401.25,-100.14 -400.83,-103.90 -399.26,-107.31 -396.53,-110.37 -392.64,-113.09 -396.11,-119.17 -412.10,-116.03 -417.55,-111.68">
        <request index="0" response="000000" foes="001000" cont="0"/>
        <request index="1" response="110000" foes="111000" cont="0"/>
        <request index="2" response="100000" foes="100000" cont="0"/>
        <request index="3" response="100011" foes="100011" cont="0"/>
        <request index="4" response="000000" foes="000010" cont="0"/>
        <request index="5" response="000000" foes="001110" cont="0"/>
    </junction>
    <junction id="44" type="priority" x="-386.07" y="-47.03" incLanes="48064_0 48066_0 47997_0" intLanes=":44_0_0 :44_1_0 :44_2_0 :44_3_0 :44_4_0 :44_5_0" shape="-376.52,-35.33 -370.23,-38.39 -382.82,-62.03 -388.95,-58.76 -401.16,-47.98 -397.83,-41.82 -393.24,-43.81 -389.07,-44.56 -385.31,-44.09 -381.97,-42.40 -379.04,-39.48">
        <request index="0" response="000000" foes="001000" cont="0"/>
        <request index="1" response="000000" foes="111000" cont="0"/>
        <request index="2" response="000000" foes="100000" cont="0"/>
        <request index="3" response="000011" foes="100011" cont="0"/>
        <request index="4" response="000010" foes="000010" cont="0"/>
        <request index="5" response="001110" foes="001110" cont="0"/>
    </junction>
    <junction id="45" type="priority" x="-384.98" y="-72.20" incLanes="47772_0 48069_0 48067_0" intLanes=":45_0_0 :45_1_0 :45_2_0 :45_3_0 :45_4_0 :45_5_0" shape="-370.03,-71.44 -373.36,-77.59 -377.80,-75.69 -381.87,-74.98 -385.59,-75.46 -388.96,-77.13 -391.97,-79.99 -394.62,-84.04 -400.79,-80.75 -388.44,-57.73 -382.29,-61.01 -381.57,-63.51 -379.94,-65.12 -377.48,-66.98 -374.18,-69.09">
        <request index="0" response="001000" foes="001000" cont="0"/>
        <request index="1" response="111000" foes="111000" cont="0"/>
        <request index="2" response="000000" foes="100000" cont="0"/>
        <request index="3" response="000000" foes="100011" cont="0"/>
        <request index="4" response="000000" foes="000010" cont="0"/>
        <request index="5" response="001100" foes="001110" cont="0"/>
    </junction>
    <junction id="46" type="priority" x="-364.48" y="-2.66" incLanes="48061_0 48063_0 47782_0" intLanes=":46_0_0 :46_1_0 :46_2_0 :46_3_0 :46_4_0 :46_5_0" shape="-356.93,7.42 -350.53,4.59 -362.23,-21.29 -368.57,-18.34 -366.97,-13.88 -366.50,-9.80 -367.16,-6.10 -368.94,-2.80 -371.86,0.13 -375.90,2.67 -372.73,8.90 -368.55,6.96 -364.99,5.69 -362.05,5.11 -359.72,5.20 -358.02,5.97">
        <request index="0" response="000000" foes="001000" cont="0"/>
        <request index="1" response="000000" foes="111000" cont="0"/>
        <request index="2" response="000000" foes="100000" cont="0"/>
        <request index="3" response="000011" foes="100011" cont="0"/>
        <request index="4" response="000010" foes="000010" cont="0"/>
        <request index="5" response="001110" foes="001110" cont="0"/>
    </junction>
    <junction id="47" type="priority" x="-418.46" y="-120.67" incLanes="48073_0" intLanes=":47_0_0" shape="-418.74,-120.50 -415.87,-122.25 -421.80,-118.63">
        <request index="0" response="0" foes="0" cont="0"/>
    </junction>
    <junction id="9" type="dead_end" x="-363.27" y="-81.06" incLanes="47773_0" intLanes="" shape="-364.11,-82.60 -362.44,-79.53" rightOfWay="edgePriority"/>

    <connection from="47772" to="48066" fromLane="0" toLane="0" contPos="-4.00" shape="-370.87,-72.97 -374.38,-70.99 -376.97,-69.38 -379.47,-67.65 -381.05,-66.38 -381.80,-65.70 -382.52,-64.98 -383.17,-64.20 -383.73,-63.36 -384.13,-62.43 -384.24,-61.43 -383.96,-60.47" via=":45_0_0" dir="r" state="m"/>
    <connection from="47772" to="48070" fromLane="0" toLane="0" contPos="-4.00" shape="-370.87,-72.97 -373.12,-71.85 -375.48,-70.89 -377.96,-70.15 -380.55,-69.69 -383.17,-69.58 -384.55,-69.69 -385.88,-69.91 -387.20,-70.25 -388.48,-70.70 -389.71,-71.26 -390.88,-71.92 -392.01,-72.69 -394.00,-74.37 -395.77,-76.29 -397.32,-78.36 -399.25,-81.57" via=":45_1_0" dir="l" state="m"/>
    <connection from="47782" to="48064" fromLane="0" toLane="0" contPos="-4.00" shape="-375.12,4.23 -372.32,2.62 -370.57,1.35 -368.96,-0.08 -367.54,-1.70 -366.36,-3.51 -365.88,-4.48 -365.49,-5.48 -365.17,-6.51 -364.95,-7.57 -364.75,-9.71 -364.86,-11.87 -365.22,-13.99 -365.81,-16.07 -366.99,-19.08" via=":46_4_0" dir="r" state="m"/>
    <connection from="47782" to="48343" fromLane="0" toLane="0" contPos="-4.00" shape="-375.12,4.23 -371.40,2.48 -367.56,1.03 -364.91,0.30 -362.21,-0.13 -360.84,-0.19 -359.47,-0.12 -358.12,0.11 -356.81,0.53 -355.59,1.15 -354.49,1.96 -353.55,2.95 -352.77,4.08 -352.13,5.30" via=":46_5_0" dir="l" state="m"/>