<routes>
	<vehicle depart="0.1" departLane="0" departPos="14.6298630958144" departSpeed="11.241981" id="36" type="passenger">
		<route edges="48064 48067 48070"/>
	</vehicle>
	<vehicle depart="0.1" departLane="0" departPos="9.615600254474632" departSpeed="1.5519493" id="313" type="passenger">
		<route edges=":44_4 48067 47773"/>
	</vehicle>
	<vehicle depart="0.1" departLane="0" departPos="7.308815920739026" departSpeed="0.62686959" id="317" type="passenger">
		<route edges="47997 48067"/>
	</vehicle>
	<vehicle depart="0.1" departLane="0" departPos="10.485547625700551" departSpeed="2.9613955" id="328" type="passenger">
		<route edges="47772 48066"/>
	</vehicle>
</routes>
