<routes>
	<vehicle depart="0.1" departLane="0" departPos="5.219774936132173" departSpeed="5.3513376" id="311" type="bicycle">
		<route edges="210 117"/>
	</vehicle>
	<vehicle depart="0.1" departLane="0" departPos="6.2" departSpeed="6.0810348" id="323" type="bus">
		<route edges="332"/>
	</vehicle>
	<vehicle depart="0.1" departLane="0" departPos="60.61460843601646" departSpeed="0.0" id="31" type="passenger">
		<route edges="331 214"/>
	</vehicle>
	<vehicle depart="0.1" departLane="0" departPos="53.56171303139558" departSpeed="0.0" id="35" type="passenger">
		<route edges="331 214"/>
	</vehicle>
	<vehicle depart="0.1" departLane="0" departPos="19.76418350103598" departSpeed="0.0" id="36" type="passenger">
		<route edges="132 211"/>
	</vehicle>
	<vehicle depart="0.1" departLane="0" departPos="12.907983044432886" departSpeed="0.0" id="39" type="passenger">
		<route edges="132 211"/>
	</vehicle>
	<vehicle depart="0.1" departLane="0" departPos="46.51238840296094" departSpeed="0.0" id="310" type="passenger">
		<route edges="331 214"/>
	</vehicle>
	<vehicle depart="0.1" departLane="0" departPos="39.71050750467986" departSpeed="0.0" id="313" type="passenger">
		<route edges="331 214"/>
	</vehicle>
	<vehicle depart="0.1" departLane="0" departPos="5.652369949930245" departSpeed="0.0" id="314" type="passenger">
		<route edges="132 211"/>
	</vehicle>
	<vehicle depart="0.1" departLane="0" departPos="32.508769471161074" departSpeed="3.0214406e-05" id="315" type="passenger">
		<route edges="331 214"/>
	</vehicle>
	<vehicle depart="0.1" departLane="0" departPos="53.01202853963709" departSpeed="15.71218" id="317" type="passenger">
		<route edges="332"/>
	</vehicle>
	<vehicle depart="0.1" departLane="0" departPos="5.206054117139475" departSpeed="0.0" id="319" type="passenger">
		<route edges="343 217"/>
	</vehicle>
	<vehicle depart="0.1" departLane="0" departPos="25.008073977498547" departSpeed="0.00022973176" id="320" type="passenger">
		<route edges="331 214"/>
	</vehicle>
	<vehicle depart="0.1" departLane="0" departPos="17.906227143476634" departSpeed="0.001063022" id="322" type="passenger">
		<route edges="331 214"/>
	</vehicle>
	<vehicle depart="0.1" departLane="0" departPos="97.45055952238137" departSpeed="0.0" id="325" type="passenger">
		<route edges="211 332"/>
	</vehicle>
	<vehicle depart="0.1" departLane="0" departPos="28.98900415611551" departSpeed="5.762329" id="327" type="passenger">
		<route edges="213 210 117"/>
	</vehicle>
	<vehicle depart="0.1" departLane="0" departPos="83.77192302219785" departSpeed="3.9213785" id="328" type="passenger">
		<route edges="211 332"/>
	</vehicle>
	<vehicle depart="0.1" departLane="0" departPos="15.60498470665054" departSpeed="6.0836347" id="329" type="passenger">
		<route edges="213 210 117"/>
	</vehicle>
	<vehicle depart="0.1" departLane="0" departPos="2.5" departSpeed="6.1601341" id="330" type="passenger">
		<route edges="213 210 117"/>
	</vehicle>
	<vehicle depart="0.1" departLane="0" departPos="6.167875805853104" departSpeed="5.920157" id="333" type="passenger">
		<route edges=":30_3 213 210 117"/>
	</vehicle>
	<vehicle depart="0.1" departLane="0" departPos="15.791605423897478" departSpeed="5.0648892" id="334" type="passenger">
		<route edges="216 213 210 117"/>
	</vehicle>
	<vehicle depart="0.1" departLane="0" departPos="2.5" departSpeed="28.442312" id="335" type="passenger">
		<route edges="211 332"/>
	</vehicle>
	<vehicle depart="0.1" departLane="0" departPos="11.027032053342163" departSpeed="0.0041445659" id="324" type="motorcycle">
		<route edges="331 214"/>
	</vehicle>
	<vehicle depart="0.1" departLane="0" departPos="91.29719879290995" departSpeed="0.65448512" id="326" type="motorcycle">
		<route edges="211 332"/>
	</vehicle>
	<vehicle depart="0.1" departLane="0" departPos="70.07386930145026" departSpeed="0.0" id="30" type="truck">
		<route edges="331 214"/>
	</vehicle>
	<vehicle depart="0.1" departLane="0" departPos="91.93268164781077" departSpeed="16.248215" id="37" type="truck">
		<route edges="210 117"/>
	</vehicle>
	<vehicle depart="0.1" departLane="0" departPos="69.35709589960885" departSpeed="15.525877" id="316" type="truck">
		<route edges="210 133"/>
	</vehicle>
</routes>
