<!-- generated on Wed Feb 10 12:25:35 2021 by Eclipse SUMO netconvert Version 1.8.0
<configuration xmlns:xsi="http://www.w3.org/2001/XMLSchema-instance" xsi:noNamespaceSchemaLocation="http://sumo.dlr.de/xsd/netconvertConfiguration.xsd">

    <input>
        <node-files value="./converted_scenarios/SUMO/DEU_Flensburg-81_1_I-1-1/DEU_Flensburg-81_1_I-1-1.nod.xml"/>
        <edge-files value="./converted_scenarios/SUMO/DEU_Flensburg-81_1_I-1-1/DEU_Flensburg-81_1_I-1-1.edg.xml"/>
        <connection-files value="./converted_scenarios/SUMO/DEU_Flensburg-81_1_I-1-1/DEU_Flensburg-81_1_I-1-1.con.xml"/>
        <tllogic-files value="./converted_scenarios/SUMO/DEU_Flensburg-81_1_I-1-1/DEU_Flensburg-81_1_I-1-1.tll.xml"/>
        <type-files value="/home/zen/commonroad-interactive-benchmarks/install/commonroad-map-tool/crmapconverter/sumo_map/templates/DEU.typ.xml"/>
    </input>

    <output>
        <output-file value="./converted_scenarios/SUMO/DEU_Flensburg-81_1_I-1-1/DEU_Flensburg-81_1_I-1-1.net.xml"/>
    </output>

    <processing>
        <geometry.remove.keep-edges.explicit value="true"/>
        <geometry.avoid-overlap value="true"/>
        <offset.disable-normalization value="true"/>
    </processing>

    <junctions>
        <no-turnarounds value="true"/>
        <junctions.internal-link-detail value="20"/>
    </junctions>

    <report>
        <aggregate-warnings value="5"/>
    </report>

    <random_number>
        <seed value="1234"/>
    </random_number>

</configuration>
--><net xmlns:xsi="http://www.w3.org/2001/XMLSchema-instance" version="1.6" junctionCornerDetail="5" junctionLinkDetail="20" limitTurnSpeed="5.50" xsi:noNamespaceSchemaLocation="http://sumo.dlr.de/xsd/net_file.xsd">

    <location netOffset="0.00,0.00" convBoundary="-161.17,-281.02,-78.11,-46.84" origBoundary="-168.25,-281.02,-78.11,-46.84" projParameter="!"/>

    <type id="highway.bridleway" priority="1" speed="2.78" allow="pedestrian" oneway="1" width="2.00"/>
    <type id="highway.bus_guideway" priority="1" speed="27.78" allow="bus" oneway="1"/>
    <type id="highway.cycleway" priority="1" speed="8.33" allow="bicycle" oneway="0" width="1.00"/>
    <type id="highway.footway" priority="1" speed="2.78" allow="pedestrian" oneway="1" width="2.00"/>
    <type id="highway.ford" priority="1" speed="2.78" allow="army" oneway="0"/>
    <type id="highway.living_street" priority="2" speed="2.78" disallow="tram rail_urban rail rail_electric rail_fast ship" oneway="0"/>
    <type id="highway.motorway" priority="14" speed="39.44" allow="private emergency authority army vip passenger hov taxi bus coach delivery truck trailer motorcycle evehicle custom1 custom2" oneway="1"/>
    <type id="highway.motorway_link" priority="9" speed="22.22" allow="private emergency authority army vip passenger hov taxi bus coach delivery truck trailer motorcycle evehicle custom1 custom2" oneway="1"/>
    <type id="highway.path" priority="1" speed="2.78" allow="pedestrian bicycle" oneway="0" width="2.00"/>
    <type id="highway.pedestrian" priority="1" speed="2.78" allow="pedestrian" oneway="1" width="2.00"/>
    <type id="highway.primary" priority="12" speed="27.78" disallow="pedestrian tram rail_urban rail rail_electric rail_fast ship" oneway="0"/>
    <type id="highway.primary_link" priority="7" speed="22.22" disallow="pedestrian tram rail_urban rail rail_electric rail_fast ship" oneway="0"/>
    <type id="highway.raceway" priority="15" speed="83.33" allow="vip" oneway="0"/>
    <type id="highway.residential" priority="3" speed="13.89" disallow="pedestrian tram rail_urban rail rail_electric rail_fast ship" oneway="0"/>
    <type id="highway.secondary" priority="11" speed="27.78" disallow="pedestrian tram rail_urban rail rail_electric rail_fast ship" oneway="0"/>
    <type id="highway.secondary_link" priority="6" speed="22.22" disallow="pedestrian tram rail_urban rail rail_electric rail_fast ship" oneway="0"/>
    <type id="highway.service" priority="1" speed="5.56" allow="pedestrian delivery bicycle" oneway="0"/>
    <type id="highway.stairs" priority="1" speed="1.39" allow="pedestrian" oneway="1" width="2.00"/>
    <type id="highway.step" priority="1" speed="1.39" allow="pedestrian" oneway="1" width="2.00"/>
    <type id="highway.steps" priority="1" speed="1.39" allow="pedestrian" oneway="1" width="2.00"/>
    <type id="highway.tertiary" priority="10" speed="22.22" disallow="pedestrian tram rail_urban rail rail_electric rail_fast ship" oneway="0"/>
    <type id="highway.tertiary_link" priority="5" speed="22.22" disallow="pedestrian tram rail_urban rail rail_electric rail_fast ship" oneway="0"/>
    <type id="highway.track" priority="1" speed="5.56" allow="pedestrian motorcycle moped bicycle" oneway="0"/>
    <type id="highway.trunk" priority="13" speed="27.78" disallow="pedestrian bicycle tram rail_urban rail rail_electric rail_fast ship" oneway="0"/>
    <type id="highway.trunk_link" priority="8" speed="22.22" disallow="pedestrian bicycle tram rail_urban rail rail_electric rail_fast ship" oneway="0"/>
    <type id="highway.unclassified" priority="4" speed="13.89" disallow="pedestrian tram rail_urban rail rail_electric rail_fast ship" oneway="0"/>
    <type id="highway.unsurfaced" priority="1" speed="8.33" disallow="tram rail_urban rail rail_electric rail_fast ship" oneway="0"/>
    <type id="railway.highspeed" priority="21" speed="69.44" allow="rail_fast" oneway="1"/>
    <type id="railway.light_rail" priority="19" speed="27.78" allow="rail_urban" oneway="1"/>
    <type id="railway.preserved" priority="16" speed="27.78" allow="rail" oneway="1"/>
    <type id="railway.rail" priority="20" speed="44.44" allow="rail" oneway="1"/>
    <type id="railway.subway" priority="18" speed="27.78" allow="rail_urban" oneway="1"/>
    <type id="railway.tram" priority="17" speed="13.89" allow="tram" oneway="1"/>

    <edge id=":29_0" function="internal">
        <lane id=":29_0_0" index="0" disallow="pedestrian tram rail_urban rail rail_electric rail_fast ship" speed="7.04" length="10.77" width="3.50" shape="-147.89,-200.82 -148.86,-201.06 -150.34,-201.22 -151.21,-201.16 -152.03,-200.98 -152.78,-200.62 -153.46,-200.11 -154.06,-199.47 -154.57,-198.71 -155.23,-197.35 -155.73,-195.85"/>
    </edge>
    <edge id=":29_1" function="internal">
        <lane id=":29_1_0" index="0" disallow="pedestrian tram rail_urban rail rail_electric rail_fast ship" speed="8.47" length="15.70" width="3.50" shape="-147.89,-200.82 -149.82,-201.52 -151.63,-202.52 -152.78,-203.45 -153.77,-204.60 -154.53,-205.92 -155.01,-207.36 -155.22,-208.83 -155.16,-210.90 -154.79,-212.85"/>
    </edge>
    <edge id=":29_2" function="internal">
        <lane id=":29_2_0" index="0" disallow="pedestrian tram rail_urban rail rail_electric rail_fast ship" speed="6.95" length="10.23" width="3.50" shape="-151.40,-212.00 -151.66,-210.63 -151.70,-209.24 -151.57,-208.32 -151.28,-207.43 -150.81,-206.63 -150.21,-205.92 -149.48,-205.34 -148.25,-204.66 -146.95,-204.19"/>
    </edge>
    <edge id=":29_3" function="internal">
        <lane id=":29_3_0" index="0" disallow="pedestrian tram rail_urban rail rail_electric rail_fast ship" speed="36.11" length="16.72" width="3.50" shape="-151.40,-212.00 -153.56,-203.94 -155.73,-195.85"/>
    </edge>
    <edge id=":29_4" function="internal">
        <lane id=":29_4_0" index="0" disallow="pedestrian tram rail_urban rail rail_electric rail_fast ship" speed="36.11" length="16.68" width="3.50" shape="-159.11,-196.74 -156.94,-204.85 -154.79,-212.85"/>
    </edge>
    <edge id=":29_5" function="internal">
        <lane id=":29_5_0" index="0" disallow="pedestrian tram rail_urban rail rail_electric rail_fast ship" speed="8.54" length="16.40" width="3.50" shape="-159.12,-196.74 -158.42,-198.83 -157.48,-200.75 -156.67,-201.91 -155.69,-202.94 -154.53,-203.77 -153.24,-204.35 -151.86,-204.67 -150.44,-204.76 -148.32,-204.52 -146.95,-204.19"/>
    </edge>
    <edge id=":30_0" function="internal">
        <lane id=":30_0_0" index="0" disallow="pedestrian tram rail_urban rail rail_electric rail_fast ship" speed="7.88" length="13.94" width="3.50" shape="-132.54,-247.04 -137.89,-248.46 -138.75,-248.49 -139.59,-248.33 -140.34,-248.03 -141.02,-247.52 -141.62,-246.86 -142.13,-246.07 -142.78,-244.65 -143.27,-243.09"/>
    </edge>
    <edge id=":30_1" function="internal">
        <lane id=":30_1_0" index="0" disallow="pedestrian tram rail_urban rail rail_electric rail_fast ship" speed="10.23" length="23.27" width="3.50" shape="-132.54,-247.04 -138.39,-248.93 -139.68,-249.69 -140.85,-250.71 -141.78,-251.95 -142.44,-253.34 -142.81,-254.81 -142.93,-256.27 -142.79,-258.30 -141.39,-264.10"/>
    </edge>
    <edge id=":30_2" function="internal">
        <lane id=":30_2_0" index="0" disallow="pedestrian tram rail_urban rail rail_electric rail_fast ship" speed="14.89" length="8.17" width="3.49" shape="-138.01,-263.21 -138.17,-262.63 -138.33,-262.10 -138.49,-261.63 -138.64,-261.19 -138.79,-260.80 -138.93,-260.43 -139.06,-260.08 -139.18,-259.75 -139.28,-259.43 -139.38,-259.12 -139.45,-258.80 -139.51,-258.47 -139.55,-258.12 -139.57,-257.75 -139.56,-257.35 -139.53,-256.91 -139.47,-256.43 -139.38,-255.90 -139.26,-255.31"/>
    </edge>
    <edge id=":30_3" function="internal">
        <lane id=":30_3_0" index="0" disallow="pedestrian tram rail_urban rail rail_electric rail_fast ship" speed="36.11" length="20.80" width="3.50" shape="-138.01,-263.21 -141.14,-251.25 -143.27,-243.09"/>
    </edge>
    <edge id=":30_4" function="internal">
        <lane id=":30_4_0" index="0" disallow="pedestrian tram rail_urban rail rail_electric rail_fast ship" speed="36.11" length="20.80" width="3.50" shape="-146.66,-243.98 -144.52,-252.13 -141.39,-264.10"/>
    </edge>
    <edge id=":30_5" function="internal">
        <lane id=":30_5_0" index="0" disallow="pedestrian tram rail_urban rail rail_electric rail_fast ship" speed="11.07" length="13.76" width="3.49" shape="-146.65,-244.00 -146.56,-244.23 -146.42,-244.47 -146.21,-244.72 -145.95,-244.99 -145.63,-245.28 -145.25,-245.58 -144.81,-245.90 -144.31,-246.23 -143.75,-246.58 -143.14,-246.94 -142.46,-247.32 -141.73,-247.72 -140.94,-248.13 -140.09,-248.55 -139.18,-248.99 -138.21,-249.45 -137.18,-249.92 -136.09,-250.41 -134.95,-250.91"/>
    </edge>
    <edge id=":32_0" function="internal">
        <lane id=":32_0_0" index="0" disallow="pedestrian tram rail_urban rail rail_electric rail_fast ship" speed="36.11" length="47.66" width="3.50" shape="-165.46,-76.06 -166.66,-88.31 -168.18,-123.63"/>
    </edge>
    <edge id=":32_1" function="internal">
        <lane id=":32_1_0" index="0" disallow="pedestrian tram rail_urban rail rail_electric rail_fast ship" speed="36.11" length="45.68" width="3.50" shape="-155.80,-81.69 -156.63,-83.44 -158.09,-85.66 -160.49,-88.49 -164.04,-92.44 -165.60,-94.59 -166.59,-96.47 -167.11,-97.97 -167.39,-99.54 -168.18,-123.63"/>
    </edge>
    <edge id=":32_2" function="internal">
        <lane id=":32_2_0" index="0" disallow="pedestrian tram rail_urban rail rail_electric rail_fast ship" speed="36.11" length="44.76" width="3.50" shape="-164.68,-123.78 -163.81,-99.15 -163.53,-98.07 -163.11,-97.04 -162.58,-96.05 -161.96,-95.12 -161.29,-94.23 -160.57,-93.38 -159.82,-92.55 -159.06,-91.73 -158.29,-90.92 -157.52,-90.11 -156.76,-89.29 -156.02,-88.45 -155.31,-87.59 -154.63,-86.70 -154.00,-85.78 -153.42,-84.82 -152.91,-83.83 -152.47,-82.80"/>
    </edge>
    <edge id=":32_3" function="internal">
        <lane id=":32_3_0" index="0" disallow="pedestrian tram rail_urban rail rail_electric rail_fast ship" speed="36.11" length="47.42" width="3.50" shape="-164.68,-123.78 -163.17,-88.59 -161.98,-76.45"/>
    </edge>

    <edge id="117" from="32" to="19" priority="3" type="highway.residential" spreadType="center" length="29.16" shape="-159.43,-86.38 -157.07,-47.75">
        <lane id="117_0" index="0" disallow="pedestrian tram rail_urban rail rail_electric rail_fast ship" speed="36.11" length="29.16" width="3.50" customShape="1" shape="-161.98,-76.45 -161.24,-69.88 -160.09,-61.35 -158.88,-54.96 -157.07,-47.75"/>
    </edge>
    <edge id="118" from="24" to="32" priority="3" type="highway.residential" spreadType="center" length="29.70" shape="-160.44,-46.84 -162.92,-86.16">
        <lane id="118_0" index="0" disallow="pedestrian tram rail_urban rail rail_electric rail_fast ship" speed="36.11" length="29.70" width="3.50" customShape="1" shape="-160.44,-46.84 -162.29,-54.21 -163.54,-60.80 -164.71,-69.46 -165.46,-76.07"/>
    </edge>
    <edge id="132" from="16" to="32" priority="3" type="highway.residential" spreadType="center" length="19.46" shape="-148.21,-63.83 -162.68,-85.32">
        <lane id="132_0" index="0" disallow="pedestrian tram rail_urban rail rail_electric rail_fast ship" speed="36.11" length="19.46" width="3.49" customShape="1" shape="-148.21,-63.83 -150.92,-68.83 -152.73,-72.67 -154.14,-76.72 -155.78,-81.70"/>
    </edge>
    <edge id="133" from="32" to="23" priority="3" type="highway.residential" spreadType="center" length="18.76" shape="-159.78,-87.27 -145.18,-65.57">
        <lane id="133_0" index="0" disallow="pedestrian tram rail_urban rail rail_electric rail_fast ship" speed="36.11" length="18.76" width="3.50" customShape="1" shape="-152.47,-82.80 -150.82,-77.80 -149.50,-74.00 -147.80,-70.42 -145.18,-65.57"/>
    </edge>
    <edge id="210" from="29" to="32" priority="3" type="highway.residential" spreadType="center" length="72.84" shape="-150.90,-203.63 -159.42,-86.04">
        <lane id="210_0" index="0" disallow="pedestrian tram rail_urban rail rail_electric rail_fast ship" speed="36.11" length="72.84" width="3.50" customShape="1" shape="-155.73,-195.85 -157.38,-189.56 -159.07,-181.70 -160.81,-171.79 -162.88,-157.26 -163.95,-147.70 -164.51,-139.62 -164.75,-130.54 -164.68,-123.78"/>
    </edge>
    <edge id="211" from="32" to="29" priority="3" type="highway.residential" spreadType="center" length="73.96" shape="-162.91,-86.30 -154.39,-203.88">
        <lane id="211_0" index="0" disallow="pedestrian tram rail_urban rail rail_electric rail_fast ship" speed="36.11" length="73.96" width="3.50" customShape="1" shape="-168.18,-123.63 -168.25,-130.57 -168.00,-139.79 -167.44,-148.02 -166.35,-157.70 -164.27,-172.34 -162.51,-182.37 -160.78,-190.39 -159.10,-196.80"/>
    </edge>
    <edge id="213" from="30" to="29" priority="3" type="highway.residential" spreadType="center" length="32.17" shape="-139.84,-250.64 -150.95,-203.35">
        <lane id="213_0" index="0" disallow="pedestrian tram rail_urban rail rail_electric rail_fast ship" speed="36.11" length="32.17" width="3.50" customShape="1" shape="-143.27,-243.09 -147.33,-227.56 -151.41,-211.97"/>
    </edge>
    <edge id="214" from="29" to="30" priority="3" type="highway.residential" spreadType="center" length="32.20" shape="-154.35,-204.15 -143.24,-251.43">
        <lane id="214_0" index="0" disallow="pedestrian tram rail_urban rail rail_electric rail_fast ship" speed="36.11" length="32.20" width="3.50" customShape="1" shape="-154.79,-212.85 -150.72,-228.45 -146.65,-244.00"/>
    </edge>
    <edge id="216" from="25" to="30" priority="3" type="highway.residential" spreadType="center" length="17.46" shape="-133.59,-280.10 -139.87,-250.51">
        <lane id="216_0" index="0" disallow="pedestrian tram rail_urban rail rail_electric rail_fast ship" speed="36.11" length="17.46" width="3.50" customShape="1" shape="-133.59,-280.10 -136.30,-269.75 -138.01,-263.21"/>
    </edge>
    <edge id="217" from="30" to="10" priority="3" type="highway.residential" spreadType="center" length="17.49" shape="-143.29,-251.24 -136.97,-281.02">
        <lane id="217_0" index="0" disallow="pedestrian tram rail_urban rail rail_electric rail_fast ship" speed="36.11" length="17.49" width="3.50" customShape="1" shape="-141.39,-264.10 -139.68,-270.64 -136.97,-281.02"/>
    </edge>
    <edge id="331" from="1" to="29" priority="3" type="highway.residential" spreadType="center" length="70.00" shape="-79.10,-188.94 -152.99,-202.04">
        <lane id="331_0" index="0" disallow="pedestrian tram rail_urban rail rail_electric rail_fast ship" speed="36.11" length="70.00" width="3.50" customShape="1" shape="-79.10,-188.94 -84.04,-189.17 -94.10,-190.08 -104.12,-191.37 -115.07,-193.18 -129.39,-195.99 -136.79,-197.72 -147.92,-200.83"/>
    </edge>
    <edge id="332" from="29" to="14" priority="3" type="highway.residential" spreadType="center" length="70.00" shape="-152.39,-205.48 -78.11,-192.44">
        <lane id="332_0" index="0" disallow="pedestrian tram rail_urban rail rail_electric rail_fast ship" speed="36.11" length="70.00" width="3.50" customShape="1" shape="-146.95,-204.19 -135.92,-201.11 -128.66,-199.42 -114.44,-196.62 -103.61,-194.83 -93.72,-193.56 -83.80,-192.66 -78.71,-192.42 -78.11,-192.44"/>
    </edge>
    <edge id="343" from="11" to="30" priority="3" type="highway.residential" spreadType="center" length="1.48">
        <lane id="343_0" index="0" disallow="pedestrian tram rail_urban rail rail_electric rail_fast ship" speed="36.11" length="1.48" width="3.50" customShape="1" shape="-131.12,-246.62 -132.54,-247.04"/>
    </edge>
    <edge id="860" from="30" to="31" priority="3" type="highway.residential" spreadType="center" length="0.21">
        <lane id="860_0" index="0" disallow="pedestrian tram rail_urban rail rail_electric rail_fast ship" speed="36.11" length="0.21" width="3.49" customShape="1" shape="-134.95,-250.91 -134.76,-250.99"/>
    </edge>
    <edge id="863" from="30" to="31" priority="3" type="highway.residential" spreadType="center" length="5.50">
        <lane id="863_0" index="0" disallow="pedestrian tram rail_urban rail rail_electric rail_fast ship" speed="36.11" length="5.50" width="3.49" customShape="1" shape="-139.26,-255.31 -139.15,-254.78 -138.78,-253.93 -138.24,-253.17 -137.57,-252.53 -136.77,-252.05 -135.62,-251.59"/>
    </edge>

    <junction id="1" type="dead_end" x="-79.10" y="-188.94" incLanes="" intLanes="" shape="-79.02,-190.69 -79.18,-187.19" rightOfWay="edgePriority"/>
    <junction id="10" type="dead_end" x="-136.97" y="-281.02" incLanes="217_0" intLanes="" shape="-138.66,-281.46 -135.28,-280.57" rightOfWay="edgePriority"/>
    <junction id="11" type="dead_end" x="-131.12" y="-246.62" incLanes="" intLanes="" shape="-130.63,-248.30 -131.61,-244.94" rightOfWay="edgePriority"/>
    <junction id="14" type="dead_end" x="-78.11" y="-192.44" incLanes="332_0" intLanes="" shape="-78.15,-194.18 -78.06,-190.69" rightOfWay="edgePriority"/>
    <junction id="16" type="dead_end" x="-148.21" y="-63.83" incLanes="" intLanes="" shape="-146.67,-64.66 -149.75,-63.00" rightOfWay="edgePriority"/>
    <junction id="19" type="dead_end" x="-157.07" y="-47.75" incLanes="117_0" intLanes="" shape="-155.37,-48.18 -158.76,-47.33" rightOfWay="edgePriority"/>
    <junction id="23" type="dead_end" x="-145.18" y="-65.57" incLanes="133_0" intLanes="" shape="-143.64,-66.40 -146.72,-64.74" rightOfWay="edgePriority"/>
    <junction id="24" type="dead_end" x="-160.44" y="-46.84" incLanes="" intLanes="" shape="-158.75,-47.26 -162.14,-46.41" rightOfWay="edgePriority"/>
    <junction id="25" type="dead_end" x="-133.59" y="-280.10" incLanes="" intLanes="" shape="-135.28,-280.54 -131.90,-279.66" rightOfWay="edgePriority"/>
    <junction id="29" type="priority" x="-152.65" y="-203.75" incLanes="331_0 213_0 211_0" intLanes=":29_0_0 :29_1_0 :29_2_0 :29_3_0 :29_4_0 :29_5_0" shape="-148.36,-199.14 -146.47,-205.87 -148.79,-207.05 -149.48,-207.90 -149.87,-208.93 -149.95,-210.14 -149.72,-211.52 -156.49,-213.29 -160.81,-197.19 -154.04,-195.41 -152.83,-198.02 -151.97,-198.82 -150.94,-199.27 -149.73,-199.37">
        <request index="0" response="001000" foes="001000" cont="0"/>
        <request index="1" response="111000" foes="111000" cont="0"/>
        <request index="2" response="000000" foes="100000" cont="0"/>
        <request index="3" response="000000" foes="100011" cont="0"/>
        <request index="4" response="000000" foes="000010" cont="0"/>
        <request index="5" response="001100" foes="001110" cont="0"/>
    </junction>
    <junction id="30" type="priority" x="-141.56" y="-250.97" incLanes="343_0 216_0 214_0" intLanes=":30_0_0 :30_1_0 :30_2_0 :30_3_0 :30_4_0 :30_5_0" shape="-133.03,-245.36 -132.05,-248.72 -131.97,-249.06 -136.29,-253.48 -141.09,-255.63 -137.33,-254.97 -137.98,-257.75 -137.78,-258.80 -137.37,-259.86 -136.84,-261.12 -136.32,-262.77 -143.09,-264.54 -148.35,-244.42 -141.58,-242.65 -140.07,-245.10 -138.81,-245.74 -137.22,-246.00 -135.29,-245.87">
        <request index="0" response="001000" foes="001000" cont="0"/>
        <request index="1" response="111000" foes="111000" cont="0"/>
        <request index="2" response="000000" foes="000000" cont="0"/>
        <request index="3" response="000000" foes="100011" cont="0"/>
        <request index="4" response="000000" foes="000010" cont="0"/>
        <request index="5" response="001000" foes="001010" cont="0"/>
    </junction>
    <junction id="31" type="dead_end" x="-135.48" y="-251.54" incLanes="860_0 863_0" intLanes="" shape="-135.14,-253.25 -135.82,-249.82 -134.84,-253.16 -136.12,-249.91"/>
    <junction id="32" type="priority" x="-161.17" y="-86.20" incLanes="118_0 132_0 210_0" intLanes=":32_0_0 :32_1_0 :32_2_0 :32_3_0" shape="-167.20,-75.86 -160.24,-76.65 -157.44,-81.15 -150.81,-83.35 -154.00,-91.85 -156.86,-98.07 -159.28,-103.20 -161.17,-108.42 -162.42,-114.91 -162.93,-123.86 -169.93,-123.56 -169.83,-113.38 -169.71,-105.85 -169.48,-99.65 -169.04,-93.47 -168.31,-85.98">
        <request index="0" response="0000" foes="0010" cont="0"/>
        <request index="1" response="1001" foes="1001" cont="0"/>
        <request index="2" response="0000" foes="0000" cont="0"/>
        <request index="3" response="0000" foes="0010" cont="0"/>
    </junction>

    <connection from="118" to="211" fromLane="0" toLane="0" contPos="-4.00" shape="-165.46,-76.07 -166.66,-88.31 -167.43,-100.07" via=":32_0_0" dir="s" state="M"/>
    <connection from="132" to="211" fromLane="0" toLane="0" contPos="-4.00" shape="-155.73,-81.53 -156.63,-83.44 -158.09,-85.66 -160.49,-88.49 -164.04,-92.44 -165.60,-94.59 -166.59,-96.47 -167.11,-97.97 -167.39,-99.54 -167.43,-100.07" via=":32_1_0" dir="s" state="m"/>
    <connection from="210" to="133" fromLane="0" toLane="0" contPos="-4.00" shape="-163.94,-100.26 -163.81,-99.15 -163.53,-98.07 -163.11,-97.04 -162.58,-96.05 -161.96,-95.12 -161.29,-94.23 -160.57,-93.38 -159.82,-92.55 -159.06,-91.73 -158.29,-90.92 -157.52,-90.11 -156.76,-89.29 -156.02,-88.45 -155.31,-87.59 -154.63,-86.70 -154.00,-85.78 -153.42,-84.82 -152.91,-83.83 -152.47,-82.80" via=":32_2_0" dir="R" state="M"/>
    <connection from="210" to="117" fromLane="0" toLane="0" contPos="-4.00" shape="-163.94,-100.26 -163.17,-88.59 -161.98,-76.45" via=":32_3_0" dir="s" state="M"/>
    <connection from="211" to="214" fromLane="0" toLane="0" contPos="-4.00" shape="-159.10,-196.80 -156.94,-204.85 -154.79,-212.85" via=":29_4_0" dir="s" state="M"/>
    <connection from="211" to="332" fromLane="0" toLane="0" contPos="-4.00" shape="-159.10,-196.80 -158.42,-198.83 -157.48,-200.75 -156.67,-201.91 -155.69,-202.94 -154.53,-203.77 -153.24,-204.35 -151.86,-204.67 -150.44,-204.76 -148.32,-204.52 -146.95,-204.19" via=":29_5_0" dir="l" state="m"/>
    <connection from="213" to="332" fromLane="0" toLane="0" contPos="-4.00" shape="-151.40,-212.00 -151.66,-210.63 -151.70,-209.24 -151.57,-208.32 -151.28,-207.43 -150.81,-206.63 -150.21,-205.92 -149.48,-205.34 -148.25,-204.66 -146.95,-204.19" via=":29_2_0" dir="r" state="M"/>
    <connection from="213" to="210" fromLane="0" toLane="0" contPos="-4.00" shape="-151.40,-212.00 -153.56,-203.94 -155.73,-195.85" via=":29_3_0" dir="s" state="M"/>
    <connection from="214" to="217" fromLane="0" toLane="0" contPos="-4.00" shape="-146.65,-244.00 -144.52,-252.13 -142.41,-260.22" via=":30_4_0" dir="s" state="M"/>
    <connection from="214" to="860" fromLane="0" toLane="0" contPos="-4.00" via=":30_5_0" dir="l" state="m"/>
    <connection from="216" to="863" fromLane="0" toLane="0" contPos="-4.00" via=":30_2_0" dir="r" state="M"/>
    <connection from="216" to="213" fromLane="0" toLane="0" contPos="-4.00" shape="-139.01,-259.37 -141.14,-251.25 -143.27,-243.09" via=":30_3_0" dir="s" state="M"/>
    <connection from="331" to="210" fromLane="0" toLane="0" contPos="-4.00" shape="-147.92,-200.83 -148.86,-201.06 -150.34,-201.22 -151.21,-201.16 -152.03,-200.98 -152.78,-200.62 -153.46,-200.11 -154.06,-199.47 -154.57,-198.71 -155.23,-197.35 -155.73,-195.85" via=":29_0_0" dir="r" state="m"/>
    <connection from="331" to="214" fromLane="0" toLane="0" contPos="-4.00" shape="-147.92,-200.83 -149.82,-201.52 -151.63,-202.52 -152.78,-203.45 -153.77,-204.60 -154.53,-205.92 -155.01,-207.36 -155.22,-208.83 -155.16,-210.90 -154.79,-212.85" via=":29_1_0" dir="l" state="m"/>
    <connection from="343" to="213" fromLane="0" toLane="0" contPos="-4.00" shape="-136.44,-248.18 -137.89,-248.46 -138.75,-248.49 -139.59,-248.33 -140.34,-248.03 -141.02,-247.52 -141.62,-246.86 -142.13,-246.07 -142.78,-244.65 -143.27,-243.09" via=":30_0_0" dir="r" state="m"/>
    <connection from="343" to="217" fromLane="0" toLane="0" contPos="-4.00" shape="-136.44,-248.18 -138.39,-248.93 -139.68,-249.69 -140.85,-250.71 -141.78,-251.95 -142.44,-253.34 -142.81,-254.81 -142.93,-256.27 -142.79,-258.30 -142.41,-260.22" via=":30_1_0" dir="L" state="m"/>

    <connection from=":29_0" to="210" fromLane="0" toLane="0" dir="r" state="M"/>
    <connection from=":29_1" to="214" fromLane="0" toLane="0" dir="l" state="M"/>
    <connection from=":29_2" to="332" fromLane="0" toLane="0" dir="r" state="M"/>
    <connection from=":29_3" to="210" fromLane="0" toLane="0" dir="s" state="M"/>
    <connection from=":29_4" to="214" fromLane="0" toLane="0" dir="s" state="M"/>
    <connection from=":29_5" to="332" fromLane="0" toLane="0" dir="l" state="M"/>
    <connection from=":30_0" to="213" fromLane="0" toLane="0" dir="r" state="M"/>
    <connection from=":30_1" to="217" fromLane="0" toLane="0" dir="L" state="M"/>
    <connection from=":30_2" to="863" fromLane="0" toLane="0" dir="r" state="M"/>
    <connection from=":30_3" to="213" fromLane="0" toLane="0" dir="s" state="M"/>
    <connection from=":30_4" to="217" fromLane="0" toLane="0" dir="s" state="M"/>
    <connection from=":30_5" to="860" fromLane="0" toLane="0" dir="l" state="M"/>
    <connection from=":32_0" to="211" fromLane="0" toLane="0" dir="s" state="M"/>
    <connection from=":32_1" to="211" fromLane="0" toLane="0" dir="s" state="M"/>
    <connection from=":32_2" to="133" fromLane="0" toLane="0" dir="R" state="M"/>
    <connection from=":32_3" to="117" fromLane="0" toLane="0" dir="s" state="M"/>

</net>