<!-- generated on 2020-12-18 15:55:15.523442 by ipykernel_launcher.py v1_2_0+5214-53edc58fcd
-->
<nodes>
	<node id="1" type="from" x="-56.60269166666666" y="42.52804166666667"/>
	<node id="2" type="to" x="49.301925000000004" y="-50.131908333333335"/>
	<node id="3" type="to" x="121.44434999999999" y="-110.74055000000001"/>
	<node id="4" type="to" x="110.48320000000001" y="-123.0815"/>
</nodes>
