<?xml version="1.0" encoding="UTF-8"?>

<!-- generated on Fri Dec 18 15:55:15 2020 by Eclipse SUMO netconvert Version 1.8.0
<configuration xmlns:xsi="http://www.w3.org/2001/XMLSchema-instance" xsi:noNamespaceSchemaLocation="http://sumo.dlr.de/xsd/netconvertConfiguration.xsd">

    <input>
        <node-files value="./converted_scenarios/NGSIM/US101/USA_US101-7_3_I-1-1/nodes.net.xml"/>
        <edge-files value="./converted_scenarios/NGSIM/US101/USA_US101-7_3_I-1-1/edges.net.xml"/>
        <connection-files value="./converted_scenarios/NGSIM/US101/USA_US101-7_3_I-1-1/_connections.net.xml"/>
        <tllogic-files value="./converted_scenarios/NGSIM/US101/USA_US101-7_3_I-1-1/_tll.net.xml"/>
    </input>

    <output>
        <output-file value="./converted_scenarios/NGSIM/US101/USA_US101-7_3_I-1-1/USA_US101-7_3_I-1-1.net.xml"/>
    </output>

    <processing>
        <plain.extend-edge-shape value="true"/>
        <geometry.remove.keep-edges.explicit value="true"/>
        <geometry.avoid-overlap value="true"/>
        <offset.disable-normalization value="true"/>
    </processing>

    <junctions>
        <no-turnarounds value="true"/>
        <junctions.internal-link-detail value="20"/>
    </junctions>

    <report>
        <aggregate-warnings value="5"/>
    </report>

    <random_number>
        <seed value="1234"/>
    </random_number>

</configuration>
-->

<net version="1.6" junctionCornerDetail="5" junctionLinkDetail="20" limitTurnSpeed="5.50" xmlns:xsi="http://www.w3.org/2001/XMLSchema-instance" xsi:noNamespaceSchemaLocation="http://sumo.dlr.de/xsd/net_file.xsd">

    <location netOffset="0.00,0.00" convBoundary="-56.60,-123.08,121.44,42.53" origBoundary="-62.34,-123.08,125.93,48.95" projParameter="!"/>

    <edge id=":2_0" function="internal">
        <lane id=":2_0_0" index="0" disallow="bus truck rail_fast" speed="36.11" length="13.52" width="3.96" shape="32.71,-47.18 42.84,-56.13"/>
    </edge>
    <edge id=":2_1" function="internal">
        <lane id=":2_1_0" index="0" disallow="bus truck rail_fast" speed="36.11" length="13.53" width="3.51" shape="35.18,-44.40 45.35,-53.33"/>
        <lane id=":2_1_1" index="1" disallow="bus truck rail_fast" speed="36.11" length="13.53" width="3.29" shape="37.43,-41.87 47.61,-50.79"/>
        <lane id=":2_1_2" index="2" disallow="bus rail_fast" speed="36.11" length="13.53" width="3.09" shape="39.66,-39.38 49.83,-48.29"/>
        <lane id=":2_1_3" index="3" disallow="bus truck rail_fast" speed="36.11" length="13.53" width="3.23" shape="41.89,-36.86 52.07,-45.76"/>
        <lane id=":2_1_4" index="4" disallow="bus truck rail_fast" speed="36.11" length="13.53" width="3.48" shape="44.15,-34.34 54.35,-43.21"/>
    </edge>

    <edge id="22" from="2" to="4" priority="1" spreadType="center" length="94.39">
        <lane id="22_0" index="0" disallow="bus truck rail_fast" speed="36.11" length="94.39" width="3.96" customShape="1" shape="42.84,-56.13 48.86,-61.55 61.83,-73.42 68.91,-80.18 70.70,-81.98 85.40,-96.86 92.67,-104.36 110.39,-122.98 110.48,-123.08"/>
    </edge>
    <edge id="23" from="1" to="2" priority="1" spreadType="center" length="140.62">
        <lane id="23_0" index="0" disallow="bus rail_fast" speed="36.11" length="140.62" width="3.68" customShape="1" shape="-62.34,35.95 -61.89,35.55 -59.27,33.19 -58.55,32.55 -55.88,30.23 -55.15,29.59 -52.36,27.14 -51.64,26.50 -49.13,24.33 -48.40,23.69 -45.63,21.26 -44.90,20.62 -42.21,18.35 -41.48,17.71 -38.74,15.25 -38.02,14.61 -37.36,14.04 -35.28,12.24 -34.56,11.59 -31.91,9.30 -31.19,8.66 -28.49,6.34 -27.77,5.69 -23.26,1.79 -22.54,1.14 -19.67,-1.32 -18.94,-1.96 -16.06,-4.44 -15.34,-5.09 -12.52,-7.56 -11.79,-8.21 -9.12,-10.52 -8.40,-11.17 -5.82,-13.39 -5.59,-13.59 -4.89,-14.25 -4.39,-14.71 -2.08,-16.75 -1.36,-17.40 1.50,-19.96 2.22,-20.61 5.07,-23.14 5.79,-23.79 8.54,-26.21 9.26,-26.86 11.15,-28.48 11.99,-29.22 13.70,-30.76 19.94,-36.05 22.52,-38.26 23.25,-38.90 26.07,-41.34 26.80,-41.98 27.45,-42.53 29.49,-44.33 30.21,-44.98 32.71,-47.18"/>
        <lane id="23_1" index="1" disallow="bus truck rail_fast" speed="36.11" length="140.62" width="3.45" customShape="1" shape="-59.88,38.77 -59.49,38.41 -56.89,36.08 -56.15,35.41 -53.42,33.04 -53.28,32.91 -52.77,32.46 -50.22,30.23 -49.89,29.94 -49.17,29.29 -46.67,27.11 -45.98,26.48 -43.19,24.02 -42.47,23.37 -41.52,22.56 -39.80,21.12 -39.14,20.53 -38.68,20.12 -36.44,18.13 -35.70,17.48 -35.62,17.41 -32.88,15.05 -32.23,14.48 -32.13,14.40 -30.71,13.18 -29.46,12.11 -28.81,11.53 -28.73,11.46 -27.71,10.59 -26.03,9.12 -25.31,8.47 -20.83,4.55 -20.11,3.90 -20.03,3.83 -17.25,1.46 -17.14,1.36 -16.69,0.96 -16.58,0.87 -13.69,-1.55 -13.36,-1.83 -13.27,-1.91 -12.95,-2.19 -10.22,-4.58 -10.03,-4.75 -9.31,-5.40 -6.65,-7.73 -5.93,-8.38 -4.80,-9.36 -3.08,-10.85 -2.42,-11.43 -1.84,-11.94 0.43,-13.94 1.12,-14.56 4.01,-17.14 4.70,-17.77 7.22,-20.00 7.55,-20.28 8.23,-20.89 10.21,-22.62 11.06,-23.34 11.71,-23.92 11.81,-24.01 14.60,-26.38 15.25,-26.96 17.88,-29.27 18.01,-29.39 18.71,-30.02 18.81,-30.10 20.98,-31.94 21.69,-32.55 22.36,-33.15 24.98,-35.42 25.65,-36.03 28.50,-38.53 28.65,-38.67 29.15,-39.12 31.72,-41.35 31.97,-41.56 32.65,-42.18 35.18,-44.40"/>
        <lane id="23_2" index="2" disallow="bus truck rail_fast" speed="36.11" length="140.62" width="3.22" customShape="1" shape="-57.64,41.33 -54.73,38.79 -50.91,35.46 -47.92,32.85 -46.81,31.88 -43.84,29.26 -39.31,25.25 -36.30,22.63 -35.71,22.11 -32.71,19.53 -28.42,15.84 -25.43,13.25 -17.79,6.53 -14.76,3.90 -13.22,2.61 -10.91,0.65 -10.24,0.06 -7.91,-1.99 -2.56,-6.78 0.42,-9.37 8.28,-16.38 9.44,-17.40 11.28,-19.00 12.39,-19.94 19.95,-26.35 20.28,-26.64 22.98,-28.99 23.31,-29.28 30.61,-35.86 30.95,-36.16 33.61,-38.47 33.97,-38.79 37.43,-41.87"/>
        <lane id="23_3" index="3" disallow="bus rail_fast" speed="36.11" length="140.62" width="3.05" customShape="1" shape="-55.48,43.81 -52.56,41.29 -49.34,38.49 -46.34,35.88 -44.57,34.32 -41.59,31.70 -38.40,28.88 -35.41,26.27 -33.53,24.61 -30.56,21.99 -27.16,19.00 -24.17,16.40 -16.10,9.44 -13.09,6.83 -11.12,5.14 -8.13,2.55 -4.83,-0.33 -1.84,-2.97 -0.32,-4.32 2.65,-6.93 6.17,-10.06 9.12,-12.66 10.50,-13.89 13.47,-16.52 16.96,-19.54 19.98,-22.10 22.13,-23.93 25.12,-26.52 28.66,-29.68 31.62,-32.33 32.71,-33.31 35.78,-35.97 39.51,-39.25 39.66,-39.38"/>
        <lane id="23_4" index="4" disallow="bus truck rail_fast" speed="36.11" length="140.62" width="3.28" customShape="1" shape="-53.26,46.36 -47.40,41.27 -47.12,41.03 -44.41,38.67 -44.12,38.42 -36.34,31.55 -36.22,31.44 -33.31,28.91 -33.18,28.80 -25.07,21.56 -24.99,21.49 -22.06,18.94 -13.93,11.91 -13.79,11.79 -10.94,9.31 -10.79,9.19 -2.67,2.19 -2.57,2.10 0.31,-0.40 0.43,-0.51 8.40,-7.58 11.38,-10.16 19.08,-17.00 19.32,-17.21 22.10,-19.62 22.32,-19.81 30.70,-27.01 30.97,-27.24 33.71,-29.62 33.99,-29.87 41.63,-36.63 41.77,-36.76 41.89,-36.86"/>
        <lane id="23_5" index="5" disallow="bus truck rail_fast" speed="36.11" length="140.62" width="3.48" customShape="1" shape="-51.00,48.95 -45.16,43.85 -44.77,43.51 -42.17,41.25 -41.79,40.92 -34.02,34.13 -33.63,33.79 -31.03,31.53 -30.69,31.23 -22.75,24.16 -22.38,23.83 -19.78,21.57 -19.39,21.23 -11.53,14.39 -11.14,14.05 -8.54,11.79 -8.15,11.45 -0.45,4.77 -0.06,4.43 2.54,2.17 2.89,1.86 10.66,-5.04 11.03,-5.37 13.63,-7.63 14.01,-7.96 21.60,-14.61 21.98,-14.94 24.58,-17.20 24.99,-17.55 33.00,-24.37 33.38,-24.70 36.01,-26.98 36.32,-27.26 43.87,-34.09 44.15,-34.34"/>
    </edge>
    <edge id="24" from="2" to="3" priority="1" spreadType="center" length="94.17">
        <lane id="24_0" index="0" disallow="rail_fast" speed="36.11" length="94.17" width="3.51" customShape="1" shape="45.35,-53.33 50.68,-57.98 53.67,-60.58 61.80,-67.72 64.78,-70.32 72.74,-77.33 74.03,-78.46 75.70,-79.92 83.76,-86.98 86.75,-89.59 88.32,-90.96 94.74,-96.55 97.74,-99.15 100.90,-101.89 105.52,-105.94 108.50,-108.54 116.15,-115.25 116.92,-115.92"/>
        <lane id="24_1" index="1" disallow="bus truck rail_fast" speed="36.11" length="94.17" width="3.29" customShape="1" shape="47.61,-50.79 52.92,-55.35 53.03,-55.45 55.95,-57.99 56.03,-58.06 64.03,-65.07 67.03,-67.67 75.02,-74.71 75.12,-74.80 78.01,-77.31 78.11,-77.40 86.11,-84.35 86.46,-84.66 89.10,-86.95 89.45,-87.26 97.04,-93.93 97.13,-94.02 100.01,-96.52 100.12,-96.61 107.81,-103.17 109.04,-104.23 110.89,-105.83 112.08,-106.87 118.51,-112.61 119.24,-113.26"/>
        <lane id="24_2" index="2" disallow="bus rail_fast" speed="36.11" length="94.17" width="3.09" customShape="1" shape="49.83,-48.29 50.76,-49.10 53.77,-51.68 55.26,-53.00 58.22,-55.63 61.85,-58.86 64.84,-61.46 66.11,-62.56 69.13,-65.13 72.83,-68.31 75.87,-70.96 77.35,-72.27 80.32,-74.88 84.26,-78.35 87.24,-80.95 88.62,-82.15 91.62,-84.75 94.98,-87.70 97.96,-90.32 99.28,-91.48 102.30,-94.10 106.44,-97.62 109.46,-100.19 111.29,-101.73 114.26,-104.29 117.44,-107.08 120.43,-109.73 121.49,-110.69"/>
        <lane id="24_3" index="3" disallow="bus truck rail_fast" speed="36.11" length="94.17" width="3.23" customShape="1" shape="52.07,-45.76 52.94,-46.52 53.06,-46.62 55.95,-49.14 63.78,-56.21 63.95,-56.35 66.81,-58.85 66.95,-58.97 75.07,-65.83 75.19,-65.94 78.07,-68.44 78.16,-68.52 86.25,-75.67 86.41,-75.81 89.27,-78.30 89.45,-78.45 97.20,-85.25 97.41,-85.44 100.18,-87.84 100.41,-88.04 108.56,-95.02 111.57,-97.64 119.50,-104.53 119.70,-104.70 122.48,-107.12 122.70,-107.31 123.70,-108.20"/>
        <lane id="24_4" index="4" disallow="bus truck rail_fast" speed="36.11" length="94.17" width="3.48" customShape="1" shape="54.35,-43.21 55.31,-44.04 55.70,-44.38 58.30,-46.64 58.63,-46.93 66.12,-53.65 66.49,-53.97 69.09,-56.23 69.49,-56.58 77.45,-63.36 77.83,-63.69 80.46,-65.97 80.83,-66.30 88.57,-73.08 88.95,-73.42 91.55,-75.68 91.90,-75.98 99.66,-82.88 100.04,-83.21 102.64,-85.47 103.05,-85.82 110.84,-92.41 111.21,-92.74 113.85,-95.03 114.20,-95.33 121.71,-101.99 122.08,-102.32 124.68,-104.58 125.03,-104.88 125.93,-105.69"/>
    </edge>

    <junction id="1" type="dead_end" x="-56.60" y="42.53" incLanes="" intLanes="" shape="-49.86,50.26 -63.55,34.56"/>
    <junction id="2" type="priority" x="49.30" y="-50.13" incLanes="23_0 23_1 23_2 23_3 23_4 23_5" intLanes=":2_0_0 :2_1_0 :2_1_1 :2_1_2 :2_1_3 :2_1_4" shape="55.50,-41.90 44.19,-54.64 41.52,-57.60 31.48,-48.55 45.30,-33.04">
        <request index="0" response="000000" foes="000000" cont="0"/>
        <request index="1" response="000000" foes="000000" cont="0"/>
        <request index="2" response="000000" foes="000000" cont="0"/>
        <request index="3" response="000000" foes="000000" cont="0"/>
        <request index="4" response="000000" foes="000000" cont="0"/>
        <request index="5" response="000000" foes="000000" cont="0"/>
    </junction>
    <junction id="3" type="dead_end" x="121.44" y="-110.74" incLanes="24_0 24_1 24_2 24_3 24_4" intLanes="" shape="115.76,-117.24 127.04,-104.34"/>
    <junction id="4" type="dead_end" x="110.48" y="-123.08" incLanes="22_0" intLanes="" shape="109.03,-124.43 111.93,-121.73"/>

    <connection from="23" to="22" fromLane="0" toLane="0" contPos="-4.00" via=":2_0_0" dir="R" state="M"/>
    <connection from="23" to="24" fromLane="1" toLane="0" contPos="-4.00" via=":2_1_0" dir="s" state="M"/>
    <connection from="23" to="24" fromLane="2" toLane="1" contPos="-4.00" via=":2_1_1" dir="s" state="M"/>
    <connection from="23" to="24" fromLane="3" toLane="2" contPos="-4.00" via=":2_1_2" dir="s" state="M"/>
    <connection from="23" to="24" fromLane="4" toLane="3" contPos="-4.00" via=":2_1_3" dir="s" state="M"/>
    <connection from="23" to="24" fromLane="5" toLane="4" contPos="-4.00" via=":2_1_4" dir="s" state="M"/>

    <connection from=":2_0" to="22" fromLane="0" toLane="0" dir="R" state="M"/>
    <connection from=":2_1" to="24" fromLane="0" toLane="0" dir="s" state="M"/>
    <connection from=":2_1" to="24" fromLane="1" toLane="1" dir="s" state="M"/>
    <connection from=":2_1" to="24" fromLane="2" toLane="2" dir="s" state="M"/>
    <connection from=":2_1" to="24" fromLane="3" toLane="3" dir="s" state="M"/>
    <connection from=":2_1" to="24" fromLane="4" toLane="4" dir="s" state="M"/>

</net>
