<routes>
	<vehicle depart="0.1" departLane="0" departPos="2.5" departSpeed="3.5730616" id="324" type="passenger">
		<route edges=":120_0 4057"/>
	</vehicle>
	<vehicle depart="0.1" departLane="0" departPos="13.221290241595792" departSpeed="1.5416338" id="347" type="passenger">
		<route edges="4012 4061"/>
	</vehicle>
	<vehicle depart="0.1" departLane="0" departPos="5.204836442144645" departSpeed="1.349274" id="381" type="passenger">
		<route edges="4012 4061"/>
	</vehicle>
	<vehicle depart="0.1" departLane="0" departPos="2.5" departSpeed="0.21045807" id="382" type="passenger">
		<route edges=":120_7 4013"/>
	</vehicle>
	<vehicle depart="0.1" departLane="0" departPos="19.768548579830625" departSpeed="0.18163846" id="3102" type="passenger">
		<route edges="4009 3598"/>
	</vehicle>
	<vehicle depart="0.1" departLane="0" departPos="30.010058390272004" departSpeed="1.2742196" id="3117" type="passenger">
		<route edges=":120_9 4009 3598"/>
	</vehicle>
	<vehicle depart="0.1" departLane="0" departPos="9.781093152145196" departSpeed="0.67804952" id="3118" type="passenger">
		<route edges="4009 3598"/>
	</vehicle>
	<vehicle depart="0.1" departLane="0" departPos="2.5" departSpeed="0.54932971" id="3130" type="passenger">
		<route edges=":120_4 4057 3541"/>
	</vehicle>
	<vehicle depart="0.1" departLane="0" departPos="63.23887764692719" departSpeed="0.4885874" id="3138" type="passenger">
		<route edges="4060 4009"/>
	</vehicle>
	<vehicle depart="0.1" departLane="0" departPos="23.200133951713244" departSpeed="2.6658585" id="344" type="motorcycle">
		<route edges="4012 4009"/>
	</vehicle>
</routes>
