<!-- generated on Tue Feb  9 22:18:09 2021 by Eclipse SUMO netconvert Version 1.8.0
<configuration xmlns:xsi="http://www.w3.org/2001/XMLSchema-instance" xsi:noNamespaceSchemaLocation="http://sumo.dlr.de/xsd/netconvertConfiguration.xsd">

    <input>
        <node-files value="./converted_scenarios/scenario-factory/ARG_Carcarana-7_1_I-1-1/ARG_Carcarana-7_1_I-1-1.nod.xml"/>
        <edge-files value="./converted_scenarios/scenario-factory/ARG_Carcarana-7_1_I-1-1/ARG_Carcarana-7_1_I-1-1.edg.xml"/>
        <connection-files value="./converted_scenarios/scenario-factory/ARG_Carcarana-7_1_I-1-1/ARG_Carcarana-7_1_I-1-1.con.xml"/>
        <tllogic-files value="./converted_scenarios/scenario-factory/ARG_Carcarana-7_1_I-1-1/ARG_Carcarana-7_1_I-1-1.tll.xml"/>
        <type-files value="/home/zen/commonroad-interactive-benchmarks/install/commonroad-map-tool/crmapconverter/sumo_map/templates/DEU.typ.xml"/>
    </input>

    <output>
        <output-file value="./converted_scenarios/scenario-factory/ARG_Carcarana-7_1_I-1-1/ARG_Carcarana-7_1_I-1-1.net.xml"/>
    </output>

    <processing>
        <geometry.remove.keep-edges.explicit value="true"/>
        <geometry.avoid-overlap value="true"/>
        <offset.disable-normalization value="true"/>
    </processing>

    <junctions>
        <no-turnarounds value="true"/>
        <junctions.internal-link-detail value="20"/>
    </junctions>

    <report>
        <aggregate-warnings value="5"/>
    </report>

    <random_number>
        <seed value="1234"/>
    </random_number>

</configuration>
--><net xmlns:xsi="http://www.w3.org/2001/XMLSchema-instance" version="1.6" junctionCornerDetail="5" junctionLinkDetail="20" limitTurnSpeed="5.50" xsi:noNamespaceSchemaLocation="http://sumo.dlr.de/xsd/net_file.xsd">

    <location netOffset="0.00,0.00" convBoundary="106.80,313.88,565.01,689.54" origBoundary="106.80,313.88,565.01,689.54" projParameter="!"/>

    <type id="highway.bridleway" priority="1" speed="2.78" allow="pedestrian" oneway="1" width="2.00"/>
    <type id="highway.bus_guideway" priority="1" speed="27.78" allow="bus" oneway="1"/>
    <type id="highway.cycleway" priority="1" speed="8.33" allow="bicycle" oneway="0" width="1.00"/>
    <type id="highway.footway" priority="1" speed="2.78" allow="pedestrian" oneway="1" width="2.00"/>
    <type id="highway.ford" priority="1" speed="2.78" allow="army" oneway="0"/>
    <type id="highway.living_street" priority="2" speed="2.78" disallow="tram rail_urban rail rail_electric rail_fast ship" oneway="0"/>
    <type id="highway.motorway" priority="14" speed="39.44" allow="private emergency authority army vip passenger hov taxi bus coach delivery truck trailer motorcycle evehicle custom1 custom2" oneway="1"/>
    <type id="highway.motorway_link" priority="9" speed="22.22" allow="private emergency authority army vip passenger hov taxi bus coach delivery truck trailer motorcycle evehicle custom1 custom2" oneway="1"/>
    <type id="highway.path" priority="1" speed="2.78" allow="pedestrian bicycle" oneway="0" width="2.00"/>
    <type id="highway.pedestrian" priority="1" speed="2.78" allow="pedestrian" oneway="1" width="2.00"/>
    <type id="highway.primary" priority="12" speed="27.78" disallow="pedestrian tram rail_urban rail rail_electric rail_fast ship" oneway="0"/>
    <type id="highway.primary_link" priority="7" speed="22.22" disallow="pedestrian tram rail_urban rail rail_electric rail_fast ship" oneway="0"/>
    <type id="highway.raceway" priority="15" speed="83.33" allow="vip" oneway="0"/>
    <type id="highway.residential" priority="3" speed="13.89" disallow="pedestrian tram rail_urban rail rail_electric rail_fast ship" oneway="0"/>
    <type id="highway.secondary" priority="11" speed="27.78" disallow="pedestrian tram rail_urban rail rail_electric rail_fast ship" oneway="0"/>
    <type id="highway.secondary_link" priority="6" speed="22.22" disallow="pedestrian tram rail_urban rail rail_electric rail_fast ship" oneway="0"/>
    <type id="highway.service" priority="1" speed="5.56" allow="pedestrian delivery bicycle" oneway="0"/>
    <type id="highway.stairs" priority="1" speed="1.39" allow="pedestrian" oneway="1" width="2.00"/>
    <type id="highway.step" priority="1" speed="1.39" allow="pedestrian" oneway="1" width="2.00"/>
    <type id="highway.steps" priority="1" speed="1.39" allow="pedestrian" oneway="1" width="2.00"/>
    <type id="highway.tertiary" priority="10" speed="22.22" disallow="pedestrian tram rail_urban rail rail_electric rail_fast ship" oneway="0"/>
    <type id="highway.tertiary_link" priority="5" speed="22.22" disallow="pedestrian tram rail_urban rail rail_electric rail_fast ship" oneway="0"/>
    <type id="highway.track" priority="1" speed="5.56" allow="pedestrian motorcycle moped bicycle" oneway="0"/>
    <type id="highway.trunk" priority="13" speed="27.78" disallow="pedestrian bicycle tram rail_urban rail rail_electric rail_fast ship" oneway="0"/>
    <type id="highway.trunk_link" priority="8" speed="22.22" disallow="pedestrian bicycle tram rail_urban rail rail_electric rail_fast ship" oneway="0"/>
    <type id="highway.unclassified" priority="4" speed="13.89" disallow="pedestrian tram rail_urban rail rail_electric rail_fast ship" oneway="0"/>
    <type id="highway.unsurfaced" priority="1" speed="8.33" disallow="tram rail_urban rail rail_electric rail_fast ship" oneway="0"/>
    <type id="railway.highspeed" priority="21" speed="69.44" allow="rail_fast" oneway="1"/>
    <type id="railway.light_rail" priority="19" speed="27.78" allow="rail_urban" oneway="1"/>
    <type id="railway.preserved" priority="16" speed="27.78" allow="rail" oneway="1"/>
    <type id="railway.rail" priority="20" speed="44.44" allow="rail" oneway="1"/>
    <type id="railway.subway" priority="18" speed="27.78" allow="rail_urban" oneway="1"/>
    <type id="railway.tram" priority="17" speed="13.89" allow="tram" oneway="1"/>

    <edge id=":117_0" function="internal">
        <lane id=":117_0_0" index="0" disallow="pedestrian tram rail_urban rail rail_electric rail_fast ship" speed="11.20" length="28.73" width="3.50" shape="353.19,555.89 352.64,553.67 351.93,551.51 351.03,549.47 349.92,547.57 348.56,545.85 347.82,545.13 347.01,544.45 346.15,543.84 345.23,543.32 344.27,542.87 343.26,542.51 342.25,542.22 340.07,541.86 337.84,541.76 335.60,541.89 332.17,542.44"/>
    </edge>
    <edge id=":117_1" function="internal">
        <lane id=":117_1_0" index="0" disallow="pedestrian tram rail_urban rail rail_electric rail_fast ship" speed="36.11" length="38.80" width="3.50" shape="353.19,555.89 349.19,536.92 345.18,517.93"/>
    </edge>
    <edge id=":117_2" function="internal">
        <lane id=":117_2_0" index="0" disallow="pedestrian tram rail_urban rail rail_electric rail_fast ship" speed="12.15" length="33.99" width="3.50" shape="353.19,555.89 352.75,553.40 352.50,550.86 352.49,548.28 352.78,545.67 353.41,543.12 353.90,541.83 354.49,540.61 355.18,539.45 355.96,538.35 356.84,537.32 357.80,536.38 358.85,535.50 361.02,534.05 363.35,532.89 365.76,531.97 369.42,531.00"/>
    </edge>
    <edge id=":117_3" function="internal">
        <lane id=":117_3_0" index="0" disallow="pedestrian tram rail_urban rail rail_electric rail_fast ship" speed="11.15" length="28.41" width="3.50" shape="370.14,534.42 366.98,535.26 364.93,536.04 362.98,537.02 361.16,538.23 360.32,538.93 359.54,539.70 358.83,540.53 358.19,541.42 357.64,542.36 357.17,543.34 356.78,544.37 356.25,546.48 356.01,548.66 356.02,550.84 356.23,553.02 356.61,555.17"/>
    </edge>
    <edge id=":117_4" function="internal">
        <lane id=":117_4_0" index="0" disallow="pedestrian tram rail_urban rail rail_electric rail_fast ship" speed="36.11" length="38.81" width="3.50" shape="370.14,534.42 351.17,538.43 332.17,542.44"/>
    </edge>
    <edge id=":117_5" function="internal">
        <lane id=":117_5_0" index="0" disallow="pedestrian tram rail_urban rail rail_electric rail_fast ship" speed="12.21" length="34.32" width="3.50" shape="370.14,534.42 366.23,535.03 363.60,535.17 360.96,535.03 358.37,534.55 357.11,534.17 355.88,533.70 354.69,533.12 353.56,532.43 352.50,531.65 351.51,530.78 350.59,529.83 348.99,527.74 347.68,525.45 346.64,523.02 345.82,520.52 345.18,517.93"/>
    </edge>
    <edge id=":117_6" function="internal">
        <lane id=":117_6_0" index="0" disallow="pedestrian tram rail_urban rail rail_electric rail_fast ship" speed="11.21" length="28.74" width="3.50" shape="348.61,517.21 349.16,519.46 349.86,521.63 350.75,523.69 351.84,525.61 353.18,527.35 353.90,528.10 354.69,528.80 355.55,529.42 356.45,529.97 357.40,530.44 358.39,530.83 359.39,531.13 361.57,531.53 363.78,531.64 366.02,531.53 369.42,531.00"/>
    </edge>
    <edge id=":117_7" function="internal">
        <lane id=":117_7_0" index="0" disallow="pedestrian tram rail_urban rail rail_electric rail_fast ship" speed="36.11" length="38.79" width="3.50" shape="348.61,517.21 352.61,536.20 356.61,555.17"/>
    </edge>
    <edge id=":117_8" function="internal">
        <lane id=":117_8_0" index="0" disallow="pedestrian tram rail_urban rail rail_electric rail_fast ship" speed="12.25" length="34.55" width="3.50" shape="348.61,517.21 349.23,521.16 349.37,523.81 349.25,526.46 348.79,529.08 348.42,530.35 347.95,531.59 347.38,532.79 346.70,533.94 345.93,535.01 345.06,536.02 344.12,536.95 342.02,538.58 339.73,539.91 337.29,540.97 334.77,541.80 332.17,542.44"/>
    </edge>
    <edge id=":117_9" function="internal">
        <lane id=":117_9_0" index="0" disallow="pedestrian tram rail_urban rail rail_electric rail_fast ship" speed="11.25" length="28.97" width="3.50" shape="331.45,539.02 333.71,538.46 335.89,537.74 337.96,536.84 339.88,535.74 341.62,534.38 342.37,533.64 343.06,532.83 343.68,531.97 344.22,531.05 344.68,530.09 345.06,529.08 345.36,528.07 345.74,525.87 345.85,523.64 345.73,521.38 345.18,517.93"/>
    </edge>
    <edge id=":117_10" function="internal">
        <lane id=":117_10_0" index="0" disallow="pedestrian tram rail_urban rail rail_electric rail_fast ship" speed="36.11" length="38.81" width="3.50" shape="331.45,539.02 350.45,535.00 369.42,531.00"/>
    </edge>
    <edge id=":117_11" function="internal">
        <lane id=":117_11_0" index="0" disallow="pedestrian tram rail_urban rail rail_electric rail_fast ship" speed="12.20" length="34.31" width="3.50" shape="331.45,539.01 335.38,538.39 338.01,538.24 340.65,538.35 343.25,538.79 344.52,539.14 345.76,539.60 346.95,540.15 348.10,540.81 349.18,541.57 350.19,542.42 351.12,543.35 352.76,545.42 354.09,547.69 355.15,550.11 355.98,552.61 356.61,555.17"/>
    </edge>
    <edge id=":118_0" function="internal">
        <lane id=":118_0_0" index="0" disallow="pedestrian tram rail_urban rail rail_electric rail_fast ship" speed="11.18" length="28.62" width="3.50" shape="338.32,485.39 337.47,482.20 336.68,480.14 335.68,478.18 334.45,476.36 333.73,475.53 332.95,474.75 332.10,474.04 331.20,473.41 330.25,472.87 329.25,472.40 328.21,472.03 326.07,471.51 323.88,471.29 321.68,471.31 319.49,471.53 317.32,471.91"/>
    </edge>
    <edge id=":118_1" function="internal">
        <lane id=":118_1_0" index="0" disallow="pedestrian tram rail_urban rail rail_electric rail_fast ship" speed="36.11" length="38.76" width="3.50" shape="338.32,485.39 334.32,466.42 330.32,447.46"/>
    </edge>
    <edge id=":118_2" function="internal">
        <lane id=":118_2_0" index="0" disallow="pedestrian tram rail_urban rail rail_electric rail_fast ship" speed="12.17" length="34.10" width="3.50" shape="338.32,485.39 337.71,481.50 337.57,478.88 337.69,476.26 338.15,473.68 338.52,472.42 338.98,471.19 339.55,470.01 340.22,468.88 340.98,467.82 341.84,466.82 342.77,465.90 344.84,464.29 347.12,462.98 349.52,461.94 352.02,461.12 354.56,460.49"/>
    </edge>
    <edge id=":118_3" function="internal">
        <lane id=":118_3_0" index="0" disallow="pedestrian tram rail_urban rail rail_electric rail_fast ship" speed="11.16" length="28.52" width="3.50" shape="355.28,463.92 353.07,464.46 350.92,465.16 348.88,466.05 346.99,467.14 345.26,468.48 344.53,469.20 343.85,470.00 343.24,470.85 342.70,471.76 342.25,472.70 341.87,473.69 341.58,474.69 341.19,476.86 341.09,479.06 341.21,481.28 341.74,484.67"/>
    </edge>
    <edge id=":118_4" function="internal">
        <lane id=":118_4_0" index="0" disallow="pedestrian tram rail_urban rail rail_electric rail_fast ship" speed="36.11" length="38.79" width="3.50" shape="355.28,463.92 336.30,467.92 317.32,471.91"/>
    </edge>
    <edge id=":118_5" function="internal">
        <lane id=":118_5_0" index="0" disallow="pedestrian tram rail_urban rail rail_electric rail_fast ship" speed="12.19" length="34.20" width="3.50" shape="355.28,463.92 351.52,464.50 348.92,464.64 346.30,464.49 343.71,464.02 342.40,463.63 341.13,463.14 339.91,462.54 338.74,461.83 337.64,461.03 336.62,460.13 335.68,459.16 334.81,458.10 333.37,455.91 332.21,453.57 331.29,451.14 330.32,447.46"/>
    </edge>
    <edge id=":118_6" function="internal">
        <lane id=":118_6_0" index="0" disallow="pedestrian tram rail_urban rail rail_electric rail_fast ship" speed="11.19" length="28.62" width="3.50" shape="333.74,446.73 334.59,449.93 335.36,451.99 336.34,453.96 337.55,455.80 338.25,456.65 339.01,457.44 339.84,458.17 340.73,458.82 341.67,459.39 342.66,459.88 343.68,460.28 344.74,460.60 346.90,460.99 349.10,461.11 351.30,461.00 354.56,460.49"/>
    </edge>
    <edge id=":118_7" function="internal">
        <lane id=":118_7_0" index="0" disallow="pedestrian tram rail_urban rail rail_electric rail_fast ship" speed="36.11" length="38.77" width="3.50" shape="333.74,446.73 337.74,465.70 341.74,484.67"/>
    </edge>
    <edge id=":118_8" function="internal">
        <lane id=":118_8_0" index="0" disallow="pedestrian tram rail_urban rail rail_electric rail_fast ship" speed="12.23" length="34.49" width="3.50" shape="333.74,446.73 334.36,450.66 334.50,453.31 334.37,455.96 333.91,458.57 333.55,459.85 333.08,461.09 332.50,462.29 331.83,463.43 331.06,464.51 330.19,465.51 329.25,466.44 327.15,468.07 324.85,469.39 322.42,470.45 319.90,471.28 317.32,471.91"/>
    </edge>
    <edge id=":118_9" function="internal">
        <lane id=":118_9_0" index="0" disallow="pedestrian tram rail_urban rail rail_electric rail_fast ship" speed="11.23" length="28.90" width="3.50" shape="316.60,468.49 318.85,467.94 321.02,467.23 323.09,466.33 325.01,465.22 326.75,463.87 327.49,463.13 328.19,462.32 328.81,461.46 329.35,460.54 329.81,459.58 330.19,458.58 330.49,457.57 330.87,455.37 330.98,453.14 330.86,450.88 330.32,447.46"/>
    </edge>
    <edge id=":118_10" function="internal">
        <lane id=":118_10_0" index="0" disallow="pedestrian tram rail_urban rail rail_electric rail_fast ship" speed="36.11" length="38.79" width="3.50" shape="316.60,468.49 335.58,464.49 354.56,460.49"/>
    </edge>
    <edge id=":118_11" function="internal">
        <lane id=":118_11_0" index="0" disallow="pedestrian tram rail_urban rail rail_electric rail_fast ship" speed="12.19" length="34.20" width="3.50" shape="316.60,468.49 319.11,468.05 321.66,467.79 324.26,467.77 326.88,468.04 329.44,468.66 330.74,469.13 331.97,469.70 333.15,470.38 334.27,471.17 335.31,472.04 336.27,473.00 337.17,474.04 338.64,476.22 339.83,478.55 340.76,480.99 341.74,484.67"/>
    </edge>
    <edge id=":119_0" function="internal">
        <lane id=":119_0_0" index="0" disallow="pedestrian tram rail_urban rail rail_electric rail_fast ship" speed="11.25" length="28.74" width="3.50" shape="479.75,529.25 478.86,526.05 478.05,523.99 477.03,522.03 475.77,520.21 475.04,519.38 474.25,518.60 473.40,517.90 472.49,517.27 471.53,516.72 470.52,516.26 469.48,515.88 467.33,515.36 465.13,515.14 462.92,515.16 460.72,515.38 458.56,515.76"/>
    </edge>
    <edge id=":119_1" function="internal">
        <lane id=":119_1_0" index="0" disallow="pedestrian tram rail_urban rail rail_electric rail_fast ship" speed="36.11" length="38.82" width="3.50" shape="479.75,529.25 475.63,510.28 471.50,491.32"/>
    </edge>
    <edge id=":119_2" function="internal">
        <lane id=":119_2_0" index="0" disallow="pedestrian tram rail_urban rail rail_electric rail_fast ship" speed="12.12" length="34.11" width="3.50" shape="479.75,529.25 479.10,525.37 478.93,522.75 479.03,520.14 479.45,517.55 479.81,516.29 480.26,515.06 480.82,513.87 481.48,512.74 482.23,511.67 483.08,510.67 484.01,509.75 486.07,508.13 488.34,506.82 490.74,505.77 493.23,504.95 495.81,504.32"/>
    </edge>
    <edge id=":119_3" function="internal">
        <lane id=":119_3_0" index="0" disallow="pedestrian tram rail_urban rail rail_electric rail_fast ship" speed="11.11" length="28.48" width="3.50" shape="496.53,507.74 494.29,508.29 492.15,509.00 490.12,509.88 488.23,510.97 486.52,512.31 485.79,513.04 485.11,513.84 484.51,514.69 483.98,515.59 483.54,516.54 483.17,517.54 482.89,518.53 482.53,520.70 482.45,522.90 482.60,525.11 483.17,528.49"/>
    </edge>
    <edge id=":119_4" function="internal">
        <lane id=":119_4_0" index="0" disallow="pedestrian tram rail_urban rail rail_electric rail_fast ship" speed="36.11" length="38.81" width="3.50" shape="496.53,507.74 477.52,511.76 458.56,515.76"/>
    </edge>
    <edge id=":119_5" function="internal">
        <lane id=":119_5_0" index="0" disallow="pedestrian tram rail_urban rail rail_electric rail_fast ship" speed="12.22" length="34.33" width="3.50" shape="496.53,507.74 492.59,508.36 489.96,508.50 487.32,508.36 484.73,507.89 483.46,507.51 482.23,507.04 481.04,506.46 479.91,505.78 478.85,505.00 477.85,504.13 476.93,503.19 475.32,501.10 474.01,498.81 472.96,496.39 472.13,493.88 471.50,491.32"/>
    </edge>
    <edge id=":119_6" function="internal">
        <lane id=":119_6_0" index="0" disallow="pedestrian tram rail_urban rail rail_electric rail_fast ship" speed="11.22" length="28.77" width="3.50" shape="474.92,490.58 475.47,492.82 476.18,494.98 477.07,497.04 478.17,498.96 479.51,500.70 480.24,501.44 481.04,502.14 481.89,502.77 482.80,503.31 483.75,503.78 484.74,504.16 485.74,504.46 487.92,504.86 490.14,504.98 492.37,504.86 495.81,504.32"/>
    </edge>
    <edge id=":119_7" function="internal">
        <lane id=":119_7_0" index="0" disallow="pedestrian tram rail_urban rail rail_electric rail_fast ship" speed="36.11" length="38.80" width="3.50" shape="474.92,490.58 479.05,509.54 483.17,528.49"/>
    </edge>
    <edge id=":119_8" function="internal">
        <lane id=":119_8_0" index="0" disallow="pedestrian tram rail_urban rail rail_electric rail_fast ship" speed="12.20" length="34.37" width="3.50" shape="474.92,490.58 475.37,493.11 475.63,495.67 475.64,498.29 475.36,500.93 474.72,503.50 474.23,504.81 473.64,506.04 472.95,507.22 472.15,508.34 471.26,509.37 470.29,510.33 469.23,511.21 467.03,512.68 464.68,513.86 462.24,514.78 458.56,515.76"/>
    </edge>
    <edge id=":119_9" function="internal">
        <lane id=":119_9_0" index="0" disallow="pedestrian tram rail_urban rail rail_electric rail_fast ship" speed="11.20" length="28.77" width="3.50" shape="457.83,512.34 461.03,511.49 463.10,510.70 465.08,509.71 466.92,508.48 467.77,507.77 468.56,507.00 469.28,506.15 469.92,505.26 470.49,504.30 470.96,503.30 471.35,502.26 471.89,500.12 472.12,497.92 472.11,495.70 471.89,493.50 471.50,491.32"/>
    </edge>
    <edge id=":119_10" function="internal">
        <lane id=":119_10_0" index="0" disallow="pedestrian tram rail_urban rail rail_electric rail_fast ship" speed="36.11" length="38.82" width="3.50" shape="457.83,512.34 476.80,508.33 495.81,504.32"/>
    </edge>
    <edge id=":119_11" function="internal">
        <lane id=":119_11_0" index="0" disallow="pedestrian tram rail_urban rail rail_electric rail_fast ship" speed="12.25" length="34.30" width="3.50" shape="457.83,512.34 460.33,511.90 462.89,511.64 465.50,511.62 468.13,511.89 470.70,512.51 472.00,512.98 473.24,513.55 474.43,514.23 475.55,515.01 476.60,515.88 477.57,516.83 478.47,517.87 479.97,520.04 481.18,522.37 482.14,524.80 483.17,528.49"/>
    </edge>
    <edge id=":120_0" function="internal">
        <lane id=":120_0_0" index="0" disallow="pedestrian tram rail_urban rail rail_electric rail_fast ship" speed="11.17" length="28.59" width="3.50" shape="368.05,626.37 367.20,623.19 366.41,621.13 365.41,619.17 364.17,617.36 363.45,616.52 362.67,615.75 361.83,615.05 360.92,614.42 359.97,613.88 358.97,613.42 357.93,613.04 355.79,612.54 353.60,612.32 351.40,612.35 349.22,612.58 347.05,612.97"/>
    </edge>
    <edge id=":120_1" function="internal">
        <lane id=":120_1_0" index="0" disallow="pedestrian tram rail_urban rail rail_electric rail_fast ship" speed="36.11" length="38.76" width="3.50" shape="368.05,626.37 364.05,607.41 360.05,588.44"/>
    </edge>
    <edge id=":120_2" function="internal">
        <lane id=":120_2_0" index="0" disallow="pedestrian tram rail_urban rail rail_electric rail_fast ship" speed="12.18" length="34.11" width="3.50" shape="368.05,626.37 367.44,622.49 367.30,619.87 367.42,617.25 367.88,614.66 368.24,613.40 368.71,612.18 369.27,610.99 369.94,609.86 370.70,608.80 371.56,607.80 372.49,606.88 374.56,605.26 376.82,603.95 379.23,602.89 381.72,602.07 384.27,601.43"/>
    </edge>
    <edge id=":120_3" function="internal">
        <lane id=":120_3_0" index="0" disallow="pedestrian tram rail_urban rail rail_electric rail_fast ship" speed="11.18" length="28.53" width="3.50" shape="385.00,604.86 382.78,605.41 380.64,606.12 378.60,607.01 376.71,608.10 374.99,609.45 374.26,610.17 373.57,610.97 372.96,611.83 372.43,612.73 371.97,613.68 371.60,614.67 371.31,615.67 370.92,617.84 370.82,620.04 370.94,622.27 371.47,625.65"/>
    </edge>
    <edge id=":120_4" function="internal">
        <lane id=":120_4_0" index="0" disallow="pedestrian tram rail_urban rail rail_electric rail_fast ship" speed="36.11" length="38.81" width="3.50" shape="385.00,604.86 366.02,608.91 347.05,612.97"/>
    </edge>
    <edge id=":120_5" function="internal">
        <lane id=":120_5_0" index="0" disallow="pedestrian tram rail_urban rail rail_electric rail_fast ship" speed="12.17" length="34.19" width="3.50" shape="385.00,604.86 381.23,605.45 378.64,605.59 376.02,605.46 373.44,604.99 372.12,604.60 370.85,604.11 369.63,603.51 368.46,602.81 367.36,602.01 366.34,601.11 365.40,600.14 364.53,599.08 363.09,596.89 361.93,594.55 361.02,592.12 360.05,588.44"/>
    </edge>
    <edge id=":120_6" function="internal">
        <lane id=":120_6_0" index="0" disallow="pedestrian tram rail_urban rail rail_electric rail_fast ship" speed="11.17" length="28.60" width="3.50" shape="363.47,587.72 364.32,590.91 365.09,592.97 366.06,594.94 367.27,596.78 367.97,597.63 368.73,598.42 369.56,599.15 370.44,599.80 371.39,600.37 372.37,600.85 373.40,601.25 374.45,601.56 376.62,601.96 378.81,602.07 381.01,601.95 384.27,601.43"/>
    </edge>
    <edge id=":120_7" function="internal">
        <lane id=":120_7_0" index="0" disallow="pedestrian tram rail_urban rail rail_electric rail_fast ship" speed="36.11" length="38.76" width="3.50" shape="363.47,587.72 367.47,606.69 371.47,625.65"/>
    </edge>
    <edge id=":120_8" function="internal">
        <lane id=":120_8_0" index="0" disallow="pedestrian tram rail_urban rail rail_electric rail_fast ship" speed="12.26" length="34.53" width="3.50" shape="363.47,587.72 364.09,591.66 364.23,594.31 364.10,596.96 363.64,599.58 363.27,600.85 362.80,602.10 362.23,603.29 361.55,604.44 360.78,605.52 359.92,606.53 358.97,607.46 356.88,609.09 354.58,610.42 352.15,611.49 349.63,612.33 347.05,612.97"/>
    </edge>
    <edge id=":120_9" function="internal">
        <lane id=":120_9_0" index="0" disallow="pedestrian tram rail_urban rail rail_electric rail_fast ship" speed="11.26" length="28.96" width="3.50" shape="346.32,609.55 348.56,608.99 350.74,608.27 352.81,607.36 354.73,606.25 356.47,604.89 357.22,604.15 357.91,603.34 358.53,602.47 359.07,601.56 359.54,600.59 359.92,599.58 360.21,598.57 360.60,596.37 360.71,594.14 360.59,591.88 360.05,588.44"/>
    </edge>
    <edge id=":120_10" function="internal">
        <lane id=":120_10_0" index="0" disallow="pedestrian tram rail_urban rail rail_electric rail_fast ship" speed="36.11" length="38.81" width="3.50" shape="346.32,609.55 365.29,605.49 384.27,601.43"/>
    </edge>
    <edge id=":120_11" function="internal">
        <lane id=":120_11_0" index="0" disallow="pedestrian tram rail_urban rail rail_electric rail_fast ship" speed="12.17" length="34.19" width="3.50" shape="346.32,609.55 348.82,609.10 351.37,608.84 353.96,608.80 356.58,609.07 359.15,609.67 360.45,610.14 361.68,610.71 362.87,611.38 363.99,612.16 365.03,613.03 365.99,613.99 366.89,615.03 368.37,617.20 369.56,619.54 370.49,621.97 371.47,625.65"/>
    </edge>
    <edge id=":121_0" function="internal">
        <lane id=":121_0_0" index="0" disallow="pedestrian tram rail_urban rail rail_electric rail_fast ship" speed="11.17" length="28.68" width="3.50" shape="225.79,582.82 225.25,580.59 224.55,578.44 223.67,576.39 222.57,574.49 221.21,572.77 220.48,572.04 219.68,571.36 218.82,570.75 217.90,570.22 216.94,569.77 215.94,569.41 214.93,569.12 212.75,568.75 210.53,568.66 208.29,568.79 204.88,569.33"/>
    </edge>
    <edge id=":121_1" function="internal">
        <lane id=":121_1_0" index="0" disallow="pedestrian tram rail_urban rail rail_electric rail_fast ship" speed="36.11" length="38.79" width="3.50" shape="225.79,582.82 221.87,563.81 217.96,544.83"/>
    </edge>
    <edge id=":121_2" function="internal">
        <lane id=":121_2_0" index="0" disallow="pedestrian tram rail_urban rail rail_electric rail_fast ship" speed="12.18" length="34.01" width="3.50" shape="225.79,582.82 225.37,580.32 225.13,577.78 225.13,575.19 225.43,572.58 226.07,570.03 226.56,568.74 227.15,567.52 227.84,566.36 228.63,565.25 229.51,564.23 230.47,563.28 231.52,562.41 233.70,560.96 236.02,559.79 238.44,558.87 242.08,557.90"/>
    </edge>
    <edge id=":121_3" function="internal">
        <lane id=":121_3_0" index="0" disallow="pedestrian tram rail_urban rail rail_electric rail_fast ship" speed="11.17" length="28.45" width="3.50" shape="242.81,561.32 239.66,562.16 237.61,562.94 235.65,563.92 233.83,565.14 232.99,565.84 232.21,566.61 231.49,567.44 230.85,568.33 230.30,569.27 229.82,570.26 229.43,571.28 228.89,573.40 228.64,575.58 228.65,577.77 228.85,579.95 229.22,582.11"/>
    </edge>
    <edge id=":121_4" function="internal">
        <lane id=":121_4_0" index="0" disallow="pedestrian tram rail_urban rail rail_electric rail_fast ship" speed="36.11" length="38.77" width="3.50" shape="242.81,561.32 223.86,565.32 204.88,569.33"/>
    </edge>
    <edge id=":121_5" function="internal">
        <lane id=":121_5_0" index="0" disallow="pedestrian tram rail_urban rail rail_electric rail_fast ship" speed="12.16" length="34.14" width="3.50" shape="242.81,561.32 239.07,561.90 236.47,562.03 233.85,561.89 231.27,561.42 229.95,561.02 228.69,560.53 227.47,559.92 226.30,559.21 225.21,558.40 224.19,557.50 223.25,556.53 222.39,555.46 220.96,553.27 219.81,550.92 218.91,548.49 217.96,544.83"/>
    </edge>
    <edge id=":121_6" function="internal">
        <lane id=":121_6_0" index="0" disallow="pedestrian tram rail_urban rail rail_electric rail_fast ship" speed="11.15" length="28.54" width="3.50" shape="221.38,544.12 222.21,547.29 222.97,549.36 223.94,551.33 225.14,553.17 225.83,554.03 226.59,554.82 227.41,555.55 228.30,556.21 229.23,556.78 230.22,557.27 231.24,557.67 232.30,557.99 234.46,558.39 236.65,558.51 238.85,558.40 242.08,557.90"/>
    </edge>
    <edge id=":121_7" function="internal">
        <lane id=":121_7_0" index="0" disallow="pedestrian tram rail_urban rail rail_electric rail_fast ship" speed="36.11" length="38.79" width="3.50" shape="221.38,544.12 225.30,563.11 229.22,582.11"/>
    </edge>
    <edge id=":121_8" function="internal">
        <lane id=":121_8_0" index="0" disallow="pedestrian tram rail_urban rail rail_electric rail_fast ship" speed="12.25" length="34.44" width="3.50" shape="221.38,544.12 221.81,546.63 222.05,549.20 222.06,551.82 221.76,554.46 221.11,557.04 220.61,558.35 220.02,559.58 219.32,560.76 218.52,561.88 217.63,562.91 216.66,563.87 215.60,564.76 213.40,566.23 211.04,567.41 208.59,568.34 204.88,569.33"/>
    </edge>
    <edge id=":121_9" function="internal">
        <lane id=":121_9_0" index="0" disallow="pedestrian tram rail_urban rail rail_electric rail_fast ship" speed="11.25" length="28.86" width="3.50" shape="204.16,565.90 207.38,565.05 209.46,564.26 211.44,563.26 213.29,562.03 214.14,561.31 214.93,560.53 215.66,559.69 216.31,558.79 216.87,557.83 217.35,556.83 217.75,555.79 218.29,553.64 218.54,551.43 218.54,549.21 218.33,547.00 217.96,544.83"/>
    </edge>
    <edge id=":121_10" function="internal">
        <lane id=":121_10_0" index="0" disallow="pedestrian tram rail_urban rail rail_electric rail_fast ship" speed="36.11" length="38.75" width="3.50" shape="204.16,565.90 223.13,561.90 242.08,557.90"/>
    </edge>
    <edge id=":121_11" function="internal">
        <lane id=":121_11_0" index="0" disallow="pedestrian tram rail_urban rail rail_electric rail_fast ship" speed="12.18" length="34.27" width="3.50" shape="204.16,565.90 208.07,565.28 210.70,565.13 213.33,565.25 215.93,565.69 217.20,566.05 218.44,566.50 219.63,567.06 220.77,567.72 221.85,568.48 222.86,569.33 223.79,570.27 225.41,572.34 226.73,574.62 227.78,577.04 228.60,579.55 229.22,582.11"/>
    </edge>
    <edge id=":122_0" function="internal">
        <lane id=":122_0_0" index="0" disallow="pedestrian tram rail_urban rail rail_electric rail_fast ship" speed="11.14" length="28.42" width="3.50" shape="323.45,414.92 322.61,411.75 321.84,409.70 320.85,407.75 319.64,405.93 318.93,405.10 318.17,404.32 317.33,403.61 316.44,402.98 315.50,402.42 314.52,401.95 313.49,401.57 311.37,401.04 309.20,400.81 307.01,400.82 304.84,401.04 302.68,401.42"/>
    </edge>
    <edge id=":122_1" function="internal">
        <lane id=":122_1_0" index="0" disallow="pedestrian tram rail_urban rail rail_electric rail_fast ship" speed="36.11" length="38.82" width="3.50" shape="323.45,414.92 319.45,395.93 315.44,376.94"/>