<routes>
	<vehicle depart="0.1" departLane="0" departPos="35.47480039272347" departSpeed="4.2929057" id="1" type="passenger">
		<route edges="50201 50213 50197"/>
	</vehicle>
	<vehicle depart="0.1" departLane="0" departPos="122.37983045158857" departSpeed="0.21792181" id="2" type="passenger">
		<route edges="50195 50211 50199"/>
	</vehicle>
	<vehicle depart="0.1" departLane="0" departPos="147.3986056737182" departSpeed="1.6044678" id="4" type="passenger">
		<route edges="50205 50207 50197"/>
	</vehicle>
	<vehicle depart="0.1" departLane="0" departPos="155.39876726324442" departSpeed="4.3681485" id="5" type="passenger">
		<route edges="50205 50217 50199"/>
	</vehicle>
	<vehicle depart="0.1" departLane="0" departPos="27.472098371469507" departSpeed="3.2784111" id="7" type="passenger">
		<route edges="50201 50213 50197"/>
	</vehicle>
</routes>
