<!-- generated on 2020-12-18 15:55:19.310910 by ipykernel_launcher.py v1_2_0+5214-53edc58fcd
-->
<edges>
	<edge from="1" function="normal" id="12" length="81.38237465591564" numLanes="5" priority="1" speed="36.11111111111111" spreadType="center" to="2">
		<lane allow="moped bicycle pedestrian custom1 trailer evehicle rail_urban ship private vip custom2 authority delivery rail_electric taxi tram army hov coach motorcycle passenger rail emergency" index="0" length="81.38237465591564" shape="-44.0083,21.948349999999998 -37.37795,15.75365 -34.54025,12.98955 -30.00065,8.74355 -26.4825,5.4992 -23.576999999999998,2.8051 -15.765,-4.31165 -15.18475,-4.8493 -12.823,-7.020950000000001 -5.5161,-13.636199999999999 -4.7167,-14.3686 -1.7975,-17.08485 1.2647499999999998,-19.8341 6.07815,-24.0033 9.025649999999999,-26.648200000000003 10.57405,-27.987650000000002 16.5122,-33.151650000000004 16.52165,-33.1599" speed="36.11111111111111" width="3.4699252513562895"/>
		<lane allow="moped bicycle pedestrian custom1 trailer evehicle rail_urban ship private truck vip custom2 authority delivery rail_electric taxi tram army hov coach motorcycle passenger rail emergency" index="1" length="81.38237465591564" shape="-41.64535,24.4675 -37.03745,20.1861 -34.98415,18.2145 -34.2444,17.47475 -32.2487,15.5702 -26.24455,10.06355 -24.097,8.07225 -23.340249999999997,7.3666 -21.214199999999998,5.40345 -15.5613,0.2751 -13.35615,-1.7456 -12.667449999999999,-2.38775 -10.48935,-4.37645 -4.3556,-9.89075 -2.2848,-11.79205 -1.4625000000000001,-12.55885 0.57595,-14.4159 6.399900000000001,-19.534999999999997 8.43605,-21.36815 9.2864,-22.161099999999998 11.28585,-23.967950000000002 17.3988,-29.2957 18.797,-30.5529" speed="36.11111111111111" width="3.2505506856531254"/>
		<lane allow="moped bicycle pedestrian custom1 trailer evehicle rail_urban ship private truck vip custom2 authority delivery rail_electric taxi tram army hov coach motorcycle passenger bus rail emergency" index="2" length="81.38237465591564" shape="-39.346050000000005,26.91885 -37.786699999999996,25.40925 -34.7992,22.627200000000002 -31.9843,19.9212 -29.72955,17.84765 -26.8654,15.1142 -24.0021,12.521650000000001 -21.0952,9.858550000000001 -18.4846,7.4895 -15.5735,4.80155 -13.3275,2.7554 -10.42375,0.08405000000000007 -7.696350000000001,-2.3733 -4.77065,-5.04465 -2.12505,-7.41375 0.77515,-10.065850000000001 3.339,-12.3574 6.26755,-15.0253 8.53105,-16.99185 11.45885,-19.59355 14.221699999999998,-21.97855 17.160400000000003,-24.6343 19.599899999999998,-26.77715 20.9914,-28.038649999999997" speed="36.11111111111111" width="3.1897109727998862"/>
		<lane allow="moped bicycle pedestrian custom1 trailer evehicle rail_urban ship private vip custom2 authority delivery rail_electric taxi tram army hov coach motorcycle passenger rail emergency" index="3" length="81.38237465591564" shape="-37.04775,29.369149999999998 -35.473349999999996,27.79645 -35.2709,27.6035 -27.44855,20.315849999999998 -27.43605,20.303350000000002 -24.646250000000002,17.6107 -24.4666,17.4429 -16.47565,10.1908 -16.2128,9.94955 -13.59755,7.5108 -13.33425,7.2673000000000005 -5.62745,0.23485 -5.45765,0.07839999999999991 -2.7449500000000002,-2.4512 -2.6117,-2.57275 5.39845,-9.7406 5.57555,-9.90295 8.273950000000001,-12.41925 8.39555,-12.5291 16.43275,-19.45085 16.517049999999998,-19.527 19.37105,-22.186149999999998 19.48925,-22.2924 23.2085,-25.4984" speed="36.11111111111111" width="3.2118758662189935"/>
		<lane allow="moped bicycle pedestrian custom1 trailer evehicle rail_urban ship private truck vip custom2 authority delivery rail_electric taxi tram army hov coach motorcycle passenger rail emergency" index="4" length="81.38237465591564" shape="-34.67165,31.902299999999997 -32.86765,30.10035 -32.6304,29.871850000000002 -25.0017,22.71625 -24.7164,22.44945 -22.1079,20.01695 -21.8049,19.7372 -14.15945,12.7426 -13.8687,12.4741 -11.248000000000001,10.03035 -10.9468,9.7519 -3.3235,2.7594000000000003 -3.0330000000000004,2.4907 -0.4139,0.04855000000000009 -0.09294999999999998,-0.24364999999999992 7.684900000000001,-7.184950000000001 7.97725,-7.45165 10.6143,-9.90955 10.95065,-10.211950000000002 18.801099999999998,-17.07115 19.0948,-17.33625 21.7459,-19.80605 22.10865,-20.1248 25.444000000000003,-22.93705" speed="36.11111111111111" width="3.479396558312949"/>
	</edge>
	<edge from="2" function="normal" id="16" length="20.01678061165134" numLanes="6" priority="1" speed="36.11111111111111" spreadType="center" to="3">
		<lane allow="moped bicycle pedestrian custom1 trailer evehicle rail_urban ship private truck vip custom2 authority delivery rail_electric taxi tram army hov coach motorcycle passenger bus rail emergency" index="0" length="20.01678061165134" shape="14.055399999999999,-35.985600000000005 16.219649999999998,-37.840599999999995 16.94305,-38.48645 19.6129,-40.80045 20.33625,-41.4463 23.03835,-43.824600000000004 23.7617,-44.4705 26.479100000000003,-46.8591 27.20245,-47.50495 29.119500000000002,-49.16615" speed="36.11111111111111" width="3.7805607652833717"/>
		<lane allow="moped bicycle pedestrian custom1 trailer evehicle rail_urban ship private vip custom2 authority delivery rail_electric taxi tram army hov coach motorcycle passenger rail emergency" index="1" length="20.01678061165134" shape="16.52165,-33.1599 17.1275,-33.67675 18.70805,-35.07975 19.42095,-35.7373 20.0601,-36.30775 21.90485,-37.83385 22.55945,-38.3886 22.6724,-38.479699999999994 23.264699999999998,-38.97855 23.44615,-39.1436 25.539450000000002,-41.0373 25.56095,-41.057050000000004 26.25925,-41.7013 26.3522,-41.7849 28.915599999999998,-44.03885 29.5965,-44.64675 29.665999999999997,-44.707 31.66235,-46.4392" speed="36.11111111111111" width="3.5043532142179963"/>
		<lane allow="moped bicycle pedestrian custom1 trailer evehicle rail_urban ship private vip custom2 authority delivery rail_electric taxi tram army hov coach motorcycle passenger rail emergency" index="2" length="20.01678061165134" shape="18.797,-30.5529 19.40295,-31.099 20.28525,-31.9218 22.16135,-33.589749999999995 22.324199999999998,-33.7227 25.69585,-36.492999999999995 28.2201,-38.7311 28.326999999999998,-38.829750000000004 28.6967,-39.1703 28.75305,-39.22005 31.31995,-41.53775 34.042500000000004,-43.886849999999995" speed="36.11111111111111" width="3.2179854148208937"/>
		<lane allow="moped bicycle pedestrian custom1 trailer evehicle rail_urban ship private truck vip custom2 authority delivery rail_electric taxi tram army hov coach motorcycle passenger bus rail emergency" index="3" length="20.01678061165134" shape="20.9914,-28.038649999999997 22.4621,-29.3717 22.562350000000002,-29.45795 25.438650000000003,-31.9426 28.4008,-34.572100000000006 30.53615,-36.3767 33.3728,-38.8959 33.49135,-38.996700000000004 36.342349999999996,-41.420500000000004" speed="36.11111111111111" width="3.2068039681277716"/>
		<lane allow="moped bicycle pedestrian custom1 trailer evehicle rail_urban ship private vip custom2 authority delivery rail_electric taxi tram army hov coach motorcycle passenger rail emergency" index="4" length="20.01678061165134" shape="23.2085,-25.4984 27.51725,-29.21245 27.70975,-29.38785 30.38175,-31.8795 30.4429,-31.93655 30.569499999999998,-32.04445 38.65645,-38.939" speed="36.11111111111111" width="3.319580822935328"/>
		<lane allow="moped bicycle pedestrian custom1 trailer evehicle rail_urban ship private vip custom2 authority delivery rail_electric taxi tram army hov coach motorcycle passenger rail emergency" index="5" length="20.01678061165134" shape="25.444000000000003,-22.93705 29.77705,-26.590600000000002 30.00895,-26.79335 30.13395,-26.909599999999998 32.7452,-29.339 33.0976,-29.65245 40.994550000000004,-36.4317" speed="36.11111111111111" width="3.479396558312949"/>
	</edge>
	<edge from="4" function="normal" id="15" length="82.16384053222092" numLanes="1" priority="1" speed="36.11111111111111" spreadType="center" to="2">
		<lane allow="moped bicycle pedestrian custom1 trailer evehicle rail_urban ship private truck vip custom2 authority delivery rail_electric taxi tram army hov coach motorcycle passenger bus rail emergency" index="0" length="82.16384053222092" shape="-49.33385,16.270699999999998 -42.8532,11.2991 -36.41645,6.162 -31.2883,1.98805 -23.566699999999997,-4.2977 -21.91255,-5.664350000000001 -13.36095,-12.76765 -1.5158999999999998,-22.55305 -1.1947,-22.8185 4.66215,-27.80025 8.1221,-30.80515 14.055399999999999,-35.985600000000005" speed="36.11111111111111" width="3.6400067087850276"/>
	</edge>
</edges>
