<!-- generated on 2020-12-18 15:55:19.389681 by ipykernel_launcher.py v1_2_0+5214-53edc58fcd
-->
<nodes>
	<node id="1" type="from" x="-39.34382" y="26.921229999999998"/>
	<node id="2" type="to" x="20.992510000000003" y="-28.037380000000002"/>
	<node id="3" type="to" x="35.13628333333333" y="-42.713899999999995"/>
	<node id="4" type="from" x="-49.33385" y="16.270699999999998"/>
</nodes>
