<!-- generated on 2020-12-18 16:03:31.567853 by ipykernel_launcher.py v1_2_0+5214-53edc58fcd
-->
<connections>
	<connection contPos="-4.0" from="326" fromLane="0" keepClear="true" to="470" toLane="0"/>
	<connection contPos="-4.0" from="329" fromLane="0" keepClear="true" to="440" toLane="0"/>
	<connection contPos="-4.0" from="329" fromLane="0" keepClear="true" to="409" toLane="0"/>
	<connection contPos="-4.0" from="329" fromLane="0" keepClear="true" to="400" toLane="0"/>
	<connection contPos="-4.0" from="330" fromLane="0" keepClear="true" to="379" toLane="0"/>
	<connection contPos="-4.0" from="330" fromLane="0" keepClear="true" to="450" toLane="0"/>
	<connection contPos="-4.0" from="332" fromLane="0" keepClear="true" to="449" toLane="0"/>
	<connection contPos="-4.0" from="332" fromLane="0" keepClear="true" to="451" toLane="0"/>
	<connection contPos="-4.0" from="332" fromLane="0" keepClear="true" to="390" toLane="0"/>
	<connection contPos="-4.0" from="333" fromLane="0" keepClear="true" to="432" toLane="0"/>
	<connection contPos="-4.0" from="334" fromLane="0" keepClear="true" to="441" toLane="0"/>
	<connection contPos="-4.0" from="334" fromLane="0" keepClear="true" to="398" toLane="0"/>
	<connection contPos="-4.0" from="335" fromLane="0" keepClear="true" to="384" toLane="0"/>
	<connection contPos="-4.0" from="335" fromLane="0" keepClear="true" to="396" toLane="0"/>
	<connection contPos="-4.0" from="335" fromLane="0" keepClear="true" to="429" toLane="0"/>
	<connection contPos="-4.0" from="336" fromLane="0" keepClear="true" to="391" toLane="0"/>
	<connection contPos="-4.0" from="336" fromLane="0" keepClear="true" to="435" toLane="0"/>
	<connection contPos="-4.0" from="338" fromLane="0" keepClear="true" to="422" toLane="0"/>
	<connection contPos="-4.0" from="338" fromLane="0" keepClear="true" to="444" toLane="0"/>
	<connection contPos="-4.0" from="338" fromLane="0" keepClear="true" to="418" toLane="0"/>
	<connection contPos="-4.0" from="339" fromLane="0" keepClear="true" to="382" toLane="0"/>
	<connection contPos="-4.0" from="339" fromLane="0" keepClear="true" to="421" toLane="0"/>
	<connection contPos="-4.0" from="340" fromLane="0" keepClear="true" to="392" toLane="0"/>
	<connection contPos="-4.0" from="340" fromLane="0" keepClear="true" to="430" toLane="0"/>
	<connection contPos="-4.0" from="342" fromLane="0" keepClear="true" to="410" toLane="0"/>
	<connection contPos="-4.0" from="342" fromLane="0" keepClear="true" to="402" toLane="0"/>
	<connection contPos="-4.0" from="343" fromLane="0" keepClear="true" to="463" toLane="0"/>
	<connection contPos="-4.0" from="343" fromLane="0" keepClear="true" to="455" toLane="0"/>
	<connection contPos="-4.0" from="345" fromLane="0" keepClear="true" to="467" toLane="0"/>
	<connection contPos="-4.0" from="345" fromLane="0" keepClear="true" to="457" toLane="0"/>
	<connection contPos="-4.0" from="346" fromLane="0" keepClear="true" to="411" toLane="0"/>
	<connection contPos="-4.0" from="346" fromLane="0" keepClear="true" to="406" toLane="0"/>
	<connection contPos="-4.0" from="347" fromLane="0" keepClear="true" to="408" toLane="0"/>
	<connection contPos="-4.0" from="347" fromLane="0" keepClear="true" to="399" toLane="0"/>
	<connection contPos="-4.0" from="348" fromLane="0" keepClear="true" to="442" toLane="0"/>
	<connection contPos="-4.0" from="348" fromLane="0" keepClear="true" to="461" toLane="0"/>
	<connection contPos="-4.0" from="349" fromLane="0" keepClear="true" to="386" toLane="0"/>
	<connection contPos="-4.0" from="349" fromLane="0" keepClear="true" to="381" toLane="0"/>
	<connection contPos="-4.0" from="350" fromLane="0" keepClear="true" to="395" toLane="0"/>
	<connection contPos="-4.0" from="350" fromLane="0" keepClear="true" to="453" toLane="0"/>
	<connection contPos="-4.0" from="352" fromLane="0" keepClear="true" to="388" toLane="0"/>
	<connection contPos="-4.0" from="352" fromLane="0" keepClear="true" to="397" toLane="0"/>
	<connection contPos="-4.0" from="352" fromLane="0" keepClear="true" to="459" toLane="0"/>
	<connection contPos="-4.0" from="353" fromLane="0" keepClear="true" to="434" toLane="0"/>
	<connection contPos="-4.0" from="353" fromLane="0" keepClear="true" to="426" toLane="0"/>
	<connection contPos="-4.0" from="355" fromLane="0" keepClear="true" to="403" toLane="0"/>
	<connection contPos="-4.0" from="355" fromLane="0" keepClear="true" to="452" toLane="0"/>
	<connection contPos="-4.0" from="355" fromLane="0" keepClear="true" to="416" toLane="0"/>
	<connection contPos="-4.0" from="356" fromLane="0" keepClear="true" to="465" toLane="0"/>
	<connection contPos="-4.0" from="356" fromLane="0" keepClear="true" to="407" toLane="0"/>
	<connection contPos="-4.0" from="357" fromLane="0" keepClear="true" to="417" toLane="0"/>
	<connection contPos="-4.0" from="357" fromLane="0" keepClear="true" to="469" toLane="0"/>
	<connection contPos="-4.0" from="358" fromLane="0" keepClear="true" to="456" toLane="0"/>
	<connection contPos="-4.0" from="358" fromLane="0" keepClear="true" to="393" toLane="0"/>
	<connection contPos="-4.0" from="358" fromLane="0" keepClear="true" to="404" toLane="0"/>
	<connection contPos="-4.0" from="359" fromLane="0" keepClear="true" to="387" toLane="0"/>
	<connection contPos="-4.0" from="359" fromLane="0" keepClear="true" to="427" toLane="0"/>
	<connection contPos="-4.0" from="359" fromLane="0" keepClear="true" to="415" toLane="0"/>
	<connection contPos="-4.0" from="360" fromLane="0" keepClear="true" to="436" toLane="0"/>
	<connection contPos="-4.0" from="360" fromLane="0" keepClear="true" to="433" toLane="0"/>
	<connection contPos="-4.0" from="362" fromLane="0" keepClear="true" to="445" toLane="0"/>
	<connection contPos="-4.0" from="362" fromLane="0" keepClear="true" to="413" toLane="0"/>
	<connection contPos="-4.0" from="363" fromLane="0" keepClear="true" to="454" toLane="0"/>
	<connection contPos="-4.0" from="363" fromLane="0" keepClear="true" to="439" toLane="0"/>
	<connection contPos="-4.0" from="364" fromLane="0" keepClear="true" to="420" toLane="0"/>
	<connection contPos="-4.0" from="364" fromLane="0" keepClear="true" to="447" toLane="0"/>
	<connection contPos="-4.0" from="365" fromLane="0" keepClear="true" to="424" toLane="0"/>
	<connection contPos="-4.0" from="365" fromLane="0" keepClear="true" to="438" toLane="0"/>
	<connection contPos="-4.0" from="365" fromLane="0" keepClear="true" to="431" toLane="0"/>
	<connection contPos="-4.0" from="366" fromLane="0" keepClear="true" to="458" toLane="0"/>
	<connection contPos="-4.0" from="366" fromLane="0" keepClear="true" to="405" toLane="0"/>
	<connection contPos="-4.0" from="368" fromLane="0" keepClear="true" to="468" toLane="0"/>
	<connection contPos="-4.0" from="368" fromLane="0" keepClear="true" to="380" toLane="0"/>
	<connection contPos="-4.0" from="368" fromLane="0" keepClear="true" to="419" toLane="0"/>
	<connection contPos="-4.0" from="370" fromLane="0" keepClear="true" to="414" toLane="0"/>
	<connection contPos="-4.0" from="370" fromLane="0" keepClear="true" to="448" toLane="0"/>
	<connection contPos="-4.0" from="372" fromLane="0" keepClear="true" to="412" toLane="0"/>
	<connection contPos="-4.0" from="372" fromLane="0" keepClear="true" to="394" toLane="0"/>
	<connection contPos="-4.0" from="373" fromLane="0" keepClear="true" to="443" toLane="0"/>
	<connection contPos="-4.0" from="373" fromLane="0" keepClear="true" to="446" toLane="0"/>
	<connection contPos="-4.0" from="374" fromLane="0" keepClear="true" to="389" toLane="0"/>
	<connection contPos="-4.0" from="374" fromLane="0" keepClear="true" to="383" toLane="0"/>
	<connection contPos="-4.0" from="375" fromLane="0" keepClear="true" to="425" toLane="0"/>
	<connection contPos="-4.0" from="375" fromLane="0" keepClear="true" to="437" toLane="0"/>
	<connection contPos="-4.0" from="375" fromLane="0" keepClear="true" to="460" toLane="0"/>
	<connection contPos="-4.0" from="376" fromLane="0" keepClear="true" to="428" toLane="0"/>
	<connection contPos="-4.0" from="376" fromLane="0" keepClear="true" to="462" toLane="0"/>
	<connection contPos="-4.0" from="376" fromLane="0" keepClear="true" to="401" toLane="0"/>
	<connection contPos="-4.0" from="377" fromLane="0" keepClear="true" to="464" toLane="0"/>
	<connection contPos="-4.0" from="377" fromLane="0" keepClear="true" to="466" toLane="0"/>
	<connection contPos="-4.0" from="378" fromLane="0" keepClear="true" to="385" toLane="0"/>
	<connection contPos="-4.0" from="378" fromLane="0" keepClear="true" to="423" toLane="0"/>
	<connection contPos="-4.0" from="379" fromLane="0" keepClear="true" to="337" toLane="0"/>
	<connection contPos="-4.0" from="380" fromLane="0" keepClear="true" to="339" toLane="0"/>
	<connection contPos="-4.0" from="381" fromLane="0" keepClear="true" to="337" toLane="0"/>
	<connection contPos="-4.0" from="382" fromLane="0" keepClear="true" to="343" toLane="0"/>
	<connection contPos="-4.0" from="383" fromLane="0" keepClear="true" to="351" toLane="0"/>
	<connection contPos="-4.0" from="384" fromLane="0" keepClear="true" to="353" toLane="0"/>
	<connection contPos="-4.0" from="385" fromLane="0" keepClear="true" to="373" toLane="0"/>
	<connection contPos="-4.0" from="386" fromLane="0" keepClear="true" to="331" toLane="0"/>
	<connection contPos="-4.0" from="387" fromLane="0" keepClear="true" to="376" toLane="0"/>
	<connection contPos="-4.0" from="388" fromLane="0" keepClear="true" to="334" toLane="0"/>
	<connection contPos="-4.0" from="389" fromLane="0" keepClear="true" to="377" toLane="0"/>
	<connection contPos="-4.0" from="390" fromLane="0" keepClear="true" to="339" toLane="0"/>
	<connection contPos="-4.0" from="391" fromLane="0" keepClear="true" to="348" toLane="0"/>
	<connection contPos="-4.0" from="392" fromLane="0" keepClear="true" to="352" toLane="0"/>
	<connection contPos="-4.0" from="393" fromLane="0" keepClear="true" to="360" toLane="0"/>
	<connection contPos="-4.0" from="394" fromLane="0" keepClear="true" to="363" toLane="0"/>
	<connection contPos="-4.0" from="395" fromLane="0" keepClear="true" to="373" toLane="0"/>
	<connection contPos="-4.0" from="396" fromLane="0" keepClear="true" to="366" toLane="0"/>
	<connection contPos="-4.0" from="397" fromLane="0" keepClear="true" to="375" toLane="0"/>
	<connection contPos="-4.0" from="398" fromLane="0" keepClear="true" to="343" toLane="0"/>
	<connection contPos="-4.0" from="399" fromLane="0" keepClear="true" to="358" toLane="0"/>
	<connection contPos="-4.0" from="400" fromLane="0" keepClear="true" to="339" toLane="0"/>
	<connection contPos="-4.0" from="401" fromLane="0" keepClear="true" to="334" toLane="0"/>
	<connection contPos="-4.0" from="402" fromLane="0" keepClear="true" to="338" toLane="0"/>
	<connection contPos="-4.0" from="403" fromLane="0" keepClear="true" to="357" toLane="0"/>
	<connection contPos="-4.0" from="404" fromLane="0" keepClear="true" to="354" toLane="0"/>
	<connection contPos="-4.0" from="405" fromLane="0" keepClear="true" to="349" toLane="0"/>
	<connection contPos="-4.0" from="406" fromLane="0" keepClear="true" to="361" toLane="0"/>
	<connection contPos="-4.0" from="407" fromLane="0" keepClear="true" to="332" toLane="0"/>
	<connection contPos="-4.0" from="408" fromLane="0" keepClear="true" to="369" toLane="0"/>
	<connection contPos="-4.0" from="409" fromLane="0" keepClear="true" to="333" toLane="0"/>
	<connection contPos="-4.0" from="410" fromLane="0" keepClear="true" to="335" toLane="0"/>
	<connection contPos="-4.0" from="411" fromLane="0" keepClear="true" to="342" toLane="0"/>
	<connection contPos="-4.0" from="412" fromLane="0" keepClear="true" to="374" toLane="0"/>
	<connection contPos="-4.0" from="413" fromLane="0" keepClear="true" to="347" toLane="0"/>
	<connection contPos="-4.0" from="414" fromLane="0" keepClear="true" to="358" toLane="0"/>
	<connection contPos="-4.0" from="415" fromLane="0" keepClear="true" to="357" toLane="0"/>
	<connection contPos="-4.0" from="416" fromLane="0" keepClear="true" to="360" toLane="0"/>
	<connection contPos="-4.0" from="417" fromLane="0" keepClear="true" to="369" toLane="0"/>
	<connection contPos="-4.0" from="418" fromLane="0" keepClear="true" to="367" toLane="0"/>
	<connection contPos="-4.0" from="419" fromLane="0" keepClear="true" to="333" toLane="0"/>
	<connection contPos="-4.0" from="420" fromLane="0" keepClear="true" to="371" toLane="0"/>
	<connection contPos="-4.0" from="421" fromLane="0" keepClear="true" to="335" toLane="0"/>
	<connection contPos="-4.0" from="422" fromLane="0" keepClear="true" to="333" toLane="0"/>
	<connection contPos="-4.0" from="423" fromLane="0" keepClear="true" to="351" toLane="0"/>
	<connection contPos="-4.0" from="424" fromLane="0" keepClear="true" to="353" toLane="0"/>
	<connection contPos="-4.0" from="425" fromLane="0" keepClear="true" to="360" toLane="0"/>
	<connection contPos="-4.0" from="426" fromLane="0" keepClear="true" to="341" toLane="0"/>
	<connection contPos="-4.0" from="427" fromLane="0" keepClear="true" to="354" toLane="0"/>
	<connection contPos="-4.0" from="428" fromLane="0" keepClear="true" to="366" toLane="0"/>
	<connection contPos="-4.0" from="429" fromLane="0" keepClear="true" to="375" toLane="0"/>
	<connection contPos="-4.0" from="430" fromLane="0" keepClear="true" to="364" toLane="0"/>
	<connection contPos="-4.0" from="431" fromLane="0" keepClear="true" to="375" toLane="0"/>
	<connection contPos="-4.0" from="432" fromLane="0" keepClear="true" to="327" toLane="0"/>
	<connection contPos="-4.0" from="433" fromLane="0" keepClear="true" to="378" toLane="0"/>
	<connection contPos="-4.0" from="434" fromLane="0" keepClear="true" to="364" toLane="0"/>
	<connection contPos="-4.0" from="435" fromLane="0" keepClear="true" to="331" toLane="0"/>
	<connection contPos="-4.0" from="436" fromLane="0" keepClear="true" to="344" toLane="0"/>
	<connection contPos="-4.0" from="437" fromLane="0" keepClear="true" to="357" toLane="0"/>
	<connection contPos="-4.0" from="438" fromLane="0" keepClear="true" to="334" toLane="0"/>
	<connection contPos="-4.0" from="439" fromLane="0" keepClear="true" to="341" toLane="0"/>
	<connection contPos="-4.0" from="440" fromLane="0" keepClear="true" to="367" toLane="0"/>
	<connection contPos="-4.0" from="441" fromLane="0" keepClear="true" to="338" toLane="0"/>
	<connection contPos="-4.0" from="442" fromLane="0" keepClear="true" to="356" toLane="0"/>
	<connection contPos="-4.0" from="443" fromLane="0" keepClear="true" to="363" toLane="0"/>
	<connection contPos="-4.0" from="444" fromLane="0" keepClear="true" to="328" toLane="0"/>
	<connection contPos="-4.0" from="445" fromLane="0" keepClear="true" to="342" toLane="0"/>
	<connection contPos="-4.0" from="446" fromLane="0" keepClear="true" to="371" toLane="0"/>
	<connection contPos="-4.0" from="447" fromLane="0" keepClear="true" to="374" toLane="0"/>
	<connection contPos="-4.0" from="448" fromLane="0" keepClear="true" to="346" toLane="0"/>
	<connection contPos="-4.0" from="449" fromLane="0" keepClear="true" to="328" toLane="0"/>
	<connection contPos="-4.0" from="450" fromLane="0" keepClear="true" to="348" toLane="0"/>
	<connection contPos="-4.0" from="451" fromLane="0" keepClear="true" to="367" toLane="0"/>
	<connection contPos="-4.0" from="452" fromLane="0" keepClear="true" to="376" toLane="0"/>
	<connection contPos="-4.0" from="453" fromLane="0" keepClear="true" to="377" toLane="0"/>
	<connection contPos="-4.0" from="454" fromLane="0" keepClear="true" to="352" toLane="0"/>
	<connection contPos="-4.0" from="455" fromLane="0" keepClear="true" to="361" toLane="0"/>
	<connection contPos="-4.0" from="456" fromLane="0" keepClear="true" to="376" toLane="0"/>
	<connection contPos="-4.0" from="457" fromLane="0" keepClear="true" to="378" toLane="0"/>
	<connection contPos="-4.0" from="458" fromLane="0" keepClear="true" to="356" toLane="0"/>
	<connection contPos="-4.0" from="459" fromLane="0" keepClear="true" to="366" toLane="0"/>
	<connection contPos="-4.0" from="460" fromLane="0" keepClear="true" to="354" toLane="0"/>
	<connection contPos="-4.0" from="461" fromLane="0" keepClear="true" to="365" toLane="0"/>
	<connection contPos="-4.0" from="462" fromLane="0" keepClear="true" to="353" toLane="0"/>
	<connection contPos="-4.0" from="463" fromLane="0" keepClear="true" to="347" toLane="0"/>
	<connection contPos="-4.0" from="464" fromLane="0" keepClear="true" to="359" toLane="0"/>
	<connection contPos="-4.0" from="465" fromLane="0" keepClear="true" to="327" toLane="0"/>
	<connection contPos="-4.0" from="466" fromLane="0" keepClear="true" to="344" toLane="0"/>
	<connection contPos="-4.0" from="467" fromLane="0" keepClear="true" to="359" toLane="0"/>
	<connection contPos="-4.0" from="468" fromLane="0" keepClear="true" to="328" toLane="0"/>
	<connection contPos="-4.0" from="469" fromLane="0" keepClear="true" to="346" toLane="0"/>
	<connection contPos="-4.0" from="470" fromLane="0" keepClear="true" to="332" toLane="0"/>
</connections>
