<?xml version="1.0" encoding="UTF-8"?>

<!-- generated on Fri Dec 18 16:03:31 2020 by Eclipse SUMO netconvert Version 1.8.0
<configuration xmlns:xsi="http://www.w3.org/2001/XMLSchema-instance" xsi:noNamespaceSchemaLocation="http://sumo.dlr.de/xsd/netconvertConfiguration.xsd">

    <input>
        <node-files value="./converted_scenarios/SUMO/DEU_Muc-25_1_I-1-1/nodes.net.xml"/>
        <edge-files value="./converted_scenarios/SUMO/DEU_Muc-25_1_I-1-1/edges.net.xml"/>
        <connection-files value="./converted_scenarios/SUMO/DEU_Muc-25_1_I-1-1/_connections.net.xml"/>
        <tllogic-files value="./converted_scenarios/SUMO/DEU_Muc-25_1_I-1-1/_tll.net.xml"/>
    </input>

    <output>
        <output-file value="./converted_scenarios/SUMO/DEU_Muc-25_1_I-1-1/DEU_Muc-25_1_I-1-1.net.xml"/>
    </output>

    <processing>
        <plain.extend-edge-shape value="true"/>
        <geometry.remove.keep-edges.explicit value="true"/>
        <geometry.avoid-overlap value="true"/>
        <offset.disable-normalization value="true"/>
    </processing>

    <junctions>
        <no-turnarounds value="true"/>
        <junctions.internal-link-detail value="20"/>
    </junctions>

    <report>
        <aggregate-warnings value="5"/>
    </report>

    <random_number>
        <seed value="1234"/>
    </random_number>

</configuration>
-->

<net version="1.6" junctionCornerDetail="5" junctionLinkDetail="20" limitTurnSpeed="5.50" xmlns:xsi="http://www.w3.org/2001/XMLSchema-instance" xsi:noNamespaceSchemaLocation="http://sumo.dlr.de/xsd/net_file.xsd">

    <location netOffset="0.00,0.00" convBoundary="-254.40,-244.79,275.00,239.41" origBoundary="-254.40,-244.79,275.00,239.41" projParameter="!"/>

    <edge id=":10_0" function="internal">
        <lane id=":10_0_0" index="0" disallow="bus truck rail_fast" speed="36.11" length="9.35" width="2.50" shape="-107.13,173.51 -106.61,173.04 -106.15,172.62 -105.73,172.23 -105.34,171.88 -105.00,171.56 -104.68,171.27 -104.38,170.99 -104.10,170.72 -103.83,170.46 -103.57,170.20 -103.31,169.93 -103.04,169.65 -102.77,169.36 -102.47,169.04 -102.16,168.69 -101.82,168.30 -101.44,167.87 -101.03,167.39 -100.57,166.87"/>
    </edge>
    <edge id=":10_1" function="internal">
        <lane id=":10_1_0" index="0" disallow="bus truck rail_fast" speed="8.75" length="9.86" width="2.50" shape="-107.13,173.51 -106.54,172.99 -105.97,172.49 -105.42,172.03 -104.88,171.60 -104.36,171.21 -103.85,170.84 -103.36,170.51 -102.88,170.22 -102.42,169.95 -101.98,169.72 -101.55,169.52 -101.13,169.35 -100.73,169.22 -100.35,169.12 -99.98,169.05 -99.63,169.02 -99.29,169.01 -98.97,169.04 -98.66,169.11"/>
    </edge>
    <edge id=":100_0" function="internal">
        <lane id=":100_0_0" index="0" disallow="bus truck rail_fast" speed="5.92" length="7.61" width="2.50" shape="99.48,-153.23 99.86,-153.88 100.21,-154.49 100.53,-155.08 100.82,-155.63 101.09,-156.15 101.34,-156.64 101.56,-157.10 101.75,-157.52 101.92,-157.92 102.06,-158.28 102.17,-158.61 102.26,-158.91 102.33,-159.17 102.36,-159.41 102.37,-159.61 102.36,-159.78 102.32,-159.92 102.26,-160.02 102.16,-160.10"/>
    </edge>
    <edge id=":100_1" function="internal">
        <lane id=":100_1_0" index="0" disallow="rail_fast" speed="36.11" length="9.65" width="2.50" shape="99.48,-153.23 104.30,-161.59"/>
    </edge>
    <edge id=":100_2" function="internal">
        <lane id=":100_2_0" index="0" disallow="bus truck rail_fast" speed="8.39" length="9.34" width="2.50" shape="99.48,-153.23 99.88,-153.89 100.26,-154.52 100.64,-155.11 101.01,-155.66 101.38,-156.18 101.74,-156.67 102.09,-157.11 102.43,-157.53 102.77,-157.91 103.10,-158.25 103.43,-158.55 103.75,-158.82 104.06,-159.06 104.36,-159.26 104.66,-159.42 104.95,-159.55 105.24,-159.65 105.52,-159.70 105.79,-159.72"/>
    </edge>
    <edge id=":101_0" function="internal">
        <lane id=":101_0_0" index="0" disallow="bus truck rail_fast" speed="25.00" length="6.39" width="2.50" shape="105.91,-157.16 105.55,-156.85 105.23,-156.56 104.94,-156.30 104.67,-156.06 104.44,-155.85 104.22,-155.64 104.02,-155.44 103.84,-155.25 103.66,-155.06 103.50,-154.87 103.34,-154.67 103.18,-154.46 103.02,-154.23 102.85,-153.98 102.68,-153.71 102.49,-153.41 102.29,-153.08 102.07,-152.71 101.83,-152.30"/>
    </edge>
    <edge id=":101_1" function="internal">
        <lane id=":101_1_0" index="0" disallow="rail_fast" speed="36.11" length="8.75" width="2.50" shape="106.20,-159.88 101.83,-152.30"/>
    </edge>
    <edge id=":101_2" function="internal">
        <lane id=":101_2_0" index="0" disallow="bus truck rail_fast" speed="11.24" length="8.19" width="2.50" shape="103.89,-159.98 103.94,-159.38 103.99,-158.84 104.01,-158.35 104.02,-157.90 104.01,-157.49 103.99,-157.11 103.95,-156.76 103.89,-156.42 103.81,-156.10 103.71,-155.79 103.59,-155.47 103.45,-155.15 103.29,-154.83 103.10,-154.48 102.90,-154.11 102.67,-153.72 102.42,-153.29 102.14,-152.81 101.83,-152.30"/>
    </edge>
    <edge id=":102_0" function="internal">
        <lane id=":102_0_0" index="0" disallow="bus truck rail_fast" speed="6.25" length="7.19" width="2.50" shape="-12.53,44.49 -12.88,45.08 -13.20,45.65 -13.49,46.19 -13.77,46.70 -14.02,47.19 -14.24,47.64 -14.45,48.07 -14.63,48.47 -14.79,48.84 -14.92,49.19 -15.03,49.50 -15.12,49.79 -15.18,50.05 -15.23,50.28 -15.24,50.48 -15.24,50.66 -15.21,50.80 -15.16,50.92 -15.09,51.01"/>
    </edge>
    <edge id=":102_1" function="internal">
        <lane id=":102_1_0" index="0" disallow="bus truck rail_fast" speed="36.11" length="9.47" width="2.50" shape="-12.53,44.49 -17.40,52.60"/>
    </edge>
    <edge id=":102_2" function="internal">
        <lane id=":102_2_0" index="0" disallow="bus truck rail_fast" speed="8.18" length="9.37" width="2.50" shape="-12.53,44.49 -12.93,45.16 -13.32,45.79 -13.70,46.38 -14.08,46.94 -14.45,47.47 -14.81,47.95 -15.16,48.40 -15.51,48.82 -15.85,49.19 -16.19,49.53 -16.51,49.84 -16.83,50.10 -17.15,50.33 -17.46,50.53 -17.76,50.68 -18.05,50.80 -18.33,50.89 -18.61,50.93 -18.89,50.94"/>
    </edge>
    <edge id=":103_0" function="internal">
        <lane id=":103_0_0" index="0" disallow="bus truck rail_fast" speed="11.16" length="5.89" width="2.50" shape="146.19,-138.96 146.05,-139.37 145.92,-139.75 145.80,-140.09 145.70,-140.40 145.60,-140.69 145.51,-140.95 145.41,-141.20 145.32,-141.43 145.22,-141.64 145.10,-141.85 144.98,-142.06 144.84,-142.26 144.69,-142.46 144.51,-142.67 144.31,-142.88 144.08,-143.11 143.82,-143.35 143.53,-143.61 143.20,-143.89"/>
    </edge>
    <edge id=":103_1" function="internal">
        <lane id=":103_1_0" index="0" disallow="bus truck rail_fast" speed="36.11" length="6.88" width="2.50" shape="148.94,-140.13 148.49,-140.38 148.09,-140.61 147.72,-140.81 147.39,-140.99 147.08,-141.16 146.80,-141.32 146.54,-141.46 146.29,-141.60 146.05,-141.74 145.82,-141.89 145.59,-142.04 145.36,-142.20 145.11,-142.37 144.85,-142.56 144.58,-142.77 144.28,-143.00 143.96,-143.27 143.60,-143.56 143.20,-143.89"/>
    </edge>
    <edge id=":104_0" function="internal">
        <lane id=":104_0_0" index="0" disallow="bus truck rail_fast" speed="36.11" length="3.97" width="2.50" shape="143.05,-144.02 142.82,-144.21 142.62,-144.38 142.43,-144.53 142.26,-144.66 142.10,-144.78 141.95,-144.89 141.80,-144.98 141.66,-145.07 141.53,-145.15 141.39,-145.23 141.25,-145.30 141.10,-145.37 140.94,-145.45 140.77,-145.52 140.59,-145.61 140.39,-145.70 140.17,-145.80 139.93,-145.91 139.66,-146.03"/>
    </edge>
    <edge id=":104_1" function="internal">
        <lane id=":104_1_0" index="0" disallow="bus truck rail_fast" speed="6.64" length="5.18" width="2.50" shape="143.05,-144.02 142.83,-144.21 142.62,-144.41 142.43,-144.62 142.25,-144.83 142.08,-145.04 141.93,-145.26 141.79,-145.49 141.66,-145.72 141.55,-145.95 141.45,-146.19 141.36,-146.44 141.29,-146.69 141.23,-146.95 141.18,-147.21 141.15,-147.48 141.13,-147.75 141.12,-148.03 141.13,-148.32 141.15,-148.61"/>
    </edge>
    <edge id=":105_0" function="internal">
        <lane id=":105_0_0" index="0" disallow="bus truck rail_fast" speed="13.63" length="4.45" width="2.49" shape="143.32,-148.35 143.48,-148.06 143.62,-147.80 143.74,-147.56 143.86,-147.34 143.97,-147.14 144.06,-146.95 144.16,-146.78 144.25,-146.62 144.35,-146.47 144.45,-146.32 144.56,-146.18 144.67,-146.04 144.80,-145.89 144.95,-145.74 145.11,-145.59 145.29,-145.43 145.49,-145.25 145.72,-145.06 145.98,-144.85"/>
    </edge>
    <edge id=":105_1" function="internal">
        <lane id=":105_1_0" index="0" disallow="bus truck rail_fast" speed="36.11" length="6.22" width="2.49" shape="140.80,-148.29 141.20,-148.05 141.57,-147.84 141.89,-147.65 142.19,-147.48 142.46,-147.33 142.72,-147.18 142.95,-147.04 143.17,-146.91 143.38,-146.78 143.59,-146.64 143.79,-146.51 144.00,-146.36 144.23,-146.20 144.46,-146.03 144.71,-145.84 144.98,-145.63 145.28,-145.40 145.61,-145.14 145.98,-144.85"/>
    </edge>
    <edge id=":106_0" function="internal">
        <lane id=":106_0_0" index="0" disallow="bus truck rail_fast" speed="36.11" length="4.70" width="2.49" shape="146.13,-144.73 146.41,-144.51 146.66,-144.32 146.89,-144.15 147.10,-144.00 147.29,-143.87 147.48,-143.75 147.65,-143.64 147.82,-143.54 147.98,-143.45 148.15,-143.36 148.31,-143.28 148.49,-143.19 148.67,-143.10 148.87,-143.00 149.08,-142.89 149.31,-142.77 149.56,-142.64 149.84,-142.49 150.15,-142.32"/>
    </edge>
    <edge id=":106_1" function="internal">
        <lane id=":106_1_0" index="0" disallow="bus truck rail_fast" speed="9.25" length="5.85" width="2.49" shape="146.13,-144.73 146.46,-144.46 146.75,-144.21 146.99,-143.97 147.21,-143.74 147.39,-143.52 147.55,-143.30 147.68,-143.09 147.79,-142.87 147.88,-142.66 147.96,-142.43 148.02,-142.20 148.08,-141.95 148.14,-141.69 148.19,-141.40 148.25,-141.10 148.31,-140.78 148.38,-140.42 148.46,-140.04 148.56,-139.62"/>
    </edge>
    <edge id=":11_0" function="internal">
        <lane id=":11_0_0" index="0" disallow="bus truck rail_fast" speed="15.81" length="7.64" width="2.50" shape="-99.01,171.42 -99.55,171.60 -100.03,171.76 -100.47,171.91 -100.86,172.06 -101.22,172.20 -101.55,172.34 -101.85,172.48 -102.13,172.63 -102.39,172.78 -102.65,172.95 -102.90,173.12 -103.16,173.32 -103.42,173.53 -103.69,173.76 -103.98,174.02 -104.29,174.30 -104.64,174.62 -105.01,174.97 -105.43,175.35"/>
    </edge>
    <edge id=":11_1" function="internal">
        <lane id=":11_1_0" index="0" disallow="bus truck rail_fast" speed="36.11" length="9.60" width="2.50" shape="-98.70,168.52 -99.17,169.06 -99.59,169.55 -99.98,169.99 -100.33,170.39 -100.65,170.75 -100.95,171.08 -101.24,171.38 -101.51,171.67 -101.78,171.94 -102.05,172.21 -102.32,172.48 -102.61,172.75 -102.91,173.04 -103.24,173.34 -103.60,173.67 -103.99,174.03 -104.42,174.43 -104.90,174.86 -105.43,175.35"/>
    </edge>
    <edge id=":13_0" function="internal">
        <lane id=":13_0_0" index="0" disallow="bus truck rail_fast" speed="9.47" length="7.95" width="2.50" shape="-189.80,88.45 -190.08,87.94 -190.32,87.48 -190.52,87.05 -190.70,86.66 -190.84,86.29 -190.95,85.93 -191.03,85.60 -191.09,85.27 -191.12,84.95 -191.13,84.62 -191.11,84.29 -191.07,83.96 -191.02,83.60 -190.94,83.22 -190.85,82.82 -190.74,82.39 -190.61,81.92 -190.48,81.41 -190.33,80.86"/>
    </edge>
    <edge id=":13_1" function="internal">
        <lane id=":13_1_0" index="0" disallow="rail_fast" speed="36.11" length="9.70" width="2.50" shape="-192.74,90.26 -190.33,80.86"/>
    </edge>
    <edge id=":14_0" function="internal">
        <lane id=":14_0_0" index="0" disallow="bus truck rail_fast" speed="6.21" length="7.45" width="2.50" shape="-172.36,12.76 -172.18,12.07 -172.02,11.42 -171.87,10.80 -171.74,10.22 -171.63,9.67 -171.54,9.16 -171.46,8.68 -171.39,8.23 -171.35,7.82 -171.32,7.44 -171.30,7.09 -171.30,6.78 -171.32,6.51 -171.36,6.27 -171.41,6.06 -171.48,5.89 -171.56,5.75 -171.66,5.65 -171.78,5.58"/>
    </edge>
    <edge id=":14_1" function="internal">
        <lane id=":14_1_0" index="0" disallow="bus truck rail_fast" speed="36.11" length="9.27" width="2.50" shape="-172.36,12.76 -169.84,3.84"/>
    </edge>
    <edge id=":14_2" function="internal">
        <lane id=":14_2_0" index="0" disallow="bus truck rail_fast" speed="7.45" length="9.35" width="2.50" shape="-172.36,12.76 -172.14,11.96 -171.92,11.20 -171.70,10.49 -171.48,9.81 -171.26,9.18 -171.04,8.59 -170.82,8.05 -170.60,7.54 -170.38,7.08 -170.16,6.66 -169.94,6.29 -169.71,5.95 -169.49,5.66 -169.26,5.41 -169.04,5.21 -168.81,5.05 -168.59,4.92 -168.36,4.85 -168.13,4.81"/>
    </edge>
    <edge id=":15_0" function="internal">
        <lane id=":15_0_0" index="0" disallow="bus truck rail_fast" speed="36.11" length="6.22" width="2.50" shape="-167.74,7.51 -167.94,7.93 -168.11,8.31 -168.27,8.66 -168.41,8.97 -168.55,9.26 -168.66,9.52 -168.77,9.77 -168.88,10.01 -168.97,10.24 -169.06,10.47 -169.15,10.70 -169.23,10.94 -169.32,11.20 -169.40,11.47 -169.49,11.77 -169.59,12.10 -169.69,12.47 -169.80,12.87 -169.92,13.32"/>
    </edge>
    <edge id=":15_1" function="internal">
        <lane id=":15_1_0" index="0" disallow="bus truck rail_fast" speed="36.11" length="8.86" width="2.50" shape="-167.54,4.79 -169.92,13.32"/>
    </edge>
    <edge id=":15_2" function="internal">
        <lane id=":15_2_0" index="0" disallow="bus truck rail_fast" speed="22.81" length="8.08" width="2.50" shape="-169.34,5.34 -169.29,5.94 -169.24,6.48 -169.19,6.97 -169.16,7.42 -169.13,7.83 -169.11,8.20 -169.10,8.56 -169.10,8.89 -169.10,9.22 -169.12,9.54 -169.16,9.86 -169.20,10.19 -169.26,10.54 -169.33,10.91 -169.41,11.31 -169.51,11.74 -169.63,12.22 -169.77,12.74 -169.92,13.32"/>
    </edge>
    <edge id=":16_0" function="internal">
        <lane id=":16_0_0" index="0" disallow="rail_fast" speed="36.11" length="3.00" width="2.50" shape="-188.03,81.95 -188.78,84.85"/>
    </edge>
    <edge id=":17_0" function="internal">
        <lane id=":17_0_0" index="0" disallow="bus truck rail_fast" speed="36.11" length="1.93" width="2.50" shape="-26.56,49.89 -28.38,49.24"/>
    </edge>
    <edge id=":17_1" function="internal">
        <lane id=":17_1_0" index="0" disallow="bus truck rail_fast" speed="36.11" length="10.38" width="2.50" shape="-18.74,53.09 -28.38,49.24"/>
    </edge>
    <edge id=":17_2" function="internal">
        <lane id=":17_2_0" index="0" disallow="bus truck rail_fast" speed="31.91" length="9.52" width="2.50" shape="-19.09,50.94 -19.79,50.92 -20.43,50.90 -21.01,50.88 -21.54,50.86 -22.02,50.83 -22.46,50.80 -22.88,50.76 -23.27,50.72 -23.65,50.67 -24.02,50.60 -24.39,50.52 -24.78,50.43 -25.18,50.32 -25.60,50.19 -26.06,50.05 -26.56,49.88 -27.11,49.69 -27.71,49.48 -28.38,49.24"/>
    </edge>
    <edge id=":18_0" function="internal">
        <lane id=":18_0_0" index="0" disallow="bus truck rail_fast" speed="36.11" length="9.02" width="2.50" shape="-77.44,31.74 -85.98,28.84"/>
    </edge>
    <edge id=":18_1" function="internal">
        <lane id=":18_1_0" index="0" disallow="bus truck rail_fast" speed="8.37" length="9.84" width="2.50" shape="-77.44,31.74 -78.14,31.48 -78.80,31.22 -79.43,30.95 -80.02,30.67 -80.58,30.39 -81.11,30.11 -81.60,29.81 -82.05,29.51 -82.47,29.21 -82.86,28.90 -83.21,28.58 -83.53,28.26 -83.81,27.93 -84.05,27.59 -84.27,27.25 -84.45,26.90 -84.59,26.55 -84.70,26.19 -84.77,25.83"/>
    </edge>
    <edge id=":19_0" function="internal">
        <lane id=":19_0_0" index="0" disallow="bus truck rail_fast" speed="23.74" length="6.91" width="2.50" shape="-82.54,26.04 -82.14,26.36 -81.78,26.65 -81.45,26.91 -81.15,27.14 -80.87,27.35 -80.61,27.54 -80.36,27.72 -80.12,27.87 -79.88,28.02 -79.65,28.15 -79.40,28.28 -79.14,28.41 -78.87,28.53 -78.57,28.66 -78.25,28.78 -77.89,28.92 -77.50,29.07 -77.06,29.22 -76.58,29.40"/>
    </edge>
    <edge id=":19_1" function="internal">
        <lane id=":19_1_0" index="0" disallow="bus truck rail_fast" speed="36.11" length="9.08" width="2.50" shape="-85.17,26.47 -76.58,29.40"/>
    </edge>
    <edge id=":2_0" function="internal">
        <lane id=":2_0_0" index="0" disallow="rail_fast" speed="36.11" length="2.99" width="2.50" shape="-194.29,96.45 -193.57,93.54"/>
    </edge>
    <edge id=":20_0" function="internal">
        <lane id=":20_0_0" index="0" disallow="bus truck rail_fast" speed="7.71" length="8.29" width="2.50" shape="-27.15,47.03 -26.44,47.28 -25.76,47.51 -25.11,47.72 -24.50,47.92 -23.91,48.09 -23.36,48.24 -22.85,48.38 -22.36,48.50 -21.91,48.59 -21.49,48.67 -21.10,48.73 -20.75,48.77 -20.42,48.79 -20.13,48.79 -19.87,48.78 -19.64,48.74 -19.45,48.69 -19.29,48.61 -19.16,48.52"/>
    </edge>
    <edge id=":20_1" function="internal">
        <lane id=":20_1_0" index="0" disallow="bus truck rail_fast" speed="36.11" length="9.10" width="2.50" shape="-27.15,47.03 -18.68,50.37"/>
    </edge>
    <edge id=":20_2" function="internal">
        <lane id=":20_2_0" index="0" disallow="bus truck rail_fast" speed="7.66" length="9.56" width="2.50" shape="-27.15,47.03 -26.39,47.31 -25.68,47.58 -25.01,47.86 -24.38,48.14 -23.79,48.42 -23.24,48.70 -22.73,48.98 -22.26,49.26 -21.83,49.54 -21.44,49.83 -21.10,50.11 -20.79,50.39 -20.52,50.68 -20.29,50.97 -20.11,51.25 -19.96,51.54 -19.86,51.83 -19.79,52.12 -19.77,52.41"/>
    </edge>
    <edge id=":22_0" function="internal">
        <lane id=":22_0_0" index="0" disallow="bus truck rail_fast" speed="6.99" length="6.49" width="2.50" shape="-93.46,174.77 -93.89,174.39 -94.31,174.02 -94.71,173.68 -95.09,173.36 -95.45,173.07 -95.80,172.80 -96.13,172.55 -96.45,172.32 -96.75,172.12 -97.03,171.94 -97.30,171.78 -97.54,171.65 -97.78,171.54 -97.99,171.45 -98.19,171.39 -98.37,171.35 -98.54,171.33 -98.69,171.33 -98.82,171.36"/>
    </edge>
    <edge id=":22_1" function="internal">
        <lane id=":22_1_0" index="0" disallow="bus truck rail_fast" speed="10.06" length="7.66" width="2.50" shape="-93.46,174.77 -93.88,174.41 -94.28,174.08 -94.65,173.79 -95.00,173.53 -95.33,173.29 -95.64,173.07 -95.94,172.86 -96.21,172.65 -96.46,172.45 -96.69,172.24 -96.91,172.01 -97.11,171.77 -97.29,171.50 -97.45,171.20 -97.60,170.86 -97.74,170.48 -97.85,170.06 -97.96,169.58 -98.05,169.04"/>
    </edge>
    <edge id=":23_0" function="internal">
        <lane id=":23_0_0" index="0" disallow="bus truck rail_fast" speed="36.11" length="7.64" width="2.50" shape="-96.24,168.31 -95.86,168.74 -95.52,169.13 -95.21,169.48 -94.93,169.79 -94.68,170.08 -94.44,170.34 -94.21,170.59 -93.99,170.82 -93.78,171.04 -93.57,171.25 -93.35,171.46 -93.12,171.68 -92.88,171.91 -92.62,172.15 -92.34,172.42 -92.03,172.70 -91.68,173.01 -91.30,173.36 -90.87,173.74"/>
    </edge>
    <edge id=":23_1" function="internal">
        <lane id=":23_1_0" index="0" disallow="bus truck rail_fast" speed="15.39" length="9.03" width="2.50" shape="-98.47,169.16 -97.83,169.33 -97.25,169.50 -96.73,169.66 -96.26,169.82 -95.83,169.98 -95.45,170.14 -95.09,170.31 -94.76,170.48 -94.45,170.67 -94.15,170.87 -93.85,171.08 -93.56,171.32 -93.25,171.58 -92.93,171.86 -92.59,172.17 -92.22,172.51 -91.81,172.88 -91.37,173.29 -90.87,173.74"/>
    </edge>
    <edge id=":25_0" function="internal">
        <lane id=":25_0_0" index="0" disallow="bus truck rail_fast" speed="36.11" length="8.53" width="2.50" shape="-86.17,28.78 -94.35,26.35"/>
    </edge>
    <edge id=":25_1" function="internal">
        <lane id=":25_1_0" index="0" disallow="bus truck rail_fast" speed="11.27" length="9.37" width="2.50" shape="-85.32,25.98 -85.94,26.25 -86.52,26.48 -87.04,26.69 -87.53,26.86 -87.98,27.00 -88.40,27.11 -88.80,27.20 -89.19,27.26 -89.57,27.29 -89.95,27.30 -90.33,27.28 -90.73,27.24 -91.14,27.17 -91.57,27.08 -92.04,26.98 -92.55,26.85 -93.10,26.70 -93.70,26.54 -94.35,26.35"/>
    </edge>
    <edge id=":26_0" function="internal">
        <lane id=":26_0_0" index="0" disallow="bus truck rail_fast" speed="6.22" length="7.40" width="2.50" shape="-160.54,7.93 -161.21,7.75 -161.85,7.58 -162.46,7.43 -163.04,7.30 -163.58,7.18 -164.09,7.08 -164.56,7.00 -165.00,6.93 -165.41,6.88 -165.79,6.85 -166.13,6.84 -166.44,6.84 -166.71,6.86 -166.95,6.89 -167.16,6.95 -167.34,7.02 -167.48,7.10 -167.59,7.21 -167.66,7.33"/>
    </edge>
    <edge id=":26_1" function="internal">
        <lane id=":26_1_0" index="0" disallow="bus truck rail_fast" speed="36.11" length="8.80" width="2.50" shape="-160.54,7.93 -169.04,5.67"/>
    </edge>
    <edge id=":26_2" function="internal">
        <lane id=":26_2_0" index="0" disallow="bus truck rail_fast" speed="7.69" length="8.78" width="2.50" shape="-160.54,7.93 -161.24,7.73 -161.90,7.53 -162.53,7.32 -163.12,7.11 -163.68,6.90 -164.20,6.68 -164.69,6.46 -165.14,6.24 -165.55,6.01 -165.93,5.78 -166.28,5.55 -166.59,5.31 -166.86,5.07 -167.10,4.83 -167.31,4.59 -167.47,4.34 -167.61,4.09 -167.70,3.83 -167.77,3.58"/>
    </edge>
    <edge id=":27_0" function="internal">
        <lane id=":27_0_0" index="0" disallow="bus truck rail_fast" speed="36.11" length="6.17" width="2.50" shape="-165.42,3.26 -165.01,3.47 -164.64,3.65 -164.30,3.83 -164.00,3.98 -163.72,4.12 -163.46,4.25 -163.22,4.37 -162.99,4.47 -162.76,4.58 -162.54,4.67 -162.31,4.76 -162.07,4.85 -161.82,4.94 -161.54,5.03 -161.25,5.12 -160.92,5.22 -160.56,5.33 -160.16,5.44 -159.72,5.57"/>
    </edge>
    <edge id=":27_1" function="internal">
        <lane id=":27_1_0" index="0" disallow="bus truck rail_fast" speed="36.11" length="9.17" width="2.50" shape="-168.58,3.21 -159.72,5.57"/>
    </edge>
    <edge id=":27_2" function="internal">
        <lane id=":27_2_0" index="0" disallow="bus truck rail_fast" speed="25.02" length="8.33" width="2.50" shape="-167.93,4.80 -167.32,4.76 -166.76,4.72 -166.25,4.69 -165.79,4.67 -165.37,4.65 -164.98,4.64 -164.62,4.63 -164.27,4.64 -163.94,4.66 -163.61,4.68 -163.28,4.72 -162.94,4.77 -162.58,4.84 -162.20,4.92 -161.79,5.01 -161.34,5.13 -160.86,5.25 -160.32,5.40 -159.72,5.57"/>
    </edge>
    <edge id=":28_0" function="internal">
        <lane id=":28_0_0" index="0" disallow="bus truck rail_fast" speed="6.95" length="7.60" width="2.50" shape="-93.72,23.94 -93.10,24.10 -92.51,24.25 -91.95,24.38 -91.41,24.49 -90.90,24.58 -90.42,24.65 -89.96,24.70 -89.52,24.73 -89.11,24.75 -88.73,24.74 -88.37,24.72 -88.04,24.68 -87.74,24.62 -87.46,24.54 -87.20,24.44 -86.97,24.33 -86.77,24.19 -86.60,24.04 -86.44,23.87"/>
    </edge>
    <edge id=":28_1" function="internal">
        <lane id=":28_1_0" index="0" disallow="bus truck rail_fast" speed="36.11" length="8.71" width="2.50" shape="-93.72,23.94 -85.37,26.41"/>
    </edge>
    <edge id=":3_0" function="internal">
        <lane id=":3_0_0" index="0" disallow="bus truck rail_fast" speed="36.11" length="3.88" width="2.50" shape="-190.74,93.48 -190.88,93.73 -191.00,93.96 -191.10,94.17 -191.19,94.36 -191.27,94.54 -191.33,94.71 -191.39,94.87 -191.44,95.02 -191.48,95.17 -191.51,95.32 -191.55,95.48 -191.58,95.63 -191.61,95.80 -191.64,95.98 -191.68,96.18 -191.72,96.39 -191.77,96.62 -191.82,96.87 -191.89,97.16"/>
    </edge>
    <edge id=":3_1" function="internal">
        <lane id=":3_1_0" index="0" disallow="rail_fast" speed="36.11" length="12.50" width="2.50" shape="-188.83,85.04 -191.89,97.16"/>
    </edge>
    <edge id=":30_0" function="internal">
        <lane id=":30_0_0" index="0" disallow="bus truck rail_fast" speed="36.11" length="9.01" width="2.50" shape="89.93,80.92 80.97,79.87"/>
    </edge>
    <edge id=":30_1" function="internal">
        <lane id=":30_1_0" index="0" disallow="bus truck rail_fast" speed="7.66" length="10.24" width="2.50" shape="89.93,80.92 89.11,80.83 88.33,80.73 87.59,80.61 86.89,80.48 86.23,80.33 85.61,80.17 85.03,79.99 84.49,79.80 84.00,79.59 83.54,79.37 83.12,79.13 82.75,78.88 82.41,78.61 82.12,78.33 81.87,78.04 81.65,77.73 81.48,77.40 81.35,77.06 81.26,76.71"/>
    </edge>
    <edge id=":31_0" function="internal">
        <lane id=":31_0_0" index="0" disallow="bus truck rail_fast" speed="36.11" length="3.84" width="2.50" shape="86.41,77.85 86.68,77.92 86.93,77.99 87.16,78.05 87.37,78.10 87.55,78.14 87.73,78.17 87.89,78.21 88.05,78.23 88.20,78.25 88.35,78.27 88.51,78.29 88.66,78.30 88.83,78.32 89.01,78.33 89.20,78.35 89.42,78.37 89.65,78.39 89.91,78.41 90.19,78.44"/>
    </edge>
    <edge id=":31_1" function="internal">
        <lane id=":31_1_0" index="0" disallow="bus truck rail_fast" speed="36.11" length="3.44" width="2.50" shape="86.77,78.06 90.19,78.44"/>
    </edge>
    <edge id=":33_0" function="internal">
        <lane id=":33_0_0" index="0" disallow="bus truck rail_fast" speed="36.11" length="5.86" width="2.50" shape="8.83,-191.79 8.61,-191.41 8.40,-191.08 8.22,-190.77 8.05,-190.49 7.89,-190.24 7.75,-190.01 7.62,-189.79 7.50,-189.58 7.38,-189.37 7.27,-189.17 7.16,-188.96 7.05,-188.75 6.94,-188.52 6.83,-188.27 6.70,-188.00 6.57,-187.71 6.43,-187.38 6.27,-187.02 6.10,-186.62"/>
    </edge>
    <edge id=":33_1" function="internal">
        <lane id=":33_1_0" index="0" disallow="bus truck rail_fast" speed="12.02" length="7.41" width="2.50" shape="7.57,-193.69 7.65,-193.16 7.70,-192.67 7.74,-192.23 7.76,-191.83 7.77,-191.46 7.75,-191.12 7.72,-190.80 7.67,-190.50 7.61,-190.21 7.52,-189.92 7.43,-189.63 7.31,-189.34 7.18,-189.03 7.04,-188.71 6.88,-188.36 6.71,-187.98 6.52,-187.57 6.32,-187.12 6.10,-186.62"/>
    </edge>
    <edge id=":34_0" function="internal">
        <lane id=":34_0_0" index="0" disallow="bus truck rail_fast" speed="6.33" length="6.90" width="2.50" shape="-80.97,19.38 -81.05,19.56 -81.15,19.80 -81.27,20.09 -81.41,20.43 -81.56,20.80 -81.71,21.21 -81.88,21.64 -82.04,22.08 -82.20,22.53 -82.35,22.99 -82.49,23.44 -82.62,23.87 -82.72,24.29 -82.80,24.67 -82.85,25.02 -82.87,25.33 -82.86,25.58 -82.80,25.78 -82.70,25.92"/>
    </edge>
    <edge id=":34_1" function="internal">
        <lane id=":34_1_0" index="0" disallow="bus truck rail_fast" speed="9.62" length="8.13" width="2.50" shape="-80.97,19.38 -81.19,19.93 -81.38,20.44 -81.53,20.92 -81.67,21.37 -81.79,21.79 -81.90,22.19 -82.00,22.56 -82.11,22.91 -82.22,23.25 -82.35,23.56 -82.50,23.86 -82.68,24.14 -82.88,24.41 -83.13,24.68 -83.42,24.93 -83.76,25.18 -84.15,25.42 -84.61,25.66 -85.13,25.91"/>
    </edge>
    <edge id=":35_0" function="internal">
        <lane id=":35_0_0" index="0" disallow="bus truck rail_fast" speed="11.88" length="7.31" width="2.50" shape="-84.80,25.63 -84.88,25.10 -84.94,24.62 -84.98,24.18 -85.00,23.79 -85.01,23.42 -84.99,23.09 -84.96,22.77 -84.92,22.48 -84.85,22.19 -84.77,21.90 -84.68,21.62 -84.57,21.33 -84.44,21.03 -84.30,20.71 -84.14,20.36 -83.97,19.99 -83.79,19.58 -83.59,19.14 -83.37,18.64"/>
    </edge>
    <edge id=":35_1" function="internal">
        <lane id=":35_1_0" index="0" disallow="bus truck rail_fast" speed="36.11" length="5.89" width="2.50" shape="-86.32,23.71 -86.06,23.36 -85.82,23.04 -85.60,22.75 -85.41,22.49 -85.23,22.25 -85.08,22.03 -84.93,21.81 -84.80,21.61 -84.67,21.41 -84.55,21.21 -84.44,21.00 -84.33,20.79 -84.21,20.56 -84.10,20.31 -83.97,20.04 -83.84,19.74 -83.70,19.41 -83.55,19.05 -83.37,18.64"/>
    </edge>
    <edge id=":36_0" function="internal">
        <lane id=":36_0_0" index="0" disallow="bus truck rail_fast" speed="6.40" length="7.08" width="2.50" shape="3.70,-187.35 3.78,-187.53 3.88,-187.78 4.00,-188.07 4.14,-188.42 4.30,-188.80 4.46,-189.22 4.63,-189.66 4.80,-190.12 4.96,-190.58 5.12,-191.05 5.27,-191.51 5.40,-191.96 5.51,-192.39 5.59,-192.78 5.65,-193.14 5.67,-193.46 5.66,-193.72 5.61,-193.92 5.51,-194.06"/>
    </edge>
    <edge id=":36_1" function="internal">
        <lane id=":36_1_0" index="0" disallow="bus truck rail_fast" speed="10.47" length="7.98" width="2.50" shape="3.70,-187.35 3.92,-187.89 4.11,-188.39 4.27,-188.86 4.41,-189.29 4.54,-189.69 4.66,-190.07 4.78,-190.42 4.90,-190.75 5.02,-191.06 5.16,-191.36 5.32,-191.64 5.50,-191.91 5.71,-192.18 5.95,-192.44 6.24,-192.70 6.57,-192.96 6.95,-193.23 7.39,-193.50 7.89,-193.79"/>
    </edge>
    <edge id=":37_0" function="internal">
        <lane id=":37_0_0" index="0" disallow="bus truck rail_fast" speed="24.67" length="7.31" width="2.50" shape="141.17,-148.81 141.22,-149.35 141.27,-149.84 141.32,-150.28 141.38,-150.68 141.43,-151.04 141.50,-151.37 141.56,-151.68 141.63,-151.98 141.72,-152.26 141.81,-152.54 141.90,-152.81 142.02,-153.10 142.14,-153.39 142.28,-153.71 142.43,-154.05 142.60,-154.41 142.78,-154.82 142.99,-155.27 143.21,-155.77"/>
    </edge>
    <edge id=":37_1" function="internal">
        <lane id=":37_1_0" index="0" disallow="bus truck rail_fast" speed="36.11" length="5.85" width="2.50" shape="140.26,-150.73 140.51,-151.09 140.73,-151.41 140.94,-151.71 141.12,-151.97 141.29,-152.21 141.45,-152.44 141.59,-152.65 141.72,-152.85 141.85,-153.05 141.97,-153.25 142.09,-153.45 142.21,-153.66 142.32,-153.89 142.45,-154.13 142.58,-154.39 142.72,-154.68 142.87,-155.01 143.03,-155.37 143.21,-155.77"/>
    </edge>
    <edge id=":40_0" function="internal">
        <lane id=":40_0_0" index="0" disallow="bus truck rail_fast" speed="7.63" length="6.58" width="2.49" shape="145.44,-154.63 145.36,-154.46 145.25,-154.24 145.12,-153.97 144.98,-153.67 144.81,-153.33 144.64,-152.97 144.46,-152.58 144.27,-152.18 144.09,-151.77 143.91,-151.36 143.74,-150.95 143.59,-150.55 143.45,-150.17 143.33,-149.81 143.25,-149.47 143.18,-149.17 143.16,-148.91 143.17,-148.69 143.22,-148.53"/>
    </edge>
    <edge id=":40_1" function="internal">
        <lane id=":40_1_0" index="0" disallow="bus truck rail_fast" speed="9.29" length="7.77" width="2.50" shape="145.44,-154.63 145.22,-154.12 145.02,-153.64 144.85,-153.19 144.70,-152.77 144.55,-152.38 144.42,-152.02 144.28,-151.68 144.15,-151.37 144.00,-151.07 143.84,-150.79 143.66,-150.53 143.46,-150.28 143.23,-150.05 142.97,-149.82 142.66,-149.60 142.32,-149.38 141.92,-149.17 141.47,-148.96 140.95,-148.75"/>
    </edge>
    <edge id=":41_0" function="internal">
        <lane id=":41_0_0" index="0" disallow="rail_fast" speed="36.11" length="9.00" width="2.50" shape="68.29,-173.01 59.81,-176.02"/>
    </edge>
    <edge id=":41_1" function="internal">