<!-- generated on 2020-12-18 16:03:31.494057 by ipykernel_launcher.py v1_2_0+5214-53edc58fcd
-->
<nodes>
	<node id="1" type="from" x="-206.7222" y="148.8256"/>
	<node id="2" type="to" x="-193.9419" y="94.99215000000001"/>
	<node id="3" type="from" x="-191.51805000000002" y="95.6018"/>
	<node id="4" type="to" x="-204.28975" y="149.40275"/>
	<node id="5" type="from" x="-176.4269" y="3.7449500000000002"/>
	<node id="6" type="to" x="-254.4031" y="-15.43205"/>
	<node id="7" type="from" x="-253.80605" y="-17.8597"/>
	<node id="8" type="to" x="-175.82580000000002" y="1.31915"/>
	<node id="9" type="from" x="-152.22065" y="239.19095"/>
	<node id="10" type="to" x="-105.63919999999999" y="172.1487"/>
	<node id="11" type="from" x="-103.9348" y="173.97705"/>
	<node id="12" type="to" x="-149.73095" y="239.41264999999999"/>
	<node id="13" type="from" x="-190.8367" y="82.78235000000001"/>
	<node id="14" type="to" x="-171.9028" y="11.04765"/>
	<node id="15" type="from" x="-169.4875" y="11.68915"/>
	<node id="16" type="to" x="-188.41395" y="83.3951"/>
	<node id="17" type="from" x="-26.5587" y="49.8937"/>
	<node id="18" type="to" x="-79.08385" y="31.1563"/>
	<node id="19" type="from" x="-78.2298" y="28.8073"/>
	<node id="20" type="to" x="-25.70775" y="47.5436"/>
	<node id="21" type="from" x="-52.73285" y="182.99464999999998"/>
	<node id="22" type="to" x="-94.61385" y="173.7298"/>
	<node id="23" type="from" x="-92.9996" y="171.82235"/>
	<node id="24" type="to" x="-53.362049999999996" y="180.5752"/>
	<node id="25" type="from" x="-92.8067" y="26.7843"/>
	<node id="26" type="to" x="-162.1879" y="7.47245"/>
	<node id="27" type="from" x="-161.5164" y="5.0653"/>
	<node id="28" type="to" x="-92.1495" y="24.3729"/>
	<node id="29" type="from" x="119.25465" y="83.78190000000001"/>
	<node id="30" type="to" x="88.21615" y="80.7559"/>
	<node id="31" type="from" x="88.49080000000001" y="78.27154999999999"/>
	<node id="32" type="to" x="119.49719999999999" y="81.2937"/>
	<node id="33" type="from" x="6.6975" y="-188.0266"/>
	<node id="34" type="to" x="-81.6668" y="21.0218"/>
	<node id="35" type="from" x="-83.9702" y="20.05245"/>
	<node id="36" type="to" x="4.39455" y="-188.99685"/>
	<node id="37" type="from" x="142.53570000000002" y="-154.25805"/>
	<node id="38" type="to" x="177.11374999999998" y="-231.71715"/>
	<node id="39" type="from" x="179.3966" y="-230.69805000000002"/>
	<node id="40" type="to" x="144.8136" y="-153.23005"/>
	<node id="41" type="from" x="61.44005" y="-175.4398"/>
	<node id="42" type="to" x="14.744050000000001" y="-192.12380000000002"/>
	<node id="43" type="from" x="15.56" y="-194.48615"/>
	<node id="44" type="to" x="62.25935" y="-177.8012"/>
	<node id="45" type="from" x="-96.0463" y="161.62685"/>
	<node id="46" type="to" x="-89.1714" y="153.29765"/>
	<node id="47" type="from" x="-87.2268" y="154.86785"/>
	<node id="48" type="to" x="-94.1093" y="163.2062"/>
	<node id="49" type="from" x="274.10704999999996" y="-83.80605"/>
	<node id="50" type="to" x="156.30984999999998" y="-136.25025"/>
	<node id="51" type="from" x="157.4014" y="-138.49895"/>
	<node id="52" type="to" x="275.00055" y="-86.1409"/>
	<node id="53" type="from" x="73.2393" y="78.57490000000001"/>
	<node id="54" type="to" x="-12.588550000000001" y="56.3505"/>
	<node id="55" type="from" x="-11.2669" y="54.229600000000005"/>
	<node id="56" type="to" x="73.6721" y="76.113"/>
	<node id="57" type="from" x="108.0715" y="-168.1552"/>
	<node id="58" type="to" x="151.58805" y="-244.79014999999998"/>
	<node id="59" type="from" x="153.762" y="-243.5557"/>
	<node id="60" type="to" x="110.24414999999999" y="-166.91985"/>
	<node id="61" type="from" x="-89.2211" y="145.0611"/>
	<node id="62" type="to" x="-184.67964999999998" y="90.9853"/>
	<node id="63" type="from" x="97.39015" y="-162.64724999999999"/>
	<node id="64" type="to" x="75.11635" y="-170.58425"/>
	<node id="65" type="from" x="75.96674999999999" y="-172.9346"/>
	<node id="66" type="to" x="98.2842" y="-164.98115"/>
	<node id="67" type="from" x="133.57670000000002" y="-148.6155"/>
	<node id="68" type="to" x="111.85114999999999" y="-156.48590000000002"/>
	<node id="69" type="from" x="112.78784999999999" y="-158.8028"/>
	<node id="70" type="to" x="134.3914" y="-150.9783"/>
	<node id="71" type="from" x="0.8095" y="-197.09199999999998"/>
	<node id="72" type="to" x="-86.96549999999999" y="-228.3175"/>
	<node id="73" type="from" x="-86.12755" y="-230.6729"/>
	<node id="74" type="to" x="1.66795" y="-199.4395"/>
	<node id="75" type="from" x="147.08135" y="-44.096000000000004"/>
	<node id="76" type="to" x="83.39305" y="71.80144999999999"/>
	<node id="77" type="from" x="80.91884999999999" y="71.45255"/>
	<node id="78" type="to" x="147.11509999999998" y="-46.59495"/>
	<node id="79" type="from" x="-81.4289" y="142.91559999999998"/>
	<node id="80" type="to" x="-23.78095" y="57.74225"/>
	<node id="81" type="from" x="-21.70645" y="59.1363"/>
	<node id="82" type="to" x="-79.3771" y="144.34255000000002"/>
	<node id="83" type="from" x="-167.51965" y="-3.41935"/>
	<node id="84" type="to" x="-87.7222" y="-229.91985"/>
	<node id="85" type="from" x="-85.36755" y="-229.07985000000002"/>
	<node id="86" type="to" x="-165.15235" y="-2.61795"/>
	<node id="87" type="from" x="70.11015" y="-181.62335000000002"/>
	<node id="88" type="to" x="79.85025" y="-210.72199999999998"/>
	<node id="89" type="from" x="82.22095" y="-209.9284"/>
	<node id="90" type="to" x="72.47925000000001" y="-180.8283"/>
	<node id="91" type="from" x="156.95875" y="-38.86935"/>
	<node id="92" type="to" x="160.55175" y="-13.4292"/>
	<node id="93" type="from" x="158.0763" y="-13.07965"/>
	<node id="94" type="to" x="154.4864" y="-38.504000000000005"/>
	<node id="95" type="from" x="149.83265" y="-131.5898"/>
	<node id="96" type="to" x="155.48430000000002" y="-52.74195"/>
	<node id="97" type="from" x="152.99009999999998" y="-52.5801"/>
	<node id="98" type="to" x="147.3388" y="-131.4194"/>
	<node id="99" type="from" x="-15.525850000000002" y="44.66165"/>
	<node id="100" type="to" x="100.48169999999999" y="-154.942"/>
	<node id="101" type="from" x="102.64349999999999" y="-153.6881"/>
	<node id="102" type="to" x="-13.3687" y="45.9233"/>
	<node id="103" type="from" x="143.84699999999998" y="-143.3581"/>
	<node id="104" type="to" x="143.6405" y="-143.5226"/>
	<node id="105" type="from" x="145.21925" y="-145.4565"/>
	<node id="106" type="to" x="145.42079999999999" y="-145.2953"/>
</nodes>
