<routes>
	<vehicle depart="0.1" departLane="0" departPos="5.354421681728047" departSpeed="0.0" id="311" type="bicycle">
		<route edges="66249 66509"/>
	</vehicle>
	<vehicle depart="0.1" departLane="0" departPos="33.31353083510118" departSpeed="0.0" id="37" type="passenger">
		<route edges=":53_3 66509"/>
	</vehicle>
	<vehicle depart="0.1" departLane="0" departPos="29.433974951383597" departSpeed="0.3186565" id="38" type="passenger">
		<route edges="66455 66458"/>
	</vehicle>
	<vehicle depart="0.1" departLane="0" departPos="2.5" departSpeed="0.0" id="310" type="passenger">
		<route edges=":53_1 66513"/>
	</vehicle>
	<vehicle depart="0.1" departLane="0" departPos="4.602494465632944" departSpeed="11.796275" id="326" type="passenger">
		<route edges=":52_2 66454"/>
	</vehicle>
	<vehicle depart="0.1" departLane="0" departPos="2.5" departSpeed="8.2885916" id="342" type="passenger">
		<route edges=":55_3 66506 66454"/>
	</vehicle>
	<vehicle depart="0.1" departLane="0" departPos="27.071602845431073" departSpeed="4.6846913" id="35" type="motorcycle">
		<route edges=":51_3 66668 66510"/>
	</vehicle>
	<vehicle depart="0.1" departLane="0" departPos="10.75276682730698" departSpeed="2.8463662" id="328" type="motorcycle">
		<route edges=":52_4 66507"/>
	</vehicle>
	<vehicle depart="0.1" departLane="0" departPos="5.326697532217442" departSpeed="3.6544074" id="335" type="motorcycle">
		<route edges=":52_4 66507"/>
	</vehicle>
	<vehicle depart="0.1" departLane="0" departPos="13.392756958760748" departSpeed="0.0" id="30" type="truck">
		<route edges=":53_1 66513"/>
	</vehicle>
</routes>
