<routes>
	<vehicle depart="0.1" departLane="0" departPos="71.74119424119823" departSpeed="5.2951506" id="1" type="passenger">
		<route edges="50201 50213 50197"/>
	</vehicle>
	<vehicle depart="0.1" departLane="0" departPos="97.0364521752314" departSpeed="2.9287604" id="2" type="passenger">
		<route edges="50195 50211 50199"/>
	</vehicle>
	<vehicle depart="0.1" departLane="0" departPos="147.39860643026364" departSpeed="2.9688359" id="4" type="passenger">
		<route edges="50205 50217 50199"/>
	</vehicle>
	<vehicle depart="0.1" departLane="0" departPos="155.39876727216296" departSpeed="2.9697258" id="5" type="passenger">
		<route edges="50205 50217 50199"/>
	</vehicle>
	<vehicle depart="0.1" departLane="0" departPos="43.56968501619919" departSpeed="2.1872826" id="7" type="passenger">
		<route edges="50201 50213 50197"/>
	</vehicle>
</routes>
