<routes>
	<vehicle depart="0.1" departLane="0" departPos="2.5" departSpeed="9.3812929" id="32" type="passenger">
		<route edges="3515 3518"/>
	</vehicle>
	<vehicle depart="0.1" departLane="0" departPos="15.094916149698676" departSpeed="8.308616" id="315" type="passenger">
		<route edges=":117_11 3515 3649"/>
	</vehicle>
	<vehicle depart="0.1" departLane="0" departPos="17.250921288382564" departSpeed="6.2332523" id="317" type="passenger">
		<route edges=":117_10 3553 3550"/>
	</vehicle>
	<vehicle depart="0.1" departLane="0" departPos="68.29341935937347" departSpeed="5.3115498" id="335" type="passenger">
		<route edges="3556 3553"/>
	</vehicle>
	<vehicle depart="0.1" departLane="0" departPos="31.9470547048616" departSpeed="0.0" id="345" type="passenger">
		<route edges="3514 3557"/>
	</vehicle>
	<vehicle depart="0.1" departLane="0" departPos="25.12060409630999" departSpeed="21.719777" id="354" type="passenger">
		<route edges=":118_7 3512 3553"/>
	</vehicle>
	<vehicle depart="0.1" departLane="0" departPos="38.22193873021315" departSpeed="3.406698" id="359" type="passenger">
		<route edges="3556 3553"/>
	</vehicle>
	<vehicle depart="0.1" departLane="0" departPos="71.3788501316443" departSpeed="14.70856" id="3113" type="passenger">
		<route edges="3554 3511"/>
	</vehicle>
	<vehicle depart="0.1" departLane="0" departPos="84.74724642774855" departSpeed="4.152001" id="326" type="motorcycle">
		<route edges="3556 3553"/>
	</vehicle>
</routes>
