<routes>
	<vehicle depart="0.1" departLane="0" departPos="37.97254441858807" departSpeed="15.954478" id="318" type="passenger">
		<route edges=":17_3 13357"/>
	</vehicle>
	<vehicle depart="0.1" departLane="0" departPos="18.96441263613773" departSpeed="12.889825" id="319" type="passenger">
		<route edges=":17_3 13357"/>
	</vehicle>
	<vehicle depart="0.1" departLane="0" departPos="65.86749149451082" departSpeed="0.081738241" id="326" type="passenger">
		<route edges="13269 13357"/>
	</vehicle>
	<vehicle depart="0.1" departLane="0" departPos="53.77383310876671" departSpeed="0.40508399" id="329" type="passenger">
		<route edges="13269 13357"/>
	</vehicle>
	<vehicle depart="0.1" departLane="0" departPos="45.19260142725757" departSpeed="0.11413976" id="331" type="passenger">
		<route edges="13269 13357"/>
	</vehicle>
	<vehicle depart="0.1" departLane="0" departPos="36.847665371099936" departSpeed="7.5347841" id="333" type="passenger">
		<route edges="13271 13357"/>
	</vehicle>
	<vehicle depart="0.1" departLane="0" departPos="24.340251105844555" departSpeed="5.3760539" id="339" type="passenger">
		<route edges="13271 13357"/>
	</vehicle>
	<vehicle depart="0.1" departLane="0" departPos="61.943982184098275" departSpeed="9.1449293" id="328" type="motorcycle">
		<route edges="13271 13268"/>
	</vehicle>
	<vehicle depart="0.1" departLane="0" departPos="3.75" departSpeed="0.1742954" id="30" type="truck">
		<route edges=":17_5 13387"/>
	</vehicle>
	<vehicle depart="0.1" departLane="0" departPos="9.474260243539362" departSpeed="0.56284982" id="323" type="truck">
		<route edges=":17_7 13357"/>
	</vehicle>
</routes>
