<!-- generated on Tue Feb  9 22:07:17 2021 by Eclipse SUMO netconvert Version 1.8.0
<configuration xmlns:xsi="http://www.w3.org/2001/XMLSchema-instance" xsi:noNamespaceSchemaLocation="http://sumo.dlr.de/xsd/netconvertConfiguration.xsd">

    <input>
        <node-files value="./converted_scenarios/scenario-factory/BEL_Putte-6_1_I-1-1/BEL_Putte-6_1_I-1-1.nod.xml"/>
        <edge-files value="./converted_scenarios/scenario-factory/BEL_Putte-6_1_I-1-1/BEL_Putte-6_1_I-1-1.edg.xml"/>
        <connection-files value="./converted_scenarios/scenario-factory/BEL_Putte-6_1_I-1-1/BEL_Putte-6_1_I-1-1.con.xml"/>
        <tllogic-files value="./converted_scenarios/scenario-factory/BEL_Putte-6_1_I-1-1/BEL_Putte-6_1_I-1-1.tll.xml"/>
        <type-files value="/home/zen/commonroad-interactive-benchmarks/install/commonroad-map-tool/crmapconverter/sumo_map/templates/DEU.typ.xml"/>
    </input>

    <output>
        <output-file value="./converted_scenarios/scenario-factory/BEL_Putte-6_1_I-1-1/BEL_Putte-6_1_I-1-1.net.xml"/>
    </output>

    <processing>
        <geometry.remove.keep-edges.explicit value="true"/>
        <geometry.avoid-overlap value="true"/>
        <offset.disable-normalization value="true"/>
    </processing>

    <junctions>
        <no-turnarounds value="true"/>
        <junctions.internal-link-detail value="20"/>
    </junctions>

    <report>
        <aggregate-warnings value="5"/>
    </report>

    <random_number>
        <seed value="1234"/>
    </random_number>

</configuration>
--><net xmlns:xsi="http://www.w3.org/2001/XMLSchema-instance" version="1.6" junctionCornerDetail="5" junctionLinkDetail="20" limitTurnSpeed="5.50" xsi:noNamespaceSchemaLocation="http://sumo.dlr.de/xsd/net_file.xsd">

    <location netOffset="0.00,0.00" convBoundary="860.93,-579.88,1032.89,-373.97" origBoundary="860.93,-579.88,1032.89,-373.97" projParameter="!"/>

    <type id="highway.bridleway" priority="1" speed="2.78" allow="pedestrian" oneway="1" width="2.00"/>
    <type id="highway.bus_guideway" priority="1" speed="27.78" allow="bus" oneway="1"/>
    <type id="highway.cycleway" priority="1" speed="8.33" allow="bicycle" oneway="0" width="1.00"/>
    <type id="highway.footway" priority="1" speed="2.78" allow="pedestrian" oneway="1" width="2.00"/>
    <type id="highway.ford" priority="1" speed="2.78" allow="army" oneway="0"/>
    <type id="highway.living_street" priority="2" speed="2.78" disallow="tram rail_urban rail rail_electric rail_fast ship" oneway="0"/>
    <type id="highway.motorway" priority="14" speed="39.44" allow="private emergency authority army vip passenger hov taxi bus coach delivery truck trailer motorcycle evehicle custom1 custom2" oneway="1"/>
    <type id="highway.motorway_link" priority="9" speed="22.22" allow="private emergency authority army vip passenger hov taxi bus coach delivery truck trailer motorcycle evehicle custom1 custom2" oneway="1"/>
    <type id="highway.path" priority="1" speed="2.78" allow="pedestrian bicycle" oneway="0" width="2.00"/>
    <type id="highway.pedestrian" priority="1" speed="2.78" allow="pedestrian" oneway="1" width="2.00"/>
    <type id="highway.primary" priority="12" speed="27.78" disallow="pedestrian tram rail_urban rail rail_electric rail_fast ship" oneway="0"/>
    <type id="highway.primary_link" priority="7" speed="22.22" disallow="pedestrian tram rail_urban rail rail_electric rail_fast ship" oneway="0"/>
    <type id="highway.raceway" priority="15" speed="83.33" allow="vip" oneway="0"/>
    <type id="highway.residential" priority="3" speed="13.89" disallow="pedestrian tram rail_urban rail rail_electric rail_fast ship" oneway="0"/>
    <type id="highway.secondary" priority="11" speed="27.78" disallow="pedestrian tram rail_urban rail rail_electric rail_fast ship" oneway="0"/>
    <type id="highway.secondary_link" priority="6" speed="22.22" disallow="pedestrian tram rail_urban rail rail_electric rail_fast ship" oneway="0"/>
    <type id="highway.service" priority="1" speed="5.56" allow="pedestrian delivery bicycle" oneway="0"/>
    <type id="highway.stairs" priority="1" speed="1.39" allow="pedestrian" oneway="1" width="2.00"/>
    <type id="highway.step" priority="1" speed="1.39" allow="pedestrian" oneway="1" width="2.00"/>
    <type id="highway.steps" priority="1" speed="1.39" allow="pedestrian" oneway="1" width="2.00"/>
    <type id="highway.tertiary" priority="10" speed="22.22" disallow="pedestrian tram rail_urban rail rail_electric rail_fast ship" oneway="0"/>
    <type id="highway.tertiary_link" priority="5" speed="22.22" disallow="pedestrian tram rail_urban rail rail_electric rail_fast ship" oneway="0"/>
    <type id="highway.track" priority="1" speed="5.56" allow="pedestrian motorcycle moped bicycle" oneway="0"/>
    <type id="highway.trunk" priority="13" speed="27.78" disallow="pedestrian bicycle tram rail_urban rail rail_electric rail_fast ship" oneway="0"/>
    <type id="highway.trunk_link" priority="8" speed="22.22" disallow="pedestrian bicycle tram rail_urban rail rail_electric rail_fast ship" oneway="0"/>
    <type id="highway.unclassified" priority="4" speed="13.89" disallow="pedestrian tram rail_urban rail rail_electric rail_fast ship" oneway="0"/>
    <type id="highway.unsurfaced" priority="1" speed="8.33" disallow="tram rail_urban rail rail_electric rail_fast ship" oneway="0"/>
    <type id="railway.highspeed" priority="21" speed="69.44" allow="rail_fast" oneway="1"/>
    <type id="railway.light_rail" priority="19" speed="27.78" allow="rail_urban" oneway="1"/>
    <type id="railway.preserved" priority="16" speed="27.78" allow="rail" oneway="1"/>
    <type id="railway.rail" priority="20" speed="44.44" allow="rail" oneway="1"/>
    <type id="railway.subway" priority="18" speed="27.78" allow="rail_urban" oneway="1"/>
    <type id="railway.tram" priority="17" speed="13.89" allow="tram" oneway="1"/>

    <edge id=":35_0" function="internal">
        <lane id=":35_0_0" index="0" disallow="pedestrian tram rail_urban rail rail_electric rail_fast ship" speed="36.11" length="34.15" width="3.50" shape="928.20,-459.76 925.76,-457.81 921.86,-454.39 918.17,-450.76 914.71,-446.92 911.49,-442.88 908.51,-438.65 905.81,-434.26"/>
    </edge>
    <edge id=":35_1" function="internal">
        <lane id=":35_1_0" index="0" disallow="pedestrian tram rail_urban rail rail_electric rail_fast ship" speed="11.91" length="34.56" width="3.50" shape="928.20,-459.76 924.93,-457.45 922.63,-456.11 920.22,-454.99 917.71,-454.14 916.41,-453.84 915.10,-453.65 913.77,-453.56 912.45,-453.60 911.13,-453.76 909.83,-454.04 908.57,-454.45 907.35,-454.98 906.18,-455.61 904.01,-457.14 902.07,-458.96 900.33,-460.97 898.78,-463.13"/>
    </edge>
    <edge id=":35_2" function="internal">
        <lane id=":35_2_0" index="0" disallow="pedestrian tram rail_urban rail rail_electric rail_fast ship" speed="10.89" length="28.71" width="3.50" shape="901.69,-465.07 903.03,-463.21 904.50,-461.50 906.12,-460.00 907.92,-458.74 908.83,-458.26 909.80,-457.85 910.80,-457.53 911.82,-457.32 912.86,-457.20 913.92,-457.18 914.98,-457.26 916.04,-457.43 917.07,-457.67 919.19,-458.39 921.23,-459.35 923.19,-460.50 926.06,-462.53"/>
    </edge>
    <edge id=":35_3" function="internal">
        <lane id=":35_3_0" index="0" disallow="pedestrian tram rail_urban rail rail_electric rail_fast ship" speed="14.81" length="32.85" width="3.50" shape="901.69,-465.07 902.93,-463.13 904.62,-460.16 906.11,-457.05 907.34,-453.80 908.23,-450.43 908.61,-448.08 908.76,-445.71 908.68,-443.32 908.34,-440.95 907.74,-438.62 906.89,-436.38 905.81,-434.26"/>
    </edge>
    <edge id=":35_4" function="internal">
        <lane id=":35_4_0" index="0" disallow="pedestrian tram rail_urban rail rail_electric rail_fast ship" speed="13.93" length="28.98" width="3.50" shape="902.77,-435.99 903.70,-437.83 904.43,-439.77 904.93,-441.78 905.20,-443.83 905.25,-445.90 905.09,-447.96 904.74,-450.00 903.92,-453.00 902.80,-455.89 901.44,-458.69 899.90,-461.38 898.78,-463.13"/>
    </edge>
    <edge id=":35_5" function="internal">
        <lane id=":35_5_0" index="0" disallow="pedestrian tram rail_urban rail rail_electric rail_fast ship" speed="36.11" length="35.53" width="3.50" shape="902.77,-435.99 905.59,-440.57 908.68,-444.97 912.04,-449.18 915.64,-453.18 919.47,-456.95 923.52,-460.50 926.06,-462.53"/>
    </edge>
    <edge id=":36_0" function="internal">
        <lane id=":36_0_0" index="0" disallow="pedestrian tram rail_urban rail rail_electric rail_fast ship" speed="10.86" length="28.96" width="3.50" shape="980.50,-430.00 978.00,-432.22 976.20,-433.52 974.26,-434.63 972.20,-435.47 971.13,-435.77 970.04,-435.97 968.93,-436.08 967.81,-436.07 966.70,-435.95 965.61,-435.72 964.55,-435.39 963.52,-434.97 961.57,-433.89 959.78,-432.56 958.14,-431.06 955.92,-428.56"/>
    </edge>
    <edge id=":36_1" function="internal">
        <lane id=":36_1_0" index="0" disallow="pedestrian tram rail_urban rail rail_electric rail_fast ship" speed="36.11" length="36.72" width="3.50" shape="980.50,-430.00 967.14,-443.33 954.74,-456.17"/>
    </edge>
    <edge id=":36_2" function="internal">
        <lane id=":36_2_0" index="0" disallow="pedestrian tram rail_urban rail rail_electric rail_fast ship" speed="36.11" length="36.58" width="3.50" shape="957.27,-458.59 969.64,-445.78 982.93,-432.52"/>
    </edge>
    <edge id=":36_3" function="internal">
        <lane id=":36_3_0" index="0" disallow="pedestrian tram rail_urban rail rail_electric rail_fast ship" speed="12.72" length="33.43" width="3.50" shape="957.27,-458.59 958.97,-456.61 960.43,-454.50 961.63,-452.23 962.50,-449.81 962.99,-447.29 963.09,-444.73 962.81,-442.17 962.21,-439.68 961.32,-437.27 960.21,-434.95 958.21,-431.66 955.92,-428.56"/>
    </edge>
    <edge id=":36_4" function="internal">
        <lane id=":36_4_0" index="0" disallow="pedestrian tram rail_urban rail rail_electric rail_fast ship" speed="11.71" length="28.34" width="3.50" shape="953.19,-430.75 955.22,-433.49 956.99,-436.39 957.96,-438.38 958.73,-440.43 959.27,-442.53 959.52,-444.64 959.47,-446.75 959.09,-448.81 958.39,-450.80 957.41,-452.70 956.18,-454.49 954.74,-456.17"/>
    </edge>
    <edge id=":36_5" function="internal">
        <lane id=":36_5_0" index="0" disallow="pedestrian tram rail_urban rail rail_electric rail_fast ship" speed="11.88" length="34.90" width="3.50" shape="953.19,-430.75 955.76,-433.64 957.71,-435.43 959.86,-437.02 962.20,-438.32 963.51,-438.85 964.83,-439.26 966.20,-439.55 967.60,-439.70 969.00,-439.71 970.40,-439.58 971.76,-439.33 973.12,-438.95 975.60,-437.93 977.92,-436.61 980.06,-435.06 982.93,-432.52"/>
    </edge>
    <edge id=":37_0" function="internal">
        <lane id=":37_0_0" index="0" disallow="pedestrian tram rail_urban rail rail_electric rail_fast ship" speed="36.11" length="23.38" width="3.50" shape="985.59,-502.49 984.70,-501.77 978.71,-496.31 971.29,-489.41 968.25,-486.81"/>
    </edge>
    <edge id=":37_1" function="internal">
        <lane id=":37_1_0" index="0" disallow="pedestrian tram rail_urban rail rail_electric rail_fast ship" speed="8.71" length="17.04" width="3.50" shape="983.55,-506.44 982.24,-506.49 979.95,-506.93 978.31,-507.52 976.75,-508.33 974.88,-509.71 973.24,-511.37 971.83,-513.23 970.38,-515.75"/>
    </edge>
    <edge id=":37_2" function="internal">
        <lane id=":37_2_0" index="0" disallow="pedestrian tram rail_urban rail rail_electric rail_fast ship" speed="13.31" length="33.92" width="3.50" shape="973.51,-517.33 974.03,-516.25 975.38,-512.99 976.40,-509.57 976.85,-507.17 977.07,-504.74 977.02,-502.29 976.67,-499.84 976.02,-497.45 975.08,-495.16 973.87,-493.02 972.45,-491.03 970.84,-489.20 968.25,-486.81"/>
    </edge>
    <edge id=":37_3" function="internal">
        <lane id=":37_3_0" index="0" disallow="pedestrian tram rail_urban rail rail_electric rail_fast ship" speed="12.38" length="29.21" width="3.50" shape="965.99,-489.48 968.29,-491.60 969.67,-493.17 970.88,-494.87 971.89,-496.70 972.68,-498.63 973.21,-500.65 973.49,-502.72 973.53,-504.80 973.33,-506.88 972.94,-508.93 972.04,-511.93 970.83,-514.82 970.38,-515.75"/>
    </edge>
    <edge id=":38_0" function="internal">
        <lane id=":38_0_0" index="0" disallow="pedestrian tram rail_urban rail rail_electric rail_fast ship" speed="11.80" length="29.65" width="3.50" shape="954.57,-456.35 952.22,-458.64 950.53,-460.05 948.73,-461.32 946.83,-462.41 944.82,-463.29 942.71,-463.91 940.53,-464.22 938.34,-464.20 936.17,-463.84 934.07,-463.19 932.07,-462.29 930.17,-461.18 928.38,-459.90"/>
    </edge>
    <edge id=":38_1" function="internal">
        <lane id=":38_1_0" index="0" disallow="pedestrian tram rail_urban rail rail_electric rail_fast ship" speed="11.70" length="32.94" width="3.50" shape="954.57,-456.35 953.70,-457.32 952.14,-459.40 950.85,-461.69 950.31,-462.98 949.91,-464.30 949.64,-465.65 949.51,-467.03 949.53,-468.42 949.69,-469.79 949.98,-471.13 950.38,-472.42 950.88,-473.66 951.48,-474.87 952.84,-477.07 954.41,-479.11 957.00,-481.86 959.80,-484.36"/>
    </edge>
    <edge id=":38_2" function="internal">
        <lane id=":38_2_0" index="0" disallow="pedestrian tram rail_urban rail rail_electric rail_fast ship" speed="10.63" length="27.11" width="3.50" shape="962.03,-481.66 959.59,-479.50 957.35,-477.14 956.01,-475.43 954.84,-473.60 954.35,-472.64 953.92,-471.64 953.57,-470.61 953.31,-469.56 953.16,-468.48 953.12,-467.40 953.19,-466.32 953.37,-465.25 953.67,-464.20 954.06,-463.19 955.10,-461.29 956.40,-459.55 957.11,-458.76"/>
    </edge>
    <edge id=":38_3" function="internal">
        <lane id=":38_3_0" index="0" disallow="pedestrian tram rail_urban rail rail_electric rail_fast ship" speed="36.11" length="40.11" width="3.50" shape="962.03,-481.66 957.95,-478.53 952.82,-475.10 944.85,-470.39 936.87,-465.71 931.70,-462.34 928.38,-459.90"/>
    </edge>
    <edge id=":38_4" function="internal">
        <lane id=":38_4_0" index="0" disallow="pedestrian tram rail_urban rail rail_electric rail_fast ship" speed="36.11" length="40.00" width="3.50" shape="926.24,-462.67 929.63,-465.15 934.86,-468.57 942.87,-473.26 950.79,-477.94 955.83,-481.30 959.80,-484.36"/>
    </edge>
    <edge id=":38_5" function="internal">
        <lane id=":38_5_0" index="0" disallow="pedestrian tram rail_urban rail rail_electric rail_fast ship" speed="12.79" length="34.85" width="3.50" shape="926.24,-462.67 928.31,-464.14 930.51,-465.44 932.87,-466.51 935.37,-467.30 937.98,-467.74 940.63,-467.79 943.26,-467.44 945.79,-466.72 948.18,-465.70 950.42,-464.42 952.50,-462.96 954.45,-461.35 957.11,-458.76"/>
    </edge>

    <edge id="11179" from="35" to="19" priority="3" type="highway.residential" spreadType="center" length="70.00" shape="909.14,-452.43 860.93,-522.01">
        <lane id="11179_0" index="0" disallow="pedestrian tram rail_urban rail rail_electric rail_fast ship" speed="36.11" length="70.00" width="3.50" customShape="1" shape="898.78,-463.13 889.13,-477.84 860.93,-522.01"/>
    </edge>
    <edge id="11180" from="31" to="35" priority="3" type="highway.residential" spreadType="center" length="70.03" shape="863.84,-523.95 912.01,-454.42">
        <lane id="11180_0" index="0" disallow="pedestrian tram rail_urban rail rail_electric rail_fast ship" speed="36.11" length="70.03" width="3.50" customShape="1" shape="863.84,-523.95 892.06,-479.75 901.71,-465.04"/>
    </edge>
    <edge id="11200" from="26" to="36" priority="3" type="highway.residential" spreadType="center" length="70.00" shape="909.37,-376.17 962.77,-440.57">
        <lane id="11200_0" index="0" disallow="pedestrian tram rail_urban rail rail_electric rail_fast ship" speed="36.11" length="70.00" width="3.50" customShape="1" shape="909.37,-376.17 924.99,-395.62 953.19,-430.76"/>
    </edge>
    <edge id="11201" from="36" to="15" priority="3" type="highway.residential" spreadType="center" length="70.00" shape="965.47,-438.34 912.10,-373.97">
        <lane id="11201_0" index="0" disallow="pedestrian tram rail_urban rail rail_electric rail_fast ship" speed="36.11" length="70.00" width="3.50" customShape="1" shape="955.92,-428.56 927.72,-393.43 912.10,-373.97"/>
    </edge>
    <edge id="11328" from="35" to="22" priority="3" type="highway.residential" spreadType="center" length="61.85" shape="912.11,-452.65 873.48,-381.54">
        <lane id="11328_0" index="0" disallow="pedestrian tram rail_urban rail rail_electric rail_fast ship" speed="36.11" length="61.85" width="3.50" customShape="1" shape="905.81,-434.26 901.78,-427.28 893.26,-413.05 873.48,-381.54"/>
    </edge>
    <edge id="11329" from="32" to="35" priority="3" type="highway.residential" spreadType="center" length="61.73" shape="870.51,-383.39 909.03,-454.32">
        <lane id="11329_0" index="0" disallow="pedestrian tram rail_urban rail rail_electric rail_fast ship" speed="36.11" length="61.73" width="3.50" customShape="1" shape="870.51,-383.39 890.26,-414.86 898.76,-429.04 902.78,-436.01"/>
    </edge>
    <edge id="11331" from="38" to="35" priority="3" type="highway.residential" spreadType="center" length="0.24" shape="948.70,-465.68 911.16,-451.81">
        <lane id="11331_0" index="0" disallow="pedestrian tram rail_urban rail rail_electric rail_fast ship" speed="36.11" length="0.24" width="3.50" customShape="1" shape="928.38,-459.90 928.28,-459.82 928.19,-459.76"/>
    </edge>
    <edge id="11332" from="35" to="38" priority="3" type="highway.residential" spreadType="center" length="0.26" shape="909.95,-455.10 947.49,-468.96">
        <lane id="11332_0" index="0" disallow="pedestrian tram rail_urban rail rail_electric rail_fast ship" speed="36.11" length="0.26" width="3.50" customShape="1" shape="926.06,-462.53 926.27,-462.69"/>
    </edge>
    <edge id="11334" from="37" to="38" priority="3" type="highway.residential" spreadType="center" length="8.08" shape="976.39,-502.85 949.40,-466.20">
        <lane id="11334_0" index="0" disallow="pedestrian tram rail_urban rail rail_electric rail_fast ship" speed="36.11" length="8.08" width="3.50" customShape="1" shape="968.25,-486.81 965.12,-484.22 962.03,-481.66"/>
    </edge>
    <edge id="11335" from="38" to="37" priority="3" type="highway.residential" spreadType="center" length="8.06" shape="946.58,-468.27 973.57,-504.93">
        <lane id="11335_0" index="0" disallow="pedestrian tram rail_urban rail rail_electric rail_fast ship" speed="36.11" length="8.06" width="3.50" customShape="1" shape="959.80,-484.36 962.89,-486.92 966.01,-489.50"/>
    </edge>
    <edge id="11538" from="34" to="37" priority="3" type="highway.residential" spreadType="center" length="31.45">
        <lane id="11538_0" index="0" disallow="pedestrian tram rail_urban rail rail_electric rail_fast ship" speed="36.11" length="31.45" width="3.50" customShape="1" shape="1012.80,-518.34 1004.78,-514.21 984.84,-503.94"/>
    </edge>
    <edge id="11623" from="33" to="37" priority="3" type="highway.residential" spreadType="center" length="70.01" shape="942.09,-579.88 976.58,-504.58">
        <lane id="11623_0" index="0" disallow="pedestrian tram rail_urban rail rail_electric rail_fast ship" speed="36.11" length="70.01" width="3.50" customShape="1" shape="942.09,-579.88 945.48,-573.12 973.51,-517.32"/>
    </edge>
    <edge id="11624" from="37" to="29" priority="3" type="highway.residential" spreadType="center" length="69.99" shape="973.40,-503.13 938.97,-578.30">
        <lane id="11624_0" index="0" disallow="pedestrian tram rail_urban rail rail_electric rail_fast ship" speed="36.11" length="69.99" width="3.50" customShape="1" shape="970.38,-515.75 942.36,-571.55 938.97,-578.30"/>
    </edge>
    <edge id="11641" from="36" to="38" priority="3" type="highway.residential" spreadType="center" length="0.25" shape="962.58,-438.55 946.47,-466.50">
        <lane id="11641_0" index="0" disallow="pedestrian tram rail_urban rail rail_electric rail_fast ship" speed="36.11" length="0.25" width="3.50" customShape="1" shape="954.74,-456.17 954.67,-456.25 954.57,-456.35"/>
    </edge>
    <edge id="11642" from="38" to="36" priority="3" type="highway.residential" spreadType="center" length="0.28" shape="949.49,-468.24 965.61,-440.30">
        <lane id="11642_0" index="0" disallow="pedestrian tram rail_urban rail rail_electric rail_fast ship" speed="36.11" length="0.28" width="3.50" customShape="1" shape="957.11,-458.76 957.21,-458.65 957.30,-458.56"/>
    </edge>
    <edge id="11644" from="30" to="36" priority="3" type="highway.residential" spreadType="center" length="70.03" shape="1030.46,-380.97 962.94,-438.12">
        <lane id="11644_0" index="0" disallow="pedestrian tram rail_urban rail rail_electric rail_fast ship" speed="36.11" length="70.03" width="3.50" customShape="1" shape="1030.46,-380.97 1008.32,-402.70 980.48,-430.02"/>
    </edge>
    <edge id="11645" from="36" to="16" priority="3" type="highway.residential" spreadType="center" length="70.00" shape="965.20,-440.79 1032.89,-383.49">
        <lane id="11645_0" index="0" disallow="pedestrian tram rail_urban rail rail_electric rail_fast ship" speed="36.11" length="70.00" width="3.50" customShape="1" shape="982.93,-432.52 1010.77,-405.20 1032.89,-383.49"/>
    </edge>

    <junction id="15" type="dead_end" x="912.10" y="-373.97" incLanes="11201_0" intLanes="" shape="913.46,-372.88 910.73,-375.07" rightOfWay="edgePriority"/>
    <junction id="16" type="dead_end" x="1032.89" y="-383.49" incLanes="11645_0" intLanes="" shape="1034.12,-384.73 1031.67,-382.24" rightOfWay="edgePriority"/>
    <junction id="19" type="dead_end" x="860.93" y="-522.01" incLanes="11179_0" intLanes="" shape="859.45,-521.06 862.40,-522.95" rightOfWay="edgePriority"/>
    <junction id="22" type="dead_end" x="873.48" y="-381.54" incLanes="11328_0" intLanes="" shape="874.96,-380.60 872.00,-382.47" rightOfWay="edgePriority"/>
    <junction id="26" type="dead_end" x="909.37" y="-376.17" incLanes="" intLanes="" shape="910.74,-375.07 908.01,-377.27" rightOfWay="edgePriority"/>
    <junction id="29" type="dead_end" x="938.97" y="-578.30" incLanes="11624_0" intLanes="" shape="937.40,-577.52 940.53,-579.09" rightOfWay="edgePriority"/>
    <junction id="30" type="dead_end" x="1030.46" y="-380.97" incLanes="" intLanes="" shape="1031.68,-382.22 1029.23,-379.72" rightOfWay="edgePriority"/>
    <junction id="31" type="dead_end" x="863.84" y="-523.95" incLanes="" intLanes="" shape="862.36,-523.01 865.31,-524.89" rightOfWay="edgePriority"/>
    <junction id="32" type="dead_end" x="870.51" y="-383.39" incLanes="" intLanes="" shape="871.99,-382.46 869.03,-384.32" rightOfWay="edgePriority"/>
    <junction id="33" type="dead_end" x="942.09" y="-579.88" incLanes="" intLanes="" shape="940.53,-579.10 943.65,-580.67" rightOfWay="edgePriority"/>
    <junction id="34" type="dead_end" x="1012.80" y="-518.34" incLanes="" intLanes="" shape="1012.00,-519.90 1013.60,-516.79" rightOfWay="edgePriority"/>
    <junction id="35" type="priority" x="910.55" y="-453.45" incLanes="11331_0 11180_0 11329_0" intLanes=":35_0_0 :35_1_0 :35_2_0 :35_3_0 :35_4_0 :35_5_0" shape="929.27,-458.38 924.99,-463.92 920.62,-461.06 916.54,-459.48 912.75,-459.19 909.26,-460.18 906.07,-462.45 903.17,-466.00 897.32,-462.17 900.17,-457.29 902.14,-452.67 903.24,-448.32 903.46,-444.24 902.80,-440.43 901.27,-436.88 907.33,-433.38 910.93,-439.53 913.79,-444.00 916.49,-447.47 919.59,-450.58 923.66,-453.99">
        <request index="0" response="000000" foes="001000" cont="0"/>
        <request index="1" response="110000" foes="111000" cont="0"/>
        <request index="2" response="100000" foes="100000" cont="0"/>
        <request index="3" response="100011" foes="100011" cont="0"/>
        <request index="4" response="000000" foes="000010" cont="0"/>
        <request index="5" response="000000" foes="001110" cont="0"/>
    </junction>
    <junction id="36" type="priority" x="964.10" y="-439.43" incLanes="11644_0 11642_0 11200_0" intLanes=":36_0_0 :36_1_0 :36_2_0 :36_3_0 :36_4_0 :36_5_0" shape="979.26,-428.77 984.16,-433.77 958.53,-459.80 953.47,-454.96 955.98,-451.65 957.38,-448.12 957.66,-444.38 956.83,-440.42 954.88,-436.24 951.82,-431.85 957.28,-427.47 960.74,-431.06 964.29,-433.30 967.91,-434.19 971.61,-433.73 975.39,-431.93">
        <request index="0" response="000000" foes="001000" cont="0"/>
        <request index="1" response="000000" foes="111000" cont="0"/>
        <request index="2" response="000000" foes="100000" cont="0"/>
        <request index="3" response="000011" foes="100011" cont="0"/>
        <request index="4" response="000010" foes="000010" cont="0"/>
        <request index="5" response="001110" foes="001110" cont="0"/>
    </junction>
    <junction id="37" type="priority" x="974.98" y="-503.89" incLanes="11538_0 11623_0 11335_0" intLanes=":37_0_0 :37_1_0 :37_2_0 :37_3_0" shape="985.65,-502.38 984.04,-505.49 982.12,-506.41 980.75,-508.11 979.13,-510.62 977.23,-513.95 975.07,-518.11 968.82,-514.96 970.77,-510.20 971.67,-505.73 971.54,-501.56 970.37,-497.69 968.15,-494.12 964.90,-490.85 969.36,-485.46 972.98,-488.94 975.28,-491.98 976.98,-494.71 978.79,-497.27 981.44,-499.78">
        <request index="0" response="0000" foes="0100" cont="0"/>
        <request index="1" response="1000" foes="1100" cont="0"/>
        <request index="2" response="0011" foes="0011" cont="0"/>
        <request index="3" response="0000" foes="0010" cont="0"/>
    </junction>
    <junction id="38" type="priority" x="948.03" y="-467.29" incLanes="11641_0 11334_0 11332_0" intLanes=":38_0_0 :38_1_0 :38_2_0 :38_3_0 :38_4_0 :38_5_0" shape="953.30,-455.15 958.38,-459.97 956.09,-463.08 955.03,-466.31 955.21,-469.64 956.62,-473.09 959.27,-476.65 963.15,-480.31 958.69,-485.71 951.96,-480.53 946.67,-477.15 942.08,-474.69 937.46,-472.27 932.07,-469.01 925.17,-464.06 929.46,-458.52 933.44,-461.00 937.42,-462.26 941.40,-462.30 945.37,-461.13 949.34,-458.75">
        <request index="0" response="001000" foes="001000" cont="0"/>
        <request index="1" response="111000" foes="111000" cont="0"/>
        <request index="2" response="000000" foes="100000" cont="0"/>
        <request index="3" response="000000" foes="100011" cont="0"/>
        <request index="4" response="000000" foes="000010" cont="0"/>
        <request index="5" response="001100" foes="001110" cont="0"/>
    </junction>

    <connection from="11180" to="11332" fromLane="0" toLane="0" contPos="-4.00" shape="901.69,-465.07 903.03,-463.21 904.50,-461.50 906.12,-460.00 907.92,-458.74 908.83,-458.26 909.80,-457.85 910.80,-457.53 911.82,-457.32 912.86,-457.20 913.92,-457.18 914.98,-457.26 916.04,-457.43 917.07,-457.67 919.19,-458.39 921.23,-459.35 923.19,-460.50 926.06,-462.53" via=":35_2_0" dir="r" state="m"/>
    <connection from="11180" to="11328" fromLane="0" toLane="0" contPos="-4.00" shape="901.69,-465.07 902.93,-463.13 904.62,-460.16 906.11,-457.05 907.34,-453.80 908.23,-450.43 908.61,-448.08 908.76,-445.71 908.68,-443.32 908.34,-440.95 907.74,-438.62 906.89,-436.38 905.81,-434.26" via=":35_3_0" dir="l" state="m"/>
    <connection from="11200" to="11641" fromLane="0" toLane="0" contPos="-4.00" shape="953.19,-430.76 955.22,-433.49 956.99,-436.39 957.96,-438.38 958.73,-440.43 959.27,-442.53 959.52,-444.64 959.47,-446.75 959.09,-448.81 958.39,-450.80 957.41,-452.70 956.18,-454.49 954.74,-456.17" via=":36_4_0" dir="r" state="m"/>
    <connection from="11200" to="11645" fromLane="0" toLane="0" contPos="-4.00" shape="953.19,-430.76 955.76,-433.64 957.71,-435.43 959.86,-437.02 962.20,-438.32 963.51,-438.85 964.83,-439.26 966.20,-439.55 967.60,-439.70 969.00,-439.71 970.40,-439.58 971.76,-439.33 973.12,-438.95 975.60,-437.93 977.92,-436.61 980.06,-435.06 982.93,-432.52" via=":36_5_0" dir="l" state="m"/>
    <connection from="11329" to="11179" fromLane="0" toLane="0" contPos="-4.00" shape="902.77,-435.99 903.70,-437.83 904.43,-439.77 904.93,-441.78 905.20,-443.83 905.25,-445.90 905.09,-447.96 904.74,-450.00 903.92,-453.00 902.80,-455.89 901.44,-458.69 899.90,-461.38 898.78,-463.13" via=":35_4_0" dir="r" state="M"/>
    <connection from="11329" to="11332" fromLane="0" toLane="0" contPos="-4.00" shape="902.77,-435.99 905.59,-440.57 908.68,-444.97 912.04,-449.18 915.64,-453.18 919.47,-456.95 923.52,-460.50 926.06,-462.53" via=":35_5_0" dir="s" state="M"/>
    <connection from="11331" to="11328" fromLane="0" toLane="0" contPos="-4.00" shape="928.19,-459.76 925.76,-457.81 921.86,-454.39 918.17,-450.76 914.71,-446.92 911.49,-442.88 908.51,-438.65 905.81,-434.26" via=":35_0_0" dir="s" state="M"/>
    <connection from="11331" to="11179" fromLane="0" toLane="0" contPos="-4.00" shape="928.19,-459.76 924.93,-457.45 922.63,-456.11 920.22,-454.99 917.71,-454.14 916.41,-453.84 915.10,-453.65 913.77,-453.56 912.45,-453.60 911.13,-453.76 909.83,-454.04 908.57,-454.45 907.35,-454.98 906.18,-455.61 904.01,-457.14 902.07,-458.96 900.33,-460.97 898.78,-463.13" via=":35_1_0" dir="l" state="m"/>
    <connection from="11332" to="11335" fromLane="0" toLane="0" contPos="-4.00" shape="926.27,-462.69 929.63,-465.15 934.86,-468.57 942.87,-473.26 950.79,-477.94 955.83,-481.30 959.80,-484.36" via=":38_4_0" dir="s" state="M"/>
    <connection from="11332" to="11642" fromLane="0" toLane="0" contPos="-4.00" shape="926.27,-462.69 928.31,-464.14 930.51,-465.44 932.87,-466.51 935.37,-467.30 937.98,-467.74 940.63,-467.79 943.26,-467.44 945.79,-466.72 948.18,-465.70 950.42,-464.42 952.50,-462.96 954.45,-461.35 957.11,-458.76" via=":38_5_0" dir="l" state="m"/>
    <connection from="11334" to="11642" fromLane="0" toLane="0" contPos="-4.00" shape="962.03,-481.66 959.59,-479.50 957.35,-477.14 956.01,-475.43 954.84,-473.60 954.35,-472.64 953.92,-471.64 953.57,-470.61 953.31,-469.56 953.16,-468.48 953.12,-467.40 953.19,-466.32 953.37,-465.25 953.67,-464.20 954.06,-463.19 955.10,-461.29 956.40,-459.55 957.11,-458.76" via=":38_2_0" dir="r" state="M"/>
    <connection from="11334" to="11331" fromLane="0" toLane="0" contPos="-4.00" shape="962.03,-481.66 957.95,-478.53 952.82,-475.10 944.85,-470.39 936.87,-465.71 931.70,-462.34 928.38,-459.90" via=":38_3_0" dir="s" state="M"/>