<routes>
	<vehicle depart="0.1" departLane="0" departPos="34.58313142896258" departSpeed="0.075287687" id="38" type="passenger">
		<route edges=":34_1 140876"/>
	</vehicle>
	<vehicle depart="0.1" departLane="0" departPos="8.02193998941716" departSpeed="0.22090533" id="39" type="passenger">
		<route edges=":31_1 140904"/>
	</vehicle>
	<vehicle depart="0.1" departLane="0" departPos="16.748925235790747" departSpeed="0.33895549" id="310" type="passenger">
		<route edges="140876 140879"/>
	</vehicle>
	<vehicle depart="0.1" departLane="0" departPos="5.55130482655722" departSpeed="7.9183702" id="315" type="passenger">
		<route edges="140881 140952"/>
	</vehicle>
	<vehicle depart="0.1" departLane="0" departPos="60.282324834044026" departSpeed="1.4811084" id="318" type="passenger">
		<route edges="140903 140875"/>
	</vehicle>
	<vehicle depart="0.1" departLane="0" departPos="52.711898973559755" departSpeed="1.264868" id="319" type="passenger">
		<route edges="140903 140875"/>
	</vehicle>
	<vehicle depart="0.1" departLane="0" departPos="13.497587665943415" departSpeed="8.0765518" id="324" type="passenger">
		<route edges=":34_3 140881 140952"/>
	</vehicle>
	<vehicle depart="0.1" departLane="0" departPos="31.64818395367894" departSpeed="4.2995905" id="340" type="passenger">
		<route edges=":31_5 140875 140881"/>
	</vehicle>
	<vehicle depart="0.1" departLane="0" departPos="5.782954183624073" departSpeed="5.2644435" id="342" type="passenger">
		<route edges=":31_5 140875"/>
	</vehicle>
	<vehicle depart="0.1" departLane="0" departPos="51.041475133232495" departSpeed="6.1342357" id="345" type="passenger">
		<route edges="140878 140875 140881"/>
	</vehicle>
</routes>
