<!-- generated on 2020-12-18 15:44:08.849183 by ipykernel_launcher.py v1_2_0+5214-53edc58fcd
-->
<connections>
	<connection contPos="-4.0" from="49564" fromLane="0" keepClear="true" to="49602" toLane="0"/>
	<connection contPos="-4.0" from="49564" fromLane="0" keepClear="true" to="49594" toLane="0"/>
	<connection contPos="-4.0" from="49564" fromLane="0" keepClear="true" to="49586" toLane="0"/>
	<connection contPos="-4.0" from="49570" fromLane="0" keepClear="true" to="49598" toLane="0"/>
	<connection contPos="-4.0" from="49570" fromLane="0" keepClear="true" to="49588" toLane="0"/>
	<connection contPos="-4.0" from="49570" fromLane="0" keepClear="true" to="49580" toLane="0"/>
	<connection contPos="-4.0" from="49574" fromLane="0" keepClear="true" to="49600" toLane="0"/>
	<connection contPos="-4.0" from="49574" fromLane="0" keepClear="true" to="49590" toLane="0"/>
	<connection contPos="-4.0" from="49574" fromLane="0" keepClear="true" to="49582" toLane="0"/>
	<connection contPos="-4.0" from="49578" fromLane="0" keepClear="true" to="49596" toLane="0"/>
	<connection contPos="-4.0" from="49578" fromLane="0" keepClear="true" to="49592" toLane="0"/>
	<connection contPos="-4.0" from="49578" fromLane="0" keepClear="true" to="49584" toLane="0"/>
	<connection contPos="-4.0" from="49580" fromLane="0" keepClear="true" to="49572" toLane="0"/>
	<connection contPos="-4.0" from="49582" fromLane="0" keepClear="true" to="49576" toLane="0"/>
	<connection contPos="-4.0" from="49584" fromLane="0" keepClear="true" to="49566" toLane="0"/>
	<connection contPos="-4.0" from="49586" fromLane="0" keepClear="true" to="49568" toLane="0"/>
	<connection contPos="-4.0" from="49588" fromLane="0" keepClear="true" to="49566" toLane="0"/>
	<connection contPos="-4.0" from="49590" fromLane="0" keepClear="true" to="49568" toLane="0"/>
	<connection contPos="-4.0" from="49592" fromLane="0" keepClear="true" to="49572" toLane="0"/>
	<connection contPos="-4.0" from="49594" fromLane="0" keepClear="true" to="49576" toLane="0"/>
	<connection contPos="-4.0" from="49596" fromLane="0" keepClear="true" to="49568" toLane="0"/>
	<connection contPos="-4.0" from="49598" fromLane="0" keepClear="true" to="49576" toLane="0"/>
	<connection contPos="-4.0" from="49600" fromLane="0" keepClear="true" to="49566" toLane="0"/>
	<connection contPos="-4.0" from="49602" fromLane="0" keepClear="true" to="49572" toLane="0"/>
</connections>
