<routes>
	<vehicle depart="0.1" departLane="0" departPos="85.28100746550668" departSpeed="0.0" id="201" type="passenger">
		<route edges="49578 49596 49586 49568"/>
	</vehicle>
	<vehicle depart="0.1" departLane="0" departPos="59.24480405515606" departSpeed="14.0" id="203" type="passenger">
		<route edges="49578 49596 49568"/>
	</vehicle>
</routes>
