<routes>
	<vehicle depart="0.1" departLane="1" departPos="104.73171780630133" departSpeed="11.516135" id="1" type="passenger">
		<route edges="26 28 24"/>
	</vehicle>
	<vehicle depart="0.1" departLane="0" departPos="0" departSpeed="10.856607" id="2" type="passenger">
		<route edges="26 26 28 24"/>
	</vehicle>
	<vehicle depart="0.1" departLane="0" departPos="0" departSpeed="10.856621" id="3" type="passenger">
		<route edges="26 27 24"/>
	</vehicle>
</routes>
