<routes>
	<vehicle depart="0.1" departLane="0" departPos="138.61735907143577" departSpeed="6.0" id="202" type="passenger">
		<route edges="34784"/>
	</vehicle>
	<vehicle depart="0.1" departLane="0" departPos="112.06244004519758" departSpeed="14.0" id="203" type="passenger">
		<route edges="34784"/>
	</vehicle>
</routes>
