<?xml version="1.0" encoding="UTF-8"?>

<!-- generated on Fri Dec 18 15:40:17 2020 by Eclipse SUMO netconvert Version 1.8.0
<configuration xmlns:xsi="http://www.w3.org/2001/XMLSchema-instance" xsi:noNamespaceSchemaLocation="http://sumo.dlr.de/xsd/netconvertConfiguration.xsd">

    <input>
        <node-files value="./converted_scenarios/hand-crafted/DEU_Muc-4_2_I-1-1/nodes.net.xml"/>
        <edge-files value="./converted_scenarios/hand-crafted/DEU_Muc-4_2_I-1-1/edges.net.xml"/>
        <connection-files value="./converted_scenarios/hand-crafted/DEU_Muc-4_2_I-1-1/_connections.net.xml"/>
        <tllogic-files value="./converted_scenarios/hand-crafted/DEU_Muc-4_2_I-1-1/_tll.net.xml"/>
    </input>

    <output>
        <output-file value="./converted_scenarios/hand-crafted/DEU_Muc-4_2_I-1-1/DEU_Muc-4_2_I-1-1.net.xml"/>
    </output>

    <processing>
        <plain.extend-edge-shape value="true"/>
        <geometry.remove.keep-edges.explicit value="true"/>
        <geometry.avoid-overlap value="true"/>
        <offset.disable-normalization value="true"/>
    </processing>

    <junctions>
        <no-turnarounds value="true"/>
        <junctions.internal-link-detail value="20"/>
    </junctions>

    <report>
        <aggregate-warnings value="5"/>
    </report>

    <random_number>
        <seed value="1234"/>
    </random_number>

</configuration>
-->

<net version="1.6" junctionCornerDetail="5" junctionLinkDetail="20" limitTurnSpeed="5.50" xmlns:xsi="http://www.w3.org/2001/XMLSchema-instance" xsi:noNamespaceSchemaLocation="http://sumo.dlr.de/xsd/net_file.xsd">

    <location netOffset="0.00,0.00" convBoundary="-129.04,-2.68,366.95,16.82" origBoundary="-129.06,-4.22,367.03,18.31" projParameter="!"/>

    <edge id="34784" from="1" to="2" priority="1" spreadType="center" length="496.73">
        <lane id="34784_0" index="0" disallow="bus rail_fast" speed="36.11" length="496.73" width="2.86" customShape="1" shape="-129.03,-4.22 -102.90,-3.88 -76.70,-3.78 -43.20,-3.68 -3.64,-3.34 24.23,-2.77 60.30,-1.60 83.56,-0.73 119.40,0.74 153.81,2.45 170.20,3.22 179.99,3.60 185.68,3.56 197.80,2.69 203.54,2.33 210.69,2.54 217.12,2.99 257.67,5.59 269.67,7.64 281.46,9.35 294.22,10.68 316.66,12.48 352.72,14.57 367.03,15.32"/>
        <lane id="34784_1" index="1" disallow="bus truck rail_fast" speed="36.11" length="496.73" width="2.84" customShape="1" shape="-129.06,-1.15 -102.94,-0.80 -76.74,-0.74 -43.23,-0.75 -3.70,-0.25 24.03,0.49 60.10,1.58 83.29,2.40 119.22,3.96 153.61,5.76 169.93,6.53 179.80,6.97 185.46,6.83 198.08,5.93 203.66,5.70 210.46,5.71 216.95,6.10 257.00,8.81 269.11,10.79 280.69,12.60 293.81,13.65 316.46,15.33 352.30,17.71 352.57,17.72 366.88,18.31"/>
    </edge>

    <junction id="1" type="dead_end" x="-129.04" y="-2.68" incLanes="" intLanes="" shape="-129.08,0.28 -129.01,-5.65"/>
    <junction id="2" type="dead_end" x="366.95" y="16.82" incLanes="34784_0 34784_1" intLanes="" shape="367.11,13.89 366.80,19.73"/>

</net>
