<!-- generated on 2020-12-18 15:40:17.284349 by ipykernel_launcher.py v1_2_0+5214-53edc58fcd
-->
<nodes>
	<node id="1" type="from" x="-129.04447499999998" y="-2.68132"/>
	<node id="2" type="to" x="366.9543" y="16.818325"/>
</nodes>
