<routes>
	<vehicle depart="0.1" departLane="0" departPos="14.957900787305308" departSpeed="1.736955" id="32" type="passenger">
		<route edges="9521 9469"/>
	</vehicle>
	<vehicle depart="0.1" departLane="0" departPos="6.227304644287601" departSpeed="0.056563659" id="314" type="passenger">
		<route edges=":55_1 9096"/>
	</vehicle>
	<vehicle depart="0.1" departLane="0" departPos="35.051696957796764" departSpeed="0.62077519" id="329" type="passenger">
		<route edges=":55_4 9096"/>
	</vehicle>
	<vehicle depart="0.1" departLane="0" departPos="67.10186839561148" departSpeed="1.3951772" id="336" type="passenger">
		<route edges="9333 9469"/>
	</vehicle>
	<vehicle depart="0.1" departLane="0" departPos="4.819159861978579" departSpeed="1.7040003" id="340" type="passenger">
		<route edges=":55_4 9096"/>
	</vehicle>
	<vehicle depart="0.1" departLane="0" departPos="8.812935909829248" departSpeed="1.1028969" id="346" type="passenger">
		<route edges="9522 9525"/>
	</vehicle>
	<vehicle depart="0.1" departLane="0" departPos="20.89058258700228" departSpeed="0.019154136" id="351" type="passenger">
		<route edges=":55_8 9522"/>
	</vehicle>
	<vehicle depart="0.1" departLane="0" departPos="27.071773297401947" departSpeed="1.1633135" id="360" type="passenger">
		<route edges=":55_8 9522"/>
	</vehicle>
	<vehicle depart="0.1" departLane="0" departPos="41.06890880807487" departSpeed="3.0129092" id="365" type="passenger">
		<route edges="9470 9096"/>
	</vehicle>
	<vehicle depart="0.1" departLane="0" departPos="61.24330681726742" departSpeed="2.1598089" id="368" type="passenger">
		<route edges="9470 9096"/>
	</vehicle>
</routes>
