<!-- generated on 2020-12-18 16:04:35.385943 by ipykernel_launcher.py v1_2_0+5214-53edc58fcd
-->
<connections>
	<connection contPos="-4.0" from="1311" fromLane="0" keepClear="true" to="1330" toLane="0"/>
	<connection contPos="-4.0" from="1311" fromLane="0" keepClear="true" to="1328" toLane="0"/>
	<connection contPos="-4.0" from="1312" fromLane="0" keepClear="true" to="1329" toLane="0"/>
	<connection contPos="-4.0" from="1313" fromLane="0" keepClear="true" to="1322" toLane="0"/>
	<connection contPos="-4.0" from="1315" fromLane="0" keepClear="true" to="1321" toLane="0"/>
	<connection contPos="-4.0" from="1316" fromLane="0" keepClear="true" to="1323" toLane="0"/>
	<connection contPos="-4.0" from="1316" fromLane="0" keepClear="true" to="1327" toLane="0"/>
	<connection contPos="-4.0" from="1317" fromLane="0" keepClear="true" to="1324" toLane="0"/>
	<connection contPos="-4.0" from="1318" fromLane="0" keepClear="true" to="1325" toLane="0"/>
	<connection contPos="-4.0" from="1318" fromLane="0" keepClear="true" to="1320" toLane="0"/>
	<connection contPos="-4.0" from="1319" fromLane="0" keepClear="true" to="1326" toLane="0"/>
	<connection contPos="-4.0" from="1320" fromLane="0" keepClear="true" to="1316" toLane="0"/>
	<connection contPos="-4.0" from="1321" fromLane="0" keepClear="true" to="1319" toLane="0"/>
	<connection contPos="-4.0" from="1322" fromLane="0" keepClear="true" to="1316" toLane="0"/>
	<connection contPos="-4.0" from="1323" fromLane="0" keepClear="true" to="1310" toLane="0"/>
	<connection contPos="-4.0" from="1324" fromLane="0" keepClear="true" to="1314" toLane="0"/>
	<connection contPos="-4.0" from="1325" fromLane="0" keepClear="true" to="1314" toLane="0"/>
	<connection contPos="-4.0" from="1326" fromLane="0" keepClear="true" to="1318" toLane="0"/>
	<connection contPos="-4.0" from="1327" fromLane="0" keepClear="true" to="1312" toLane="0"/>
	<connection contPos="-4.0" from="1328" fromLane="0" keepClear="true" to="1312" toLane="0"/>
	<connection contPos="-4.0" from="1329" fromLane="0" keepClear="true" to="1315" toLane="0"/>
	<connection contPos="-4.0" from="1330" fromLane="0" keepClear="true" to="1317" toLane="0"/>
</connections>
