<?xml version="1.0" encoding="UTF-8"?>

<!-- generated on Fri Dec 18 16:04:35 2020 by Eclipse SUMO netconvert Version 1.8.0
<configuration xmlns:xsi="http://www.w3.org/2001/XMLSchema-instance" xsi:noNamespaceSchemaLocation="http://sumo.dlr.de/xsd/netconvertConfiguration.xsd">

    <input>
        <node-files value="./converted_scenarios/SUMO/DEU_Muc-21_2_I-1-1/nodes.net.xml"/>
        <edge-files value="./converted_scenarios/SUMO/DEU_Muc-21_2_I-1-1/edges.net.xml"/>
        <connection-files value="./converted_scenarios/SUMO/DEU_Muc-21_2_I-1-1/_connections.net.xml"/>
        <tllogic-files value="./converted_scenarios/SUMO/DEU_Muc-21_2_I-1-1/_tll.net.xml"/>
    </input>

    <output>
        <output-file value="./converted_scenarios/SUMO/DEU_Muc-21_2_I-1-1/DEU_Muc-21_2_I-1-1.net.xml"/>
    </output>

    <processing>
        <plain.extend-edge-shape value="true"/>
        <geometry.remove.keep-edges.explicit value="true"/>
        <geometry.avoid-overlap value="true"/>
        <offset.disable-normalization value="true"/>
    </processing>

    <junctions>
        <no-turnarounds value="true"/>
        <junctions.internal-link-detail value="20"/>
    </junctions>

    <report>
        <aggregate-warnings value="5"/>
    </report>

    <random_number>
        <seed value="1234"/>
    </random_number>

</configuration>
-->

<net version="1.6" junctionCornerDetail="5" junctionLinkDetail="20" limitTurnSpeed="5.50" xmlns:xsi="http://www.w3.org/2001/XMLSchema-instance" xsi:noNamespaceSchemaLocation="http://sumo.dlr.de/xsd/net_file.xsd">

    <location netOffset="0.00,0.00" convBoundary="-113.99,-193.45,54.64,120.12" origBoundary="-114.92,-193.45,54.64,120.12" projParameter="!"/>

    <edge id=":1_0" function="internal">
        <lane id=":1_0_0" index="0" disallow="bus truck rail_fast" speed="36.11" length="3.00" width="2.50" shape="-25.99,31.15 -27.00,33.98"/>
    </edge>
    <edge id=":11_0" function="internal">
        <lane id=":11_0_0" index="0" disallow="bus truck rail_fast" speed="36.11" length="0.75" width="2.48" shape="-114.35,-81.22 -114.29,-81.23 -114.24,-81.24 -114.20,-81.25 -114.16,-81.25 -114.12,-81.26 -114.09,-81.26 -114.05,-81.27 -114.02,-81.27 -113.99,-81.27 -113.96,-81.27 -113.93,-81.27 -113.90,-81.27 -113.87,-81.27 -113.83,-81.27 -113.80,-81.26 -113.75,-81.26 -113.71,-81.26 -113.66,-81.25 -113.60,-81.25"/>
    </edge>
    <edge id=":12_0" function="internal">
        <lane id=":12_0_0" index="0" disallow="bus truck rail_fast" speed="36.11" length="1.00" width="2.50" shape="-113.40,-81.23 -113.33,-81.22 -113.26,-81.21 -113.20,-81.21 -113.15,-81.20 -113.10,-81.19 -113.05,-81.18 -113.01,-81.17 -112.97,-81.16 -112.93,-81.15 -112.89,-81.14 -112.85,-81.13 -112.81,-81.12 -112.77,-81.11 -112.73,-81.09 -112.68,-81.08 -112.62,-81.07 -112.56,-81.06 -112.50,-81.04 -112.42,-81.03"/>
    </edge>
    <edge id=":13_0" function="internal">
        <lane id=":13_0_0" index="0" disallow="rail_fast" speed="36.11" length="9.54" width="2.50" shape="0.67,-43.70 -2.55,-34.72"/>
    </edge>
    <edge id=":13_1" function="internal">
        <lane id=":13_1_0" index="0" disallow="bus truck rail_fast" speed="8.55" length="8.07" width="2.50" shape="-2.77,-42.50 -2.58,-42.17 -2.41,-41.84 -2.26,-41.49 -2.13,-41.14 -2.02,-40.78 -1.92,-40.40 -1.85,-40.02 -1.80,-39.63 -1.77,-39.23 -1.76,-38.82 -1.77,-38.40 -1.79,-37.97 -1.84,-37.54 -1.91,-37.09 -2.00,-36.63 -2.10,-36.17 -2.23,-35.69 -2.38,-35.21 -2.55,-34.72"/>
    </edge>
    <edge id=":14_0" function="internal">
        <lane id=":14_0_0" index="0" disallow="rail_fast" speed="36.11" length="9.71" width="2.50" shape="-21.43,18.44 -24.70,27.58"/>
    </edge>
    <edge id=":14_1" function="internal">
        <lane id=":14_1_0" index="0" disallow="bus truck rail_fast" speed="7.29" length="8.70" width="2.50" shape="-21.43,18.44 -21.66,19.05 -21.90,19.64 -22.14,20.19 -22.39,20.71 -22.64,21.19 -22.91,21.64 -23.18,22.06 -23.45,22.45 -23.74,22.80 -24.03,23.12 -24.32,23.40 -24.63,23.65 -24.94,23.87 -25.26,24.06 -25.58,24.21 -25.91,24.33 -26.25,24.41 -26.59,24.47 -26.94,24.48"/>
    </edge>
    <edge id=":15_0" function="internal">
        <lane id=":15_0_0" index="0" disallow="rail_fast" speed="36.11" length="3.00" width="2.50" shape="-24.93,20.80 -23.92,17.98"/>
    </edge>
    <edge id=":16_0" function="internal">
        <lane id=":16_0_0" index="0" disallow="rail_fast" speed="36.11" length="3.00" width="2.50" shape="-4.75,-35.98 -3.74,-38.81"/>
    </edge>
    <edge id=":17_0" function="internal">
        <lane id=":17_0_0" index="0" disallow="bus truck rail_fast" speed="36.11" length="3.00" width="2.49" shape="-64.50,-64.86 -61.66,-63.89"/>
    </edge>
    <edge id=":18_0" function="internal">
        <lane id=":18_0_0" index="0" disallow="bus truck rail_fast" speed="6.77" length="8.45" width="2.49" shape="-9.13,-45.83 -8.51,-45.62 -7.92,-45.44 -7.35,-45.29 -6.80,-45.16 -6.28,-45.07 -5.78,-45.00 -5.30,-44.96 -4.85,-44.95 -4.41,-44.96 -4.01,-45.00 -3.62,-45.08 -3.26,-45.17 -2.92,-45.30 -2.60,-45.45 -2.31,-45.64 -2.04,-45.85 -1.79,-46.08 -1.57,-46.35 -1.36,-46.64"/>
    </edge>
    <edge id=":18_1" function="internal">
        <lane id=":18_1_0" index="0" disallow="bus truck rail_fast" speed="10.04" length="7.30" width="2.49" shape="-9.13,-45.83 -8.62,-45.66 -8.15,-45.52 -7.72,-45.41 -7.31,-45.32 -6.92,-45.24 -6.56,-45.17 -6.23,-45.11 -5.91,-45.04 -5.60,-44.97 -5.31,-44.88 -5.03,-44.78 -4.76,-44.65 -4.50,-44.49 -4.24,-44.31 -3.97,-44.08 -3.71,-43.81 -3.44,-43.48 -3.16,-43.11 -2.88,-42.67"/>
    </edge>
    <edge id=":19_0" function="internal">
        <lane id=":19_0_0" index="0" disallow="bus truck rail_fast" speed="36.11" length="2.91" width="2.50" shape="-109.52,-80.26 -106.74,-79.37"/>
    </edge>
    <edge id=":20_0" function="internal">
        <lane id=":20_0_0" index="0" disallow="rail_fast" speed="36.11" length="3.00" width="2.50" shape="-72.08,-67.47 -69.24,-66.49"/>
    </edge>
    <edge id=":4_0" function="internal">
        <lane id=":4_0_0" index="0" disallow="bus truck rail_fast" speed="6.58" length="9.98" width="2.50" shape="-29.36,33.16 -29.10,32.41 -28.88,31.69 -28.70,31.01 -28.55,30.35 -28.44,29.73 -28.36,29.14 -28.32,28.57 -28.32,28.04 -28.35,27.54 -28.41,27.07 -28.51,26.63 -28.65,26.22 -28.83,25.85 -29.03,25.50 -29.28,25.19 -29.56,24.90 -29.87,24.65 -30.23,24.42 -30.61,24.23"/>
    </edge>
    <edge id=":4_1" function="internal">
        <lane id=":4_1_0" index="0" disallow="bus truck rail_fast" speed="36.11" length="9.61" width="2.50" shape="-29.36,33.16 -26.11,24.11"/>
    </edge>
    <edge id=":5_0" function="internal">
        <lane id=":5_0_0" index="0" disallow="bus truck rail_fast" speed="4.23" length="7.52" width="2.50" shape="-26.14,26.19 -33.04,23.19"/>
    </edge>
    <edge id=":5_1" function="internal">
        <lane id=":5_1_0" index="0" disallow="bus truck rail_fast" speed="15.39" length="6.11" width="2.50" shape="-27.14,24.49 -27.60,24.49 -28.01,24.48 -28.38,24.48 -28.71,24.47 -29.02,24.45 -29.31,24.43 -29.57,24.40 -29.82,24.36 -30.06,24.31 -30.30,24.25 -30.54,24.19 -30.78,24.11 -31.03,24.02 -31.30,23.92 -31.59,23.80 -31.90,23.67 -32.24,23.53 -32.62,23.37 -33.04,23.19"/>
    </edge>
    <edge id=":6_0" function="internal">
        <lane id=":6_0_0" index="0" disallow="bus truck rail_fast" speed="36.11" length="2.93" width="2.48" shape="-112.35,-76.31 -114.04,-78.71"/>
    </edge>
    <edge id=":8_0" function="internal">
        <lane id=":8_0_0" index="0" disallow="rail_fast" speed="36.11" length="3.00" width="2.50" shape="2.85,-49.74 1.83,-46.92"/>
    </edge>
    <edge id=":9_0" function="internal">
        <lane id=":9_0_0" index="0" disallow="bus truck rail_fast" speed="36.11" length="3.69" width="2.50" shape="-1.06,-47.14 -0.91,-47.38 -0.78,-47.59 -0.67,-47.78 -0.57,-47.96 -0.48,-48.12 -0.40,-48.27 -0.33,-48.42 -0.26,-48.55 -0.20,-48.69 -0.14,-48.82 -0.09,-48.96 -0.03,-49.10 0.02,-49.25 0.08,-49.42 0.14,-49.59 0.21,-49.78 0.28,-50.00 0.37,-50.23 0.46,-50.49"/>
    </edge>
    <edge id=":9_1" function="internal">
        <lane id=":9_1_0" index="0" disallow="rail_fast" speed="36.11" length="3.06" width="2.50" shape="-0.58,-47.61 0.46,-50.49"/>
    </edge>

    <edge id="1310" from="1" to="2" priority="1" spreadType="center" length="90.09">
        <lane id="1310_0" index="0" disallow="bus truck rail_fast" speed="36.11" length="90.09" width="2.50" customShape="1" shape="-27.00,33.98 -28.19,37.31 -32.38,50.24 -36.33,63.24 -38.92,72.96 -40.90,81.80 -42.50,90.72 -44.28,103.17 -46.61,120.12"/>
    </edge>
    <edge id="1311" from="3" to="4" priority="1" spreadType="center" length="90.58">
        <lane id="1311_0" index="0" disallow="bus truck rail_fast" speed="36.11" length="90.58" width="2.50" customShape="1" shape="-49.09,119.76 -46.75,102.76 -44.96,90.25 -43.34,81.26 -41.34,72.35 -38.73,62.55 -34.76,49.48 -30.55,36.49 -29.36,33.16"/>
    </edge>
    <edge id="1312" from="5" to="6" priority="1" spreadType="center" length="131.18">
        <lane id="1312_0" index="0" disallow="bus truck rail_fast" speed="36.11" length="131.18" width="2.50" customShape="1" shape="-33.04,23.19 -33.45,23.01 -35.56,21.62 -41.18,17.34 -46.56,12.78 -52.07,7.59 -57.31,2.12 -62.62,-3.96 -68.28,-11.06 -74.24,-19.21 -81.32,-29.64 -100.73,-59.75 -107.85,-70.17 -112.35,-76.31"/>
    </edge>
    <edge id="1313" from="7" to="8" priority="1" spreadType="center" length="153.45">
        <lane id="1313_0" index="0" disallow="rail_fast" speed="36.11" length="153.45" width="2.50" customShape="1" shape="54.64,-192.60 28.49,-120.46 2.85,-49.74"/>
    </edge>
    <edge id="1314" from="9" to="10" priority="1" spreadType="center" length="153.45">
        <lane id="1314_0" index="0" disallow="rail_fast" speed="36.11" length="153.45" width="2.50" customShape="1" shape="0.46,-50.49 26.14,-121.32 52.29,-193.45"/>
    </edge>
    <edge id="1315" from="11" to="12" priority="1" spreadType="center" length="0.26">
        <lane id="1315_0" index="0" disallow="rail_fast" speed="36.11" length="0.26" width="2.48" customShape="1" shape="-113.60,-81.25 -113.40,-81.23"/>
    </edge>
    <edge id="1316" from="13" to="14" priority="1" spreadType="center" length="60.30">
        <lane id="1316_0" index="0" disallow="rail_fast" speed="36.11" length="60.30" width="2.50" customShape="1" shape="-2.55,-34.72 -11.98,-8.16 -21.43,18.44"/>
    </edge>
    <edge id="1317" from="15" to="16" priority="1" spreadType="center" length="60.26">
        <lane id="1317_0" index="0" disallow="rail_fast" speed="36.11" length="60.26" width="2.50" customShape="1" shape="-23.92,17.98 -14.34,-9.00 -4.75,-35.98"/>
    </edge>
    <edge id="1318" from="17" to="18" priority="1" spreadType="center" length="58.86">
        <lane id="1318_0" index="0" disallow="bus truck rail_fast" speed="36.11" length="58.86" width="2.49" customShape="1" shape="-61.66,-63.89 -14.54,-47.74 -9.13,-45.83"/>
    </edge>
    <edge id="1319" from="19" to="20" priority="1" spreadType="center" length="39.61">
        <lane id="1319_0" index="0" disallow="rail_fast" speed="36.11" length="39.61" width="2.50" customShape="1" shape="-106.74,-79.37 -89.39,-73.41 -72.08,-67.47"/>
    </edge>
    <edge id="1320" from="18" to="13" priority="1" spreadType="center" length="11.70">
        <lane id="1320_0" index="0" disallow="bus truck rail_fast" speed="36.11" length="11.70" width="2.49" customShape="1" shape="-2.88,-42.67 -2.77,-42.50"/>
    </edge>
    <edge id="1321" from="12" to="19" priority="1" spreadType="center" length="5.80">
        <lane id="1321_0" index="0" disallow="bus truck rail_fast" speed="36.11" length="5.80" width="2.50" customShape="1" shape="-112.42,-81.03 -111.66,-80.90 -109.52,-80.26"/>
    </edge>
    <edge id="1322" from="8" to="13" priority="1" spreadType="center" length="12.49">
        <lane id="1322_0" index="0" disallow="rail_fast" speed="36.11" length="12.49" width="2.50" customShape="1" shape="1.83,-46.92 0.67,-43.70"/>
    </edge>
    <edge id="1323" from="14" to="1" priority="1" spreadType="center" length="13.09">
        <lane id="1323_0" index="0" disallow="rail_fast" speed="36.11" length="13.09" width="2.50" customShape="1" shape="-24.70,27.58 -25.99,31.15"/>
    </edge>
    <edge id="1324" from="16" to="9" priority="1" spreadType="center" length="12.53">
        <lane id="1324_0" index="0" disallow="rail_fast" speed="36.11" length="12.53" width="2.50" customShape="1" shape="-3.74,-38.81 -0.58,-47.61"/>
    </edge>
    <edge id="1325" from="18" to="9" priority="1" spreadType="center" length="9.61">
        <lane id="1325_0" index="0" disallow="bus truck rail_fast" speed="36.11" length="9.61" width="2.49" customShape="1" shape="-1.36,-46.64 -1.06,-47.14"/>
    </edge>
    <edge id="1326" from="20" to="17" priority="1" spreadType="center" length="8.02">
        <lane id="1326_0" index="0" disallow="rail_fast" speed="36.11" length="8.02" width="2.50" customShape="1" shape="-69.24,-66.49 -66.87,-65.68 -64.50,-64.86"/>
    </edge>
    <edge id="1327" from="14" to="5" priority="1" spreadType="center" length="11.59">
        <lane id="1327_0" index="0" disallow="bus truck rail_fast" speed="36.11" length="11.59" width="2.50" customShape="1" shape="-26.94,24.48 -27.14,24.49"/>
    </edge>
    <edge id="1328" from="4" to="5" priority="1" spreadType="center" length="9.61">
        <lane id="1328_0" index="0" disallow="bus truck rail_fast" speed="36.11" length="9.61" width="2.50" customShape="1" shape="-30.61,24.23 -26.14,26.19"/>
    </edge>
    <edge id="1329" from="6" to="11" priority="1" spreadType="center" length="4.88">
        <lane id="1329_0" index="0" disallow="bus truck rail_fast" speed="36.11" length="4.88" width="2.48" customShape="1" shape="-114.04,-78.71 -114.40,-79.26 -114.72,-79.88 -114.92,-80.56 -114.67,-81.17 -114.35,-81.22"/>
    </edge>
    <edge id="1330" from="4" to="15" priority="1" spreadType="center" length="13.11">
        <lane id="1330_0" index="0" disallow="rail_fast" speed="36.11" length="13.11" width="2.50" customShape="1" shape="-26.11,24.11 -24.93,20.80"/>
    </edge>

    <junction id="1" type="priority" x="-26.49" y="32.57" incLanes="1323_0" intLanes=":1_0_0" shape="-24.81,31.58 -27.16,30.73 -28.17,33.56 -25.82,34.40">
        <request index="0" response="0" foes="0" cont="0"/>
    </junction>
    <junction id="10" type="dead_end" x="52.29" y="-193.45" incLanes="1314_0" intLanes="" shape="51.11,-193.87 53.46,-193.02"/>
    <junction id="11" type="priority" x="-113.99" y="-81.28" incLanes="1329_0" intLanes=":11_0_0" shape="-115.22,-82.33 -113.38,-79.98 -113.16,-82.45">
        <request index="0" response="0" foes="0" cont="0"/>
    </junction>
    <junction id="12" type="priority" x="-113.74" y="-81.26" incLanes="1315_0" intLanes=":12_0_0" shape="-112.64,-79.80 -112.21,-82.26 -114.95,-82.62 -115.18,-80.15">
        <request index="0" response="0" foes="0" cont="0"/>
    </junction>
    <junction id="13" type="priority" x="-1.89" y="-36.57" incLanes="1322_0 1320_0" intLanes=":13_0_0 :13_1_0" shape="1.85,-43.28 -0.50,-44.12 -0.98,-43.35 -1.28,-43.20 -1.62,-43.22 -2.01,-43.41 -2.43,-43.76 -6.41,-43.42 -3.94,-41.56 -3.30,-40.29 -3.05,-38.79 -3.19,-37.08 -3.72,-35.13 -1.37,-34.30">
        <request index="0" response="00" foes="10" cont="0"/>
        <request index="1" response="01" foes="01" cont="0"/>
    </junction>
    <junction id="14" type="priority" x="-22.08" y="20.25" incLanes="1316_0" intLanes=":14_0_0 :14_1_0" shape="-20.26,18.85 -22.61,18.02 -24.36,21.21 -25.48,22.23 -26.78,22.87 -28.25,23.12 -29.88,22.99 -27.07,25.73 -26.18,25.89 -25.92,26.08 -25.78,26.36 -25.77,26.72 -25.88,27.15 -23.53,28.00">
        <request index="0" response="00" foes="00" cont="0"/>
        <request index="1" response="00" foes="00" cont="0"/>
    </junction>
    <junction id="15" type="priority" x="-24.42" y="19.39" incLanes="1330_0" intLanes=":15_0_0" shape="-22.74,18.39 -25.10,17.56 -26.11,20.38 -23.75,21.22">
        <request index="0" response="0" foes="0" cont="0"/>
    </junction>
    <junction id="16" type="priority" x="-4.24" y="-37.40" incLanes="1317_0" intLanes=":16_0_0" shape="-2.56,-38.39 -4.91,-39.23 -5.92,-36.40 -3.57,-35.57">
        <request index="0" response="0" foes="0" cont="0"/>
    </junction>
    <junction id="17" type="priority" x="-63.08" y="-64.38" incLanes="1326_0" intLanes=":17_0_0" shape="-62.06,-62.71 -61.25,-65.07 -64.09,-66.05 -64.90,-63.68">
        <request index="0" response="0" foes="0" cont="0"/>
    </junction>
    <junction id="18" type="priority" x="-7.42" y="-45.23" incLanes="1318_0" intLanes=":18_0_0 :18_1_0" shape="-2.89,-40.12 -1.47,-42.77 -1.78,-43.55 -1.79,-43.93 -1.70,-44.29 -1.52,-44.63 -1.24,-44.97 -1.53,-48.81 -3.03,-46.93 -4.12,-46.47 -5.42,-46.33 -6.96,-46.50 -8.71,-47.00 -9.54,-44.65 -6.22,-43.24 -4.97,-42.49 -4.00,-41.73 -3.31,-40.93">
        <request index="0" response="00" foes="00" cont="0"/>
        <request index="1" response="00" foes="00" cont="0"/>
    </junction>
    <junction id="19" type="priority" x="-108.12" y="-79.84" incLanes="1321_0" intLanes=":19_0_0" shape="-107.15,-78.19 -106.34,-80.55 -109.16,-81.46 -109.87,-79.06">
        <request index="0" response="0" foes="0" cont="0"/>
    </junction>
    <junction id="2" type="dead_end" x="-46.61" y="120.12" incLanes="1310_0" intLanes="" shape="-45.37,120.29 -47.85,119.95"/>
    <junction id="20" type="priority" x="-70.66" y="-66.98" incLanes="1319_0" intLanes=":20_0_0" shape="-69.65,-65.31 -68.84,-67.67 -71.67,-68.65 -72.49,-66.28">
        <request index="0" response="0" foes="0" cont="0"/>
    </junction>
    <junction id="3" type="dead_end" x="-49.09" y="119.76" incLanes="" intLanes="" shape="-47.85,119.93 -50.32,119.59"/>
    <junction id="4" type="priority" x="-28.85" y="31.73" incLanes="1311_0" intLanes=":4_0_0 :4_1_0" shape="-24.94,24.53 -27.29,23.69 -27.63,24.19 -27.85,24.29 -28.12,24.28 -28.43,24.18 -28.78,23.97 -32.96,24.57 -30.53,32.74 -28.18,33.58">
        <request index="0" response="00" foes="00" cont="0"/>
        <request index="1" response="00" foes="00" cont="0"/>
    </junction>
    <junction id="5" type="priority" x="-31.60" y="23.80" incLanes="1328_0 1327_0" intLanes=":5_0_0 :5_1_0" shape="-29.65,30.03 -27.02,27.15 -26.98,26.40 -26.85,26.11 -26.64,25.88 -26.35,25.70 -25.99,25.58 -25.34,22.67 -27.31,23.18 -28.45,23.17 -29.71,22.97 -31.08,22.60 -32.55,22.04 -33.53,24.34 -30.91,25.90 -30.09,26.80 -29.61,27.80 -29.47,28.87">
        <request index="0" response="00" foes="10" cont="0"/>
        <request index="1" response="01" foes="01" cont="0"/>
    </junction>
    <junction id="6" type="priority" x="-113.21" y="-77.50" incLanes="1312_0" intLanes=":6_0_0" shape="-113.36,-75.58 -111.34,-77.05 -113.01,-79.41 -115.06,-78.02">
        <request index="0" response="0" foes="0" cont="0"/>
    </junction>
    <junction id="7" type="dead_end" x="54.64" y="-192.60" incLanes="" intLanes="" shape="53.46,-193.02 55.81,-192.17"/>
    <junction id="8" type="priority" x="2.33" y="-48.33" incLanes="1313_0" intLanes=":8_0_0" shape="4.02,-49.31 1.67,-50.17 0.65,-47.34 3.00,-46.50">
        <request index="0" response="0" foes="0" cont="0"/>
    </junction>
    <junction id="9" type="priority" x="-0.01" y="-49.19" incLanes="1325_0 1324_0" intLanes=":9_0_0 :9_1_0" shape="1.63,-50.06 -0.72,-50.92 -1.76,-48.03 0.60,-47.19 1.71,-50.52 2.20,-52.56 2.06,-53.31 1.30,-52.77 -0.10,-50.93 -2.12,-47.80 0.01,-46.49 0.74,-47.75 0.96,-48.21 1.14,-48.69">
        <request index="0" response="10" foes="10" cont="0"/>
        <request index="1" response="00" foes="01" cont="0"/>
    </junction>

    <connection from="1311" to="1328" fromLane="0" toLane="0" contPos="-4.00" via=":4_0_0" dir="R" state="M"/>
    <connection from="1311" to="1330" fromLane="0" toLane="0" contPos="-4.00" via=":4_1_0" dir="s" state="M"/>
    <connection from="1312" to="1329" fromLane="0" toLane="0" contPos="-4.00" via=":6_0_0" dir="s" state="M"/>
    <connection from="1313" to="1322" fromLane="0" toLane="0" contPos="-4.00" via=":8_0_0" dir="s" state="M"/>
    <connection from="1315" to="1321" fromLane="0" toLane="0" contPos="-4.00" via=":12_0_0" dir="s" state="M"/>
    <connection from="1316" to="1323" fromLane="0" toLane="0" contPos="-4.00" via=":14_0_0" dir="s" state="M"/>
    <connection from="1316" to="1327" fromLane="0" toLane="0" contPos="-4.00" via=":14_1_0" dir="l" state="M"/>
    <connection from="1317" to="1324" fromLane="0" toLane="0" contPos="-4.00" via=":16_0_0" dir="s" state="M"/>
    <connection from="1318" to="1325" fromLane="0" toLane="0" contPos="-4.00" via=":18_0_0" dir="r" state="M"/>
    <connection from="1318" to="1320" fromLane="0" toLane="0" contPos="-4.00" via=":18_1_0" dir="s" state="M"/>
    <connection from="1319" to="1326" fromLane="0" toLane="0" contPos="-4.00" via=":20_0_0" dir="s" state="M"/>
    <connection from="1320" to="1316" fromLane="0" toLane="0" contPos="-4.00" via=":13_1_0" dir="l" state="m"/>
    <connection from="1321" to="1319" fromLane="0" toLane="0" contPos="-4.00" via=":19_0_0" dir="s" state="M"/>
    <connection from="1322" to="1316" fromLane="0" toLane="0" contPos="-4.00" via=":13_0_0" dir="s" state="M"/>
    <connection from="1323" to="1310" fromLane="0" toLane="0" contPos="-4.00" via=":1_0_0" dir="s" state="M"/>
    <connection from="1324" to="1314" fromLane="0" toLane="0" contPos="-4.00" via=":9_1_0" dir="s" state="M"/>
    <connection from="1325" to="1314" fromLane="0" toLane="0" contPos="-4.00" via=":9_0_0" dir="s" state="m"/>
    <connection from="1326" to="1318" fromLane="0" toLane="0" contPos="-4.00" via=":17_0_0" dir="s" state="M"/>
    <connection from="1327" to="1312" fromLane="0" toLane="0" contPos="-4.00" via=":5_1_0" dir="l" state="m"/>
    <connection from="1328" to="1312" fromLane="0" toLane="0" contPos="-4.00" via=":5_0_0" dir="s" state="M"/>
    <connection from="1329" to="1315" fromLane="0" toLane="0" contPos="-4.00" via=":11_0_0" dir="l" state="M"/>
    <connection from="1330" to="1317" fromLane="0" toLane="0" contPos="-4.00" via=":15_0_0" dir="s" state="M"/>

    <connection from=":1_0" to="1310" fromLane="0" toLane="0" dir="s" state="M"/>
    <connection from=":11_0" to="1315" fromLane="0" toLane="0" dir="l" state="M"/>
    <connection from=":12_0" to="1321" fromLane="0" toLane="0" dir="s" state="M"/>
    <connection from=":13_0" to="1316" fromLane="0" toLane="0" dir="s" state="M"/>
    <connection from=":13_1" to="1316" fromLane="0" toLane="0" dir="l" state="M"/>
    <connection from=":14_0" to="1323" fromLane="0" toLane="0" dir="s" state="M"/>
    <connection from=":14_1" to="1327" fromLane="0" toLane="0" dir="l" state="M"/>
    <connection from=":15_0" to="1317" fromLane="0" toLane="0" dir="s" state="M"/>
    <connection from=":16_0" to="1324" fromLane="0" toLane="0" dir="s" state="M"/>
    <connection from=":17_0" to="1318" fromLane="0" toLane="0" dir="s" state="M"/>
    <connection from=":18_0" to="1325" fromLane="0" toLane="0" dir="r" state="M"/>
    <connection from=":18_1" to="1320" fromLane="0" toLane="0" dir="s" state="M"/>
    <connection from=":19_0" to="1319" fromLane="0" toLane="0" dir="s" state="M"/>
    <connection from=":20_0" to="1326" fromLane="0" toLane="0" dir="s" state="M"/>
    <connection from=":4_0" to="1328" fromLane="0" toLane="0" dir="R" state="M"/>
    <connection from=":4_1" to="1330" fromLane="0" toLane="0" dir="s" state="M"/>
    <connection from=":5_0" to="1312" fromLane="0" toLane="0" dir="s" state="M"/>
    <connection from=":5_1" to="1312" fromLane="0" toLane="0" dir="l" state="M"/>
    <connection from=":6_0" to="1329" fromLane="0" toLane="0" dir="s" state="M"/>
    <connection from=":8_0" to="1322" fromLane="0" toLane="0" dir="s" state="M"/>
    <connection from=":9_0" to="1314" fromLane="0" toLane="0" dir="s" state="M"/>
    <connection from=":9_1" to="1314" fromLane="0" toLane="0" dir="s" state="M"/>

</net>
