<!-- generated on 2020-12-18 15:39:56.825705 by ipykernel_launcher.py v1_2_0+5214-53edc58fcd
-->
<edges>
	<edge from="1" function="normal" id="1" length="199.0" numLanes="3" priority="1" speed="36.11111111111111" spreadType="center" to="2">
		<lane allow="pedestrian rail private passenger ship delivery vip emergency bicycle rail_electric army rail_urban trailer coach bus custom2 tram taxi evehicle custom1 motorcycle authority truck hov moped" index="0" length="199.0" shape="0.0,0.0 1.0,0.0 2.0,0.0 3.0,0.0 4.0,0.0 5.0,0.0 6.0,0.0 7.0,0.0 8.0,0.0 9.0,0.0 10.0,0.0 11.0,0.0 12.0,0.0 13.0,0.0 14.0,0.0 15.0,0.0 16.0,0.0 17.0,0.0 18.0,0.0 19.0,0.0 20.0,0.0 21.0,0.0 22.0,0.0 23.0,0.0 24.0,0.0 25.0,0.0 26.0,0.0 27.0,0.0 28.0,0.0 29.0,0.0 30.0,0.0 31.0,0.0 32.0,0.0 33.0,0.0 34.0,0.0 35.0,0.0 36.0,0.0 37.0,0.0 38.0,0.0 39.0,0.0 40.0,0.0 41.0,0.0 42.0,0.0 43.0,0.0 44.0,0.0 45.0,0.0 46.0,0.0 47.0,0.0 48.0,0.0 49.0,0.0 50.0,0.0 51.0,0.0 52.0,0.0 53.0,0.0 54.0,0.0 55.0,0.0 56.0,0.0 57.0,0.0 58.0,0.0 59.0,0.0 60.0,0.0 61.0,0.0 62.0,0.0 63.0,0.0 64.0,0.0 65.0,0.0 66.0,0.0 67.0,0.0 68.0,0.0 69.0,0.0 70.0,0.0 71.0,0.0 72.0,0.0 73.0,0.0 74.0,0.0 75.0,0.0 76.0,0.0 77.0,0.0 78.0,0.0 79.0,0.0 80.0,0.0 81.0,0.0 82.0,0.0 83.0,0.0 84.0,0.0 85.0,0.0 86.0,0.0 87.0,0.0 88.0,0.0 89.0,0.0 90.0,0.0 91.0,0.0 92.0,0.0 93.0,0.0 94.0,0.0 95.0,0.0 96.0,0.0 97.0,0.0 98.0,0.0 99.0,0.0 100.0,0.0 101.0,0.0 102.0,0.0 103.0,0.0 104.0,0.0 105.0,0.0 106.0,0.0 107.0,0.0 108.0,0.0 109.0,0.0 110.0,0.0 111.0,0.0 112.0,0.0 113.0,0.0 114.0,0.0 115.0,0.0 116.0,0.0 117.0,0.0 118.0,0.0 119.0,0.0 120.0,0.0 121.0,0.0 122.0,0.0 123.0,0.0 124.0,0.0 125.0,0.0 126.0,0.0 127.0,0.0 128.0,0.0 129.0,0.0 130.0,0.0 131.0,0.0 132.0,0.0 133.0,0.0 134.0,0.0 135.0,0.0 136.0,0.0 137.0,0.0 138.0,0.0 139.0,0.0 140.0,0.0 141.0,0.0 142.0,0.0 143.0,0.0 144.0,0.0 145.0,0.0 146.0,0.0 147.0,0.0 148.0,0.0 149.0,0.0 150.0,0.0 151.0,0.0 152.0,0.0 153.0,0.0 154.0,0.0 155.0,0.0 156.0,0.0 157.0,0.0 158.0,0.0 159.0,0.0 160.0,0.0 161.0,0.0 162.0,0.0 163.0,0.0 164.0,0.0 165.0,0.0 166.0,0.0 167.0,0.0 168.0,0.0 169.0,0.0 170.0,0.0 171.0,0.0 172.0,0.0 173.0,0.0 174.0,0.0 175.0,0.0 176.0,0.0 177.0,0.0 178.0,0.0 179.0,0.0 180.0,0.0 181.0,0.0 182.0,0.0 183.0,0.0 184.0,0.0 185.0,0.0 186.0,0.0 187.0,0.0 188.0,0.0 189.0,0.0 190.0,0.0 191.0,0.0 192.0,0.0 193.0,0.0 194.0,0.0 195.0,0.0 196.0,0.0 197.0,0.0 198.0,0.0 199.0,0.0" speed="36.11111111111111" width="3.5"/>
		<lane allow="pedestrian rail private passenger ship delivery vip emergency bicycle rail_electric army rail_urban trailer coach bus custom2 tram taxi evehicle custom1 motorcycle authority truck hov moped" index="1" length="199.0" shape="0.0,3.5 1.0,3.5 2.0,3.5 3.0,3.5 4.0,3.5 5.0,3.5 6.0,3.5 7.0,3.5 8.0,3.5 9.0,3.5 10.0,3.5 11.0,3.5 12.0,3.5 13.0,3.5 14.0,3.5 15.0,3.5 16.0,3.5 17.0,3.5 18.0,3.5 19.0,3.5 20.0,3.5 21.0,3.5 22.0,3.5 23.0,3.5 24.0,3.5 25.0,3.5 26.0,3.5 27.0,3.5 28.0,3.5 29.0,3.5 30.0,3.5 31.0,3.5 32.0,3.5 33.0,3.5 34.0,3.5 35.0,3.5 36.0,3.5 37.0,3.5 38.0,3.5 39.0,3.5 40.0,3.5 41.0,3.5 42.0,3.5 43.0,3.5 44.0,3.5 45.0,3.5 46.0,3.5 47.0,3.5 48.0,3.5 49.0,3.5 50.0,3.5 51.0,3.5 52.0,3.5 53.0,3.5 54.0,3.5 55.0,3.5 56.0,3.5 57.0,3.5 58.0,3.5 59.0,3.5 60.0,3.5 61.0,3.5 62.0,3.5 63.0,3.5 64.0,3.5 65.0,3.5 66.0,3.5 67.0,3.5 68.0,3.5 69.0,3.5 70.0,3.5 71.0,3.5 72.0,3.5 73.0,3.5 74.0,3.5 75.0,3.5 76.0,3.5 77.0,3.5 78.0,3.5 79.0,3.5 80.0,3.5 81.0,3.5 82.0,3.5 83.0,3.5 84.0,3.5 85.0,3.5 86.0,3.5 87.0,3.5 88.0,3.5 89.0,3.5 90.0,3.5 91.0,3.5 92.0,3.5 93.0,3.5 94.0,3.5 95.0,3.5 96.0,3.5 97.0,3.5 98.0,3.5 99.0,3.5 100.0,3.5 101.0,3.5 102.0,3.5 103.0,3.5 104.0,3.5 105.0,3.5 106.0,3.5 107.0,3.5 108.0,3.5 109.0,3.5 110.0,3.5 111.0,3.5 112.0,3.5 113.0,3.5 114.0,3.5 115.0,3.5 116.0,3.5 117.0,3.5 118.0,3.5 119.0,3.5 120.0,3.5 121.0,3.5 122.0,3.5 123.0,3.5 124.0,3.5 125.0,3.5 126.0,3.5 127.0,3.5 128.0,3.5 129.0,3.5 130.0,3.5 131.0,3.5 132.0,3.5 133.0,3.5 134.0,3.5 135.0,3.5 136.0,3.5 137.0,3.5 138.0,3.5 139.0,3.5 140.0,3.5 141.0,3.5 142.0,3.5 143.0,3.5 144.0,3.5 145.0,3.5 146.0,3.5 147.0,3.5 148.0,3.5 149.0,3.5 150.0,3.5 151.0,3.5 152.0,3.5 153.0,3.5 154.0,3.5 155.0,3.5 156.0,3.5 157.0,3.5 158.0,3.5 159.0,3.5 160.0,3.5 161.0,3.5 162.0,3.5 163.0,3.5 164.0,3.5 165.0,3.5 166.0,3.5 167.0,3.5 168.0,3.5 169.0,3.5 170.0,3.5 171.0,3.5 172.0,3.5 173.0,3.5 174.0,3.5 175.0,3.5 176.0,3.5 177.0,3.5 178.0,3.5 179.0,3.5 180.0,3.5 181.0,3.5 182.0,3.5 183.0,3.5 184.0,3.5 185.0,3.5 186.0,3.5 187.0,3.5 188.0,3.5 189.0,3.5 190.0,3.5 191.0,3.5 192.0,3.5 193.0,3.5 194.0,3.5 195.0,3.5 196.0,3.5 197.0,3.5 198.0,3.5 199.0,3.5" speed="36.11111111111111" width="3.5"/>
		<lane allow="pedestrian rail private passenger ship delivery vip emergency bicycle rail_electric army rail_urban trailer coach bus custom2 tram taxi evehicle custom1 motorcycle authority truck hov moped" index="2" length="199.0" shape="0.0,7.0 1.0,7.0 2.0,7.0 3.0,7.0 4.0,7.0 5.0,7.0 6.0,7.0 7.0,7.0 8.0,7.0 9.0,7.0 10.0,7.0 11.0,7.0 12.0,7.0 13.0,7.0 14.0,7.0 15.0,7.0 16.0,7.0 17.0,7.0 18.0,7.0 19.0,7.0 20.0,7.0 21.0,7.0 22.0,7.0 23.0,7.0 24.0,7.0 25.0,7.0 26.0,7.0 27.0,7.0 28.0,7.0 29.0,7.0 30.0,7.0 31.0,7.0 32.0,7.0 33.0,7.0 34.0,7.0 35.0,7.0 36.0,7.0 37.0,7.0 38.0,7.0 39.0,7.0 40.0,7.0 41.0,7.0 42.0,7.0 43.0,7.0 44.0,7.0 45.0,7.0 46.0,7.0 47.0,7.0 48.0,7.0 49.0,7.0 50.0,7.0 51.0,7.0 52.0,7.0 53.0,7.0 54.0,7.0 55.0,7.0 56.0,7.0 57.0,7.0 58.0,7.0 59.0,7.0 60.0,7.0 61.0,7.0 62.0,7.0 63.0,7.0 64.0,7.0 65.0,7.0 66.0,7.0 67.0,7.0 68.0,7.0 69.0,7.0 70.0,7.0 71.0,7.0 72.0,7.0 73.0,7.0 74.0,7.0 75.0,7.0 76.0,7.0 77.0,7.0 78.0,7.0 79.0,7.0 80.0,7.0 81.0,7.0 82.0,7.0 83.0,7.0 84.0,7.0 85.0,7.0 86.0,7.0 87.0,7.0 88.0,7.0 89.0,7.0 90.0,7.0 91.0,7.0 92.0,7.0 93.0,7.0 94.0,7.0 95.0,7.0 96.0,7.0 97.0,7.0 98.0,7.0 99.0,7.0 100.0,7.0 101.0,7.0 102.0,7.0 103.0,7.0 104.0,7.0 105.0,7.0 106.0,7.0 107.0,7.0 108.0,7.0 109.0,7.0 110.0,7.0 111.0,7.0 112.0,7.0 113.0,7.0 114.0,7.0 115.0,7.0 116.0,7.0 117.0,7.0 118.0,7.0 119.0,7.0 120.0,7.0 121.0,7.0 122.0,7.0 123.0,7.0 124.0,7.0 125.0,7.0 126.0,7.0 127.0,7.0 128.0,7.0 129.0,7.0 130.0,7.0 131.0,7.0 132.0,7.0 133.0,7.0 134.0,7.0 135.0,7.0 136.0,7.0 137.0,7.0 138.0,7.0 139.0,7.0 140.0,7.0 141.0,7.0 142.0,7.0 143.0,7.0 144.0,7.0 145.0,7.0 146.0,7.0 147.0,7.0 148.0,7.0 149.0,7.0 150.0,7.0 151.0,7.0 152.0,7.0 153.0,7.0 154.0,7.0 155.0,7.0 156.0,7.0 157.0,7.0 158.0,7.0 159.0,7.0 160.0,7.0 161.0,7.0 162.0,7.0 163.0,7.0 164.0,7.0 165.0,7.0 166.0,7.0 167.0,7.0 168.0,7.0 169.0,7.0 170.0,7.0 171.0,7.0 172.0,7.0 173.0,7.0 174.0,7.0 175.0,7.0 176.0,7.0 177.0,7.0 178.0,7.0 179.0,7.0 180.0,7.0 181.0,7.0 182.0,7.0 183.0,7.0 184.0,7.0 185.0,7.0 186.0,7.0 187.0,7.0 188.0,7.0 189.0,7.0 190.0,7.0 191.0,7.0 192.0,7.0 193.0,7.0 194.0,7.0 195.0,7.0 196.0,7.0 197.0,7.0 198.0,7.0 199.0,7.0" speed="36.11111111111111" width="3.5"/>
	</edge>
</edges>
