<!-- generated on 2020-12-18 15:39:56.922333 by ipykernel_launcher.py v1_2_0+5214-53edc58fcd
-->
<nodes>
	<node id="1" type="from" x="0.0" y="3.5"/>
	<node id="2" type="to" x="199.0" y="3.5"/>
</nodes>
