<routes>
	<vehicle depart="0.1" departLane="1" departPos="2.25" departSpeed="23.0" id="42" type="passenger">
		<route edges="1 1"/>
	</vehicle>
	<vehicle depart="0.1" departLane="0" departPos="50.0" departSpeed="22.0" id="44" type="passenger">
		<route edges="1"/>
	</vehicle>
	<vehicle depart="0.1" departLane="1" departPos="30.0" departSpeed="0" id="43" type="passenger_static">
		<route edges="1"/>
	</vehicle>
</routes>
