<routes>
	<vehicle depart="0.1" departLane="0" departPos="7.571778210712443" departSpeed="1.8959839" id="30" type="passenger">
		<route edges=":61_3 103837 103575"/>
	</vehicle>
	<vehicle depart="0.1" departLane="0" departPos="31.92328391597693" departSpeed="4.3064209" id="35" type="passenger">
		<route edges="103609 103535"/>
	</vehicle>
	<vehicle depart="0.1" departLane="0" departPos="41.72461640086756" departSpeed="1.0291756" id="314" type="passenger">
		<route edges="103840 103837"/>
	</vehicle>
	<vehicle depart="0.1" departLane="0" departPos="21.86609007988594" departSpeed="0.032911082" id="316" type="passenger">
		<route edges=":61_1 103841"/>
	</vehicle>
	<vehicle depart="0.1" departLane="0" departPos="7.185336023911697" departSpeed="1.3975311" id="318" type="passenger">
		<route edges=":61_1 103841"/>
	</vehicle>
	<vehicle depart="0.1" departLane="0" departPos="34.48533078179467" departSpeed="3.9181056" id="330" type="passenger">
		<route edges=":59_2 103838 103609"/>
	</vehicle>
	<vehicle depart="0.1" departLane="0" departPos="16.06961793688986" departSpeed="5.3843811" id="336" type="motorcycle">
		<route edges=":59_2 103838"/>
	</vehicle>
	<vehicle depart="0.1" departLane="0" departPos="36.136465543771806" departSpeed="1.8269551" id="313" type="truck">
		<route edges=":61_5 103609"/>
	</vehicle>
</routes>
