<!-- generated on Tue Feb  9 22:19:22 2021 by Eclipse SUMO netconvert Version 1.8.0
<configuration xmlns:xsi="http://www.w3.org/2001/XMLSchema-instance" xsi:noNamespaceSchemaLocation="http://sumo.dlr.de/xsd/netconvertConfiguration.xsd">

    <input>
        <node-files value="./converted_scenarios/scenario-factory/BEL_Beringen-1_1_I-1-1/BEL_Beringen-1_1_I-1-1.nod.xml"/>
        <edge-files value="./converted_scenarios/scenario-factory/BEL_Beringen-1_1_I-1-1/BEL_Beringen-1_1_I-1-1.edg.xml"/>
        <connection-files value="./converted_scenarios/scenario-factory/BEL_Beringen-1_1_I-1-1/BEL_Beringen-1_1_I-1-1.con.xml"/>
        <tllogic-files value="./converted_scenarios/scenario-factory/BEL_Beringen-1_1_I-1-1/BEL_Beringen-1_1_I-1-1.tll.xml"/>
        <type-files value="/home/zen/commonroad-interactive-benchmarks/install/commonroad-map-tool/crmapconverter/sumo_map/templates/DEU.typ.xml"/>
    </input>

    <output>
        <output-file value="./converted_scenarios/scenario-factory/BEL_Beringen-1_1_I-1-1/BEL_Beringen-1_1_I-1-1.net.xml"/>
    </output>

    <processing>
        <geometry.remove.keep-edges.explicit value="true"/>
        <geometry.avoid-overlap value="true"/>
        <offset.disable-normalization value="true"/>
    </processing>

    <junctions>
        <no-turnarounds value="true"/>
        <junctions.internal-link-detail value="20"/>
    </junctions>

    <report>
        <aggregate-warnings value="5"/>
    </report>

    <random_number>
        <seed value="1234"/>
    </random_number>

</configuration>
--><net xmlns:xsi="http://www.w3.org/2001/XMLSchema-instance" version="1.6" junctionCornerDetail="5" junctionLinkDetail="20" limitTurnSpeed="5.50" xsi:noNamespaceSchemaLocation="http://sumo.dlr.de/xsd/net_file.xsd">

    <location netOffset="0.00,0.00" convBoundary="-436.20,692.50,-188.41,904.38" origBoundary="-436.20,692.50,-188.41,904.38" projParameter="!"/>

    <type id="highway.bridleway" priority="1" speed="2.78" allow="pedestrian" oneway="1" width="2.00"/>
    <type id="highway.bus_guideway" priority="1" speed="27.78" allow="bus" oneway="1"/>
    <type id="highway.cycleway" priority="1" speed="8.33" allow="bicycle" oneway="0" width="1.00"/>
    <type id="highway.footway" priority="1" speed="2.78" allow="pedestrian" oneway="1" width="2.00"/>
    <type id="highway.ford" priority="1" speed="2.78" allow="army" oneway="0"/>
    <type id="highway.living_street" priority="2" speed="2.78" disallow="tram rail_urban rail rail_electric rail_fast ship" oneway="0"/>
    <type id="highway.motorway" priority="14" speed="39.44" allow="private emergency authority army vip passenger hov taxi bus coach delivery truck trailer motorcycle evehicle custom1 custom2" oneway="1"/>
    <type id="highway.motorway_link" priority="9" speed="22.22" allow="private emergency authority army vip passenger hov taxi bus coach delivery truck trailer motorcycle evehicle custom1 custom2" oneway="1"/>
    <type id="highway.path" priority="1" speed="2.78" allow="pedestrian bicycle" oneway="0" width="2.00"/>
    <type id="highway.pedestrian" priority="1" speed="2.78" allow="pedestrian" oneway="1" width="2.00"/>
    <type id="highway.primary" priority="12" speed="27.78" disallow="pedestrian tram rail_urban rail rail_electric rail_fast ship" oneway="0"/>
    <type id="highway.primary_link" priority="7" speed="22.22" disallow="pedestrian tram rail_urban rail rail_electric rail_fast ship" oneway="0"/>
    <type id="highway.raceway" priority="15" speed="83.33" allow="vip" oneway="0"/>
    <type id="highway.residential" priority="3" speed="13.89" disallow="pedestrian tram rail_urban rail rail_electric rail_fast ship" oneway="0"/>
    <type id="highway.secondary" priority="11" speed="27.78" disallow="pedestrian tram rail_urban rail rail_electric rail_fast ship" oneway="0"/>
    <type id="highway.secondary_link" priority="6" speed="22.22" disallow="pedestrian tram rail_urban rail rail_electric rail_fast ship" oneway="0"/>
    <type id="highway.service" priority="1" speed="5.56" allow="pedestrian delivery bicycle" oneway="0"/>
    <type id="highway.stairs" priority="1" speed="1.39" allow="pedestrian" oneway="1" width="2.00"/>
    <type id="highway.step" priority="1" speed="1.39" allow="pedestrian" oneway="1" width="2.00"/>
    <type id="highway.steps" priority="1" speed="1.39" allow="pedestrian" oneway="1" width="2.00"/>
    <type id="highway.tertiary" priority="10" speed="22.22" disallow="pedestrian tram rail_urban rail rail_electric rail_fast ship" oneway="0"/>
    <type id="highway.tertiary_link" priority="5" speed="22.22" disallow="pedestrian tram rail_urban rail rail_electric rail_fast ship" oneway="0"/>
    <type id="highway.track" priority="1" speed="5.56" allow="pedestrian motorcycle moped bicycle" oneway="0"/>
    <type id="highway.trunk" priority="13" speed="27.78" disallow="pedestrian bicycle tram rail_urban rail rail_electric rail_fast ship" oneway="0"/>
    <type id="highway.trunk_link" priority="8" speed="22.22" disallow="pedestrian bicycle tram rail_urban rail rail_electric rail_fast ship" oneway="0"/>
    <type id="highway.unclassified" priority="4" speed="13.89" disallow="pedestrian tram rail_urban rail rail_electric rail_fast ship" oneway="0"/>
    <type id="highway.unsurfaced" priority="1" speed="8.33" disallow="tram rail_urban rail rail_electric rail_fast ship" oneway="0"/>
    <type id="railway.highspeed" priority="21" speed="69.44" allow="rail_fast" oneway="1"/>
    <type id="railway.light_rail" priority="19" speed="27.78" allow="rail_urban" oneway="1"/>
    <type id="railway.preserved" priority="16" speed="27.78" allow="rail" oneway="1"/>
    <type id="railway.rail" priority="20" speed="44.44" allow="rail" oneway="1"/>
    <type id="railway.subway" priority="18" speed="27.78" allow="rail_urban" oneway="1"/>
    <type id="railway.tram" priority="17" speed="13.89" allow="tram" oneway="1"/>

    <edge id=":57_0" function="internal">
        <lane id=":57_0_0" index="0" disallow="pedestrian tram rail_urban rail rail_electric rail_fast ship" speed="17.21" length="35.71" width="3.50" shape="-385.89,800.98 -390.87,802.08 -394.79,803.20 -398.64,804.57 -401.45,805.78 -404.16,807.19 -406.76,808.81 -409.19,810.67 -411.40,812.77 -413.35,815.13 -414.97,817.73 -415.44,818.65"/>
    </edge>
    <edge id=":57_1" function="internal">
        <lane id=":57_1_0" index="0" disallow="pedestrian tram rail_urban rail rail_electric rail_fast ship" speed="18.33" length="38.85" width="3.50" shape="-389.61,791.30 -390.54,791.53 -393.36,792.51 -396.01,793.86 -398.51,795.52 -400.86,797.44 -403.04,799.57 -405.09,801.85 -407.61,805.12 -409.93,808.56 -412.57,813.05 -415.44,818.65"/>
    </edge>
    <edge id=":57_2" function="internal">
        <lane id=":57_2_0" index="0" disallow="pedestrian tram rail_urban rail rail_electric rail_fast ship" speed="19.09" length="41.98" width="3.50" shape="-418.60,817.14 -415.56,811.23 -412.75,806.48 -410.27,802.82 -407.54,799.35 -405.32,796.89 -402.92,794.60 -400.34,792.53 -397.56,790.72 -394.60,789.24 -391.47,788.15 -390.40,787.89"/>
    </edge>
    <edge id=":57_3" function="internal">
        <lane id=":57_3_0" index="0" disallow="pedestrian tram rail_urban rail rail_electric rail_fast ship" speed="17.99" length="38.95" width="3.50" shape="-418.60,817.14 -418.06,816.08 -416.27,813.20 -414.11,810.55 -411.67,808.19 -409.01,806.11 -406.18,804.31 -403.23,802.76 -400.19,801.42 -396.06,799.93 -391.86,798.72 -386.58,797.55"/>
    </edge>
    <edge id=":58_0" function="internal">
        <lane id=":58_0_0" index="0" disallow="pedestrian tram rail_urban rail rail_electric rail_fast ship" speed="9.74" length="21.16" width="3.50" shape="-374.10,816.35 -374.37,815.23 -375.30,811.87 -376.46,808.62 -377.38,806.60 -378.50,804.68 -379.10,803.84 -379.77,803.05 -380.49,802.36 -381.26,801.78 -382.06,801.33 -382.90,801.02 -383.78,800.85 -384.70,800.82 -385.66,800.93"/>
    </edge>
    <edge id=":58_1" function="internal">
        <lane id=":58_1_0" index="0" disallow="pedestrian tram rail_urban rail rail_electric rail_fast ship" speed="36.11" length="25.37" width="3.48" shape="-374.10,816.35 -376.64,805.12 -379.48,791.56"/>
    </edge>
    <edge id=":58_2" function="internal">
        <lane id=":58_2_0" index="0" disallow="pedestrian tram rail_urban rail rail_electric rail_fast ship" speed="36.11" length="22.87" width="3.50" shape="-375.66,793.25 -373.22,804.39 -370.69,815.57"/>
    </edge>
    <edge id=":58_3" function="internal">
        <lane id=":58_3_0" index="0" disallow="pedestrian tram rail_urban rail rail_electric rail_fast ship" speed="8.10" length="13.65" width="3.50" shape="-375.66,793.25 -375.77,794.03 -376.37,795.90 -377.47,797.39 -378.77,798.46 -380.13,799.24 -381.51,799.82 -382.91,800.28 -385.66,800.93"/>
    </edge>
    <edge id=":58_4" function="internal">
        <lane id=":58_4_0" index="0" disallow="pedestrian tram rail_urban rail rail_electric rail_fast ship" speed="7.03" length="10.59" width="3.48" shape="-386.38,797.51 -384.29,797.04 -383.30,796.75 -382.32,796.40 -381.38,795.98 -380.50,795.43 -379.76,794.72 -379.29,793.81 -379.48,791.56"/>
    </edge>
    <edge id=":58_5" function="internal">
        <lane id=":58_5_0" index="0" disallow="pedestrian tram rail_urban rail rail_electric rail_fast ship" speed="10.94" length="26.63" width="3.50" shape="-386.38,797.51 -384.99,797.32 -383.66,797.32 -382.35,797.51 -381.08,797.89 -379.88,798.46 -378.77,799.19 -377.76,800.05 -376.85,801.02 -376.03,802.06 -374.62,804.32 -373.47,806.71 -372.08,810.44 -371.00,814.27 -370.69,815.57"/>
    </edge>
    <edge id=":59_0" function="internal">
        <lane id=":59_0_0" index="0" disallow="pedestrian tram rail_urban rail rail_electric rail_fast ship" speed="18.31" length="41.33" width="3.50" shape="-390.69,739.70 -392.16,733.67 -393.62,728.72 -395.36,723.85 -397.00,720.05 -398.90,716.39 -400.55,713.76 -402.41,711.28 -404.51,709.01 -406.07,707.64 -407.74,706.44 -409.54,705.41 -410.47,704.98"/>
    </edge>
    <edge id=":59_1" function="internal">
        <lane id=":59_1_0" index="0" disallow="pedestrian tram rail_urban rail rail_electric rail_fast ship" speed="36.11" length="46.04" width="3.50" shape="-368.49,723.89 -402.97,708.24 -410.47,704.98"/>
    </edge>
    <edge id=":59_2" function="internal">
        <lane id=":59_2_0" index="0" disallow="pedestrian tram rail_urban rail rail_electric rail_fast ship" speed="36.11" length="46.11" width="3.50" shape="-409.10,701.76 -401.57,705.04 -367.06,720.69"/>
    </edge>
    <edge id=":59_3" function="internal">
        <lane id=":59_3_0" index="0" disallow="pedestrian tram rail_urban rail rail_electric rail_fast ship" speed="19.02" length="44.62" width="3.50" shape="-409.10,701.76 -408.02,702.26 -406.01,703.40 -404.11,704.74 -402.35,706.25 -400.00,708.72 -397.94,711.40 -396.12,714.24 -394.04,718.16 -392.26,722.21 -390.39,727.36 -388.83,732.60 -387.28,738.92"/>
    </edge>
    <edge id=":60_0" function="internal">
        <lane id=":60_0_0" index="0" disallow="pedestrian tram rail_urban rail rail_electric rail_fast ship" speed="6.88" length="10.40" width="3.50" shape="-379.51,791.36 -379.70,791.63 -380.47,790.99 -381.41,790.64 -382.40,790.48 -383.41,790.43 -384.41,790.46 -385.42,790.55 -387.41,790.85 -389.39,791.25"/>
    </edge>
    <edge id=":60_1" function="internal">
        <lane id=":60_1_0" index="0" disallow="pedestrian tram rail_urban rail rail_electric rail_fast ship" speed="36.11" length="23.07" width="3.50" shape="-379.51,791.36 -382.28,778.08 -384.30,768.79"/>
    </edge>
    <edge id=":60_2" function="internal">
        <lane id=":60_2_0" index="0" disallow="pedestrian tram rail_urban rail rail_electric rail_fast ship" speed="36.11" length="25.55" width="3.50" shape="-380.88,768.04 -378.85,777.37 -375.69,793.06"/>
    </edge>
    <edge id=":60_3" function="internal">
        <lane id=":60_3_0" index="0" disallow="pedestrian tram rail_urban rail rail_electric rail_fast ship" speed="11.07" length="27.93" width="3.50" shape="-380.88,768.04 -380.16,771.98 -379.77,775.95 -379.77,778.61 -380.06,781.25 -380.34,782.55 -380.72,783.82 -381.23,785.05 -381.86,786.22 -382.63,787.30 -383.53,788.28 -384.55,789.13 -385.66,789.85 -386.85,790.44 -388.10,790.90 -389.39,791.25"/>
    </edge>
    <edge id=":60_4" function="internal">
        <lane id=":60_4_0" index="0" disallow="pedestrian tram rail_urban rail rail_electric rail_fast ship" speed="9.93" length="22.40" width="3.50" shape="-390.16,787.84 -389.17,787.57 -388.23,787.21 -387.36,786.76 -386.56,786.21 -385.84,785.56 -385.22,784.82 -384.69,783.99 -384.25,783.09 -383.90,782.12 -383.64,781.11 -383.45,780.07 -383.26,777.86 -383.30,775.63 -383.66,772.21 -384.30,768.79"/>
    </edge>
    <edge id=":60_5" function="internal">
        <lane id=":60_5_0" index="0" disallow="pedestrian tram rail_urban rail rail_electric rail_fast ship" speed="8.66" length="17.71" width="3.50" shape="-390.16,787.84 -387.54,787.33 -384.89,787.03 -383.49,786.99 -382.06,787.07 -380.59,787.34 -379.11,787.89 -377.73,788.80 -376.60,790.12 -375.69,793.06"/>
    </edge>
    <edge id=":61_0" function="internal">
        <lane id=":61_0_0" index="0" disallow="pedestrian tram rail_urban rail rail_electric rail_fast ship" speed="14.91" length="31.66" width="3.50" shape="-356.44,751.90 -356.74,748.68 -357.48,743.44 -358.34,739.33 -359.18,736.34 -360.24,733.44 -361.56,730.68 -362.59,728.99 -363.78,727.43 -365.12,726.05 -366.61,724.89 -368.31,723.97"/>
    </edge>
    <edge id=":61_1" function="internal">
        <lane id=":61_1_0" index="0" disallow="pedestrian tram rail_urban rail rail_electric rail_fast ship" speed="11.24" length="40.39" width="3.50" shape="-356.45,751.90 -356.58,748.90 -356.49,745.91 -356.08,742.92 -355.69,741.38 -355.14,739.87 -354.41,738.40 -353.46,737.02 -352.26,735.79 -350.87,734.79 -349.33,734.05 -347.73,733.57 -346.13,733.32 -344.54,733.25 -342.96,733.32 -339.99,733.78 -337.10,734.52 -334.31,735.47 -330.32,737.14"/>
    </edge>
    <edge id=":61_2" function="internal">
        <lane id=":61_2_0" index="0" disallow="pedestrian tram rail_urban rail rail_electric rail_fast ship" speed="10.15" length="32.62" width="3.50" shape="-331.74,740.33 -335.22,738.88 -337.59,738.07 -340.02,737.42 -342.50,737.02 -343.75,736.95 -345.00,736.98 -346.25,737.15 -347.46,737.47 -348.60,737.98 -349.64,738.69 -350.54,739.56 -351.28,740.57 -351.86,741.68 -352.30,742.86 -352.63,744.07 -352.99,746.55 -353.07,749.06 -352.96,751.56"/>
    </edge>
    <edge id=":61_3" function="internal">
        <lane id=":61_3_0" index="0" disallow="pedestrian tram rail_urban rail rail_electric rail_fast ship" speed="36.11" length="40.06" width="3.50" shape="-331.74,740.33 -350.00,732.16 -368.31,723.97"/>
    </edge>
    <edge id=":61_4" function="internal">
        <lane id=":61_4_0" index="0" disallow="pedestrian tram rail_urban rail rail_electric rail_fast ship" speed="36.11" length="40.09" width="3.50" shape="-366.91,720.76 -348.57,728.97 -330.32,737.14"/>
    </edge>
    <edge id=":61_5" function="internal">
        <lane id=":61_5_0" index="0" disallow="pedestrian tram rail_urban rail rail_electric rail_fast ship" speed="15.83" length="35.38" width="3.50" shape="-366.91,720.75 -364.83,721.88 -363.01,723.25 -361.39,724.85 -359.98,726.63 -358.75,728.55 -357.23,731.61 -356.01,734.80 -355.05,738.08 -354.09,742.53 -353.28,748.17 -352.96,751.56"/>
    </edge>
    <edge id=":62_0" function="internal">
        <lane id=":62_0_0" index="0" disallow="pedestrian tram rail_urban rail rail_electric rail_fast ship" speed="12.31" length="34.53" width="3.50" shape="-307.69,871.13 -310.32,871.72 -312.94,872.10 -315.59,872.22 -318.24,872.02 -319.54,871.78 -320.82,871.44 -322.07,871.00 -323.28,870.45 -324.44,869.79 -325.53,869.04 -326.55,868.19 -327.50,867.27 -329.18,865.22 -330.58,862.96 -331.72,860.57 -332.66,858.09 -333.41,855.54"/>
    </edge>
    <edge id=":62_1" function="internal">
        <lane id=":62_1_0" index="0" disallow="pedestrian tram rail_urban rail rail_electric rail_fast ship" speed="11.30" length="28.93" width="3.50" shape="-330.03,854.64 -329.37,856.88 -328.56,859.03 -327.59,861.07 -326.42,862.97 -325.01,864.69 -324.26,865.42 -323.44,866.10 -322.57,866.71 -321.64,867.24 -320.67,867.68 -319.67,868.04 -318.63,868.32 -317.59,868.51 -315.36,868.68 -313.12,868.59 -310.86,868.26 -308.60,867.75"/>
    </edge>
    <edge id=":62_2" function="internal">
        <lane id=":62_2_0" index="0" disallow="pedestrian tram rail_urban rail rail_electric rail_fast ship" speed="23.96" length="37.40" width="3.50" shape="-330.03,854.64 -328.99,858.73 -327.17,866.90 -326.06,873.13 -325.41,878.38 -325.16,882.66 -325.21,885.93 -325.60,889.22 -326.17,891.47"/>
    </edge>
    <edge id=":62_3" function="internal">
        <lane id=":62_3_0" index="0" disallow="pedestrian tram rail_urban rail rail_electric rail_fast ship" speed="23.23" length="35.21" width="3.50" shape="-329.45,890.21 -329.00,888.41 -328.67,885.39 -328.64,882.36 -328.91,878.33 -329.56,873.32 -330.64,867.35 -332.42,859.46 -333.41,855.54"/>
    </edge>
    <edge id=":63_0" function="internal">
        <lane id=":63_0_0" index="0" disallow="pedestrian tram rail_urban rail rail_electric rail_fast ship" speed="36.11" length="38.00" width="3.50" shape="-253.45,772.73 -260.99,769.41 -275.20,763.44 -288.56,758.20"/>
    </edge>
    <edge id=":63_1" function="internal">
        <lane id=":63_1_0" index="0" disallow="pedestrian tram rail_urban rail rail_electric rail_fast ship" speed="12.22" length="33.88" width="3.50" shape="-261.13,746.57 -262.18,748.88 -263.40,751.12 -264.86,753.26 -266.58,755.24 -268.55,756.96 -269.69,757.74 -270.86,758.41 -272.08,758.97 -273.35,759.43 -274.65,759.78 -275.96,760.02 -277.31,760.17 -279.90,760.17 -282.47,759.88 -284.99,759.34 -288.56,758.20"/>
    </edge>
    <edge id=":63_2" function="internal">
        <lane id=":63_2_0" index="0" disallow="pedestrian tram rail_urban rail rail_electric rail_fast ship" speed="11.23" length="28.41" width="3.50" shape="-287.34,754.92 -284.22,755.92 -282.09,756.38 -279.92,756.63 -277.73,756.62 -276.65,756.51 -275.57,756.31 -274.51,756.03 -273.49,755.66 -272.49,755.20 -271.54,754.67 -270.64,754.05 -268.99,752.62 -267.56,750.97 -266.33,749.16 -265.27,747.25 -264.38,745.25"/>
    </edge>
    <edge id=":63_3" function="internal">
        <lane id=":63_3_0" index="0" disallow="pedestrian tram rail_urban rail rail_electric rail_fast ship" speed="36.11" length="38.23" width="3.50" shape="-287.34,754.92 -273.89,760.19 -259.61,766.20 -252.02,769.54"/>
    </edge>

    <edge id="103488" from="58" to="57" priority="3" type="highway.residential" spreadType="center" length="0.26" shape="-378.50,804.32 -397.78,804.00">
        <lane id="103488_0" index="0" disallow="pedestrian tram rail_urban rail rail_electric rail_fast ship" speed="36.11" length="0.26" width="3.50" customShape="1" shape="-385.66,800.93 -385.77,800.96 -385.91,800.98"/>
    </edge>
    <edge id="103489" from="57" to="58" priority="3" type="highway.residential" spreadType="center" length="0.28" shape="-397.72,800.50 -378.44,800.83">
        <lane id="103489_0" index="0" disallow="pedestrian tram rail_urban rail rail_electric rail_fast ship" speed="36.11" length="0.28" width="3.50" customShape="1" shape="-386.58,797.55 -386.43,797.52 -386.30,797.50"/>
    </edge>
    <edge id="103527" from="57" to="22" priority="3" type="highway.residential" spreadType="center" length="40.85" shape="-396.29,803.21 -433.05,855.51">
        <lane id="103527_0" index="0" disallow="pedestrian tram rail_urban rail rail_electric rail_fast ship" speed="36.11" length="40.85" width="3.50" customShape="1" shape="-415.44,818.65 -424.23,837.06 -433.05,855.51"/>
    </edge>
    <edge id="103528" from="39" to="57" priority="3" type="highway.residential" spreadType="center" length="40.87" shape="-436.20,854.00 -399.15,801.20">
        <lane id="103528_0" index="0" disallow="pedestrian tram rail_urban rail rail_electric rail_fast ship" speed="36.11" length="40.87" width="3.50" customShape="1" shape="-436.20,854.00 -427.39,835.55 -418.59,817.12"/>
    </edge>
    <edge id="103530" from="60" to="57" priority="3" type="highway.residential" spreadType="center" length="0.25" shape="-381.85,784.34 -396.36,803.31">
        <lane id="103530_0" index="0" disallow="pedestrian tram rail_urban rail rail_electric rail_fast ship" speed="36.11" length="0.25" width="3.50" customShape="1" shape="-389.39,791.25 -389.51,791.27 -389.63,791.30"/>
    </edge>
    <edge id="103531" from="57" to="60" priority="3" type="highway.residential" spreadType="center" length="0.26" shape="-399.14,801.18 -384.63,782.21">
        <lane id="103531_0" index="0" disallow="pedestrian tram rail_urban rail rail_electric rail_fast ship" speed="36.11" length="0.26" width="3.50" customShape="1" shape="-390.40,787.89 -390.28,787.86 -390.15,787.83"/>
    </edge>
    <edge id="103535" from="62" to="47" priority="3" type="highway.residential" spreadType="center" length="70.00" shape="-322.19,870.11 -244.57,889.13">
        <lane id="103535_0" index="0" disallow="pedestrian tram rail_urban rail rail_electric rail_fast ship" speed="36.11" length="70.00" width="3.50" customShape="1" shape="-308.60,867.75 -303.71,866.54 -299.23,865.71 -295.20,865.32 -293.17,865.30 -290.66,865.62 -288.70,866.13 -286.82,866.86 -244.57,889.13"/>
    </edge>
    <edge id="103536" from="54" to="62" priority="3" type="highway.residential" spreadType="center" length="70.07" shape="-243.89,893.45 -323.03,873.50">
        <lane id="103536_0" index="0" disallow="pedestrian tram rail_urban rail rail_electric rail_fast ship" speed="36.11" length="70.07" width="3.50" customShape="1" shape="-243.89,893.45 -287.42,870.48 -289.08,869.74 -290.76,869.20 -292.98,868.82 -294.76,868.80 -298.61,869.16 -302.93,869.95 -307.76,871.14"/>
    </edge>
    <edge id="103543" from="58" to="15" priority="3" type="highway.residential" spreadType="center" length="61.76" shape="-376.95,802.07 -356.93,875.78">
        <lane id="103543_0" index="0" disallow="pedestrian tram rail_urban rail rail_electric rail_fast ship" speed="36.11" length="61.76" width="3.50" customShape="1" shape="-370.69,815.57 -363.81,845.67 -356.93,875.78"/>
    </edge>
    <edge id="103544" from="36" to="58" priority="3" type="highway.residential" spreadType="center" length="61.77" shape="-360.34,876.56 -380.33,802.99">
        <lane id="103544_0" index="0" disallow="pedestrian tram rail_urban rail rail_electric rail_fast ship" speed="36.11" length="61.77" width="3.50" customShape="1" shape="-360.34,876.56 -367.22,846.45 -374.10,816.34"/>
    </edge>
    <edge id="103546" from="60" to="58" priority="3" type="highway.residential" spreadType="center" length="0.19" shape="-381.66,782.81 -376.93,802.16">
        <lane id="103546_0" index="0" disallow="pedestrian tram rail_urban rail rail_electric rail_fast ship" speed="36.11" length="0.19" width="3.50" customShape="1" shape="-375.69,793.06 -375.66,793.25"/>
    </edge>
    <edge id="103547" from="58" to="60" priority="3" type="highway.residential" spreadType="center" length="0.20" shape="-380.32,802.98 -385.04,783.64">
        <lane id="103547_0" index="0" disallow="pedestrian tram rail_urban rail rail_electric rail_fast ship" speed="36.11" length="0.20" width="3.48" customShape="1" shape="-379.48,791.56 -379.51,791.36"/>
    </edge>
    <edge id="103549" from="59" to="60" priority="3" type="highway.residential" spreadType="center" length="29.83" shape="-387.10,721.50 -381.57,783.27">
        <lane id="103549_0" index="0" disallow="pedestrian tram rail_urban rail rail_electric rail_fast ship" speed="36.11" length="29.83" width="3.50" customShape="1" shape="-387.28,738.92 -384.08,753.50 -380.88,768.06"/>
    </edge>
    <edge id="103550" from="60" to="59" priority="3" type="highway.residential" spreadType="center" length="29.81" shape="-385.05,783.58 -390.59,721.81">
        <lane id="103550_0" index="0" disallow="pedestrian tram rail_urban rail rail_electric rail_fast ship" speed="36.11" length="29.81" width="3.50" customShape="1" shape="-384.30,768.79 -387.50,754.26 -390.70,739.68"/>
    </edge>
    <edge id="103575" from="59" to="38" priority="3" type="highway.residential" spreadType="center" length="23.49" shape="-389.75,723.16 -432.06,695.72">
        <lane id="103575_0" index="0" disallow="pedestrian tram rail_urban rail rail_electric rail_fast ship" speed="36.11" length="23.49" width="3.50" customShape="1" shape="-410.47,704.98 -421.28,700.35 -432.06,695.72"/>
    </edge>
    <edge id="103576" from="44" to="59" priority="3" type="highway.residential" spreadType="center" length="23.52" shape="-430.70,692.50 -387.85,720.22">
        <lane id="103576_0" index="0" disallow="pedestrian tram rail_urban rail rail_electric rail_fast ship" speed="36.11" length="23.52" width="3.50" customShape="1" shape="-430.70,692.50 -419.90,697.13 -409.08,701.77"/>
    </edge>
    <edge id="103608" from="62" to="61" priority="3" type="highway.residential" spreadType="center" length="106.42" shape="-324.27,872.20 -352.81,737.97">
        <lane id="103608_0" index="0" disallow="pedestrian tram rail_urban rail rail_electric rail_fast ship" speed="36.11" length="106.42" width="3.50" customShape="1" shape="-333.41,855.54 -334.05,853.10 -341.96,824.42 -346.80,806.40 -349.99,793.16 -352.36,781.81 -354.16,771.37 -355.52,761.38 -356.45,751.83"/>
    </edge>
    <edge id="103609" from="61" to="62" priority="3" type="highway.residential" spreadType="center" length="105.79" shape="-349.39,737.24 -320.85,871.47">
        <lane id="103609_0" index="0" disallow="pedestrian tram rail_urban rail rail_electric rail_fast ship" speed="36.11" length="105.79" width="3.50" customShape="1" shape="-352.96,751.56 -352.04,761.01 -350.69,770.91 -348.90,781.25 -346.54,792.52 -343.37,805.67 -338.55,823.61 -330.67,852.21 -330.03,854.65"/>
    </edge>
    <edge id="103611" from="53" to="62" priority="3" type="highway.residential" spreadType="center" length="13.56" shape="-335.13,902.51 -324.18,871.15">
        <lane id="103611_0" index="0" disallow="pedestrian tram rail_urban rail rail_electric rail_fast ship" speed="36.11" length="13.56" width="3.49" customShape="1" shape="-335.13,902.51 -334.87,902.08 -333.27,898.84 -330.79,893.74 -329.44,890.22"/>
    </edge>
    <edge id="103612" from="62" to="48" priority="3" type="highway.residential" spreadType="center" length="14.25" shape="-320.89,872.31 -332.17,904.38">
        <lane id="103612_0" index="0" disallow="pedestrian tram rail_urban rail rail_electric rail_fast ship" speed="36.11" length="14.25" width="3.50" customShape="1" shape="-326.17,891.47 -327.56,895.09 -330.16,900.43 -331.84,903.83 -332.17,904.38"/>
    </edge>
    <edge id="103670" from="56" to="63" priority="3" type="highway.residential" spreadType="center" length="41.14" shape="-245.61,708.48 -266.22,758.58">
        <lane id="103670_0" index="0" disallow="pedestrian tram rail_urban rail rail_electric rail_fast ship" speed="36.11" length="41.14" width="3.50" customShape="1" shape="-245.61,708.48 -253.37,727.53 -261.14,746.58"/>
    </edge>
    <edge id="103671" from="63" to="52" priority="3" type="highway.residential" spreadType="center" length="41.13" shape="-269.45,757.25 -248.85,707.16">
        <lane id="103671_0" index="0" disallow="pedestrian tram rail_urban rail rail_electric rail_fast ship" speed="36.11" length="41.13" width="3.50" customShape="1" shape="-264.38,745.25 -256.61,726.21 -248.85,707.16"/>
    </edge>
    <edge id="103837" from="61" to="59" priority="3" type="highway.residential" spreadType="center" length="0.20" shape="-351.71,739.24 -389.53,723.27">
        <lane id="103837_0" index="0" disallow="pedestrian tram rail_urban rail rail_electric rail_fast ship" speed="36.11" length="0.20" width="3.50" customShape="1" shape="-368.31,723.97 -368.49,723.89"/>
    </edge>
    <edge id="103838" from="59" to="61" priority="3" type="highway.residential" spreadType="center" length="0.24" shape="-388.17,720.05 -350.35,736.02">
        <lane id="103838_0" index="0" disallow="pedestrian tram rail_urban rail rail_electric rail_fast ship" speed="36.11" length="0.24" width="3.50" customShape="1" shape="-367.06,720.69 -366.95,720.74 -366.84,720.79"/>
    </edge>
    <edge id="103840" from="63" to="61" priority="3" type="highway.residential" spreadType="center" length="46.75" shape="-268.20,759.57 -351.52,739.30">
        <lane id="103840_0" index="0" disallow="pedestrian tram rail_urban rail rail_electric rail_fast ship" speed="36.11" length="46.75" width="3.50" customShape="1" shape="-288.56,758.20 -304.22,752.18 -316.91,746.97 -331.75,740.33"/>
    </edge>
    <edge id="103841" from="61" to="63" priority="3" type="highway.residential" spreadType="center" length="46.57" shape="-350.69,735.90 -267.37,756.18">
        <lane id="103841_0" index="0" disallow="pedestrian tram rail_urban rail rail_electric rail_fast ship" speed="36.11" length="46.57" width="3.50" customShape="1" shape="-330.32,737.14 -315.53,743.75 -302.92,748.93 -287.30,754.93"/>
    </edge>
    <edge id="103843" from="55" to="63" priority="3" type="highway.residential" spreadType="center" length="70.00" shape="-189.86,801.93 -268.68,759.39">
        <lane id="103843_0" index="0" disallow="pedestrian tram rail_urban rail rail_electric rail_fast ship" speed="36.11" length="70.00" width="3.50" customShape="1" shape="-189.86,801.93 -197.40,798.23 -216.92,789.11 -253.47,772.72"/>
    </edge>
    <edge id="103844" from="63" to="51" priority="3" type="highway.residential" spreadType="center" length="70.00" shape="-267.02,756.31 -188.41,798.74">
        <lane id="103844_0" index="0" disallow="pedestrian tram rail_urban rail rail_electric rail_fast ship" speed="36.11" length="70.00" width="3.50" customShape="1" shape="-252.02,769.54 -215.30,786.00 -195.67,795.17 -188.41,798.74"/>
    </edge>
