<routes>
	<vehicle depart="0.1" departLane="0" departPos="4.7313216365444095" departSpeed="1.721696" id="315" type="passenger">
		<route edges=":35_0 31241"/>
	</vehicle>
	<vehicle depart="0.1" departLane="0" departPos="12.45241228272784" departSpeed="1.9149194" id="316" type="passenger">
		<route edges=":34_3 31238"/>
	</vehicle>
	<vehicle depart="0.1" departLane="0" departPos="38.04932093042371" departSpeed="2.2864671" id="322" type="passenger">
		<route edges=":34_0 31238"/>
	</vehicle>
	<vehicle depart="0.1" departLane="0" departPos="2.5" departSpeed="1.4978942" id="325" type="passenger">
		<route edges=":34_1 31510"/>
	</vehicle>
	<vehicle depart="0.1" departLane="0" departPos="25.515277645091818" departSpeed="0.22439814" id="330" type="passenger">
		<route edges="31235 31510"/>
	</vehicle>
	<vehicle depart="0.1" departLane="0" departPos="17.028247561624" departSpeed="1.0504767" id="340" type="passenger">
		<route edges="31235 31510"/>
	</vehicle>
	<vehicle depart="0.1" departLane="0" departPos="7.521377953995709" departSpeed="0.93107361" id="352" type="passenger">
		<route edges="31235 31510"/>
	</vehicle>
	<vehicle depart="0.1" departLane="0" departPos="5.520627603536727" departSpeed="7.8017353" id="35" type="motorcycle">
		<route edges=":34_4 31510"/>
	</vehicle>
	<vehicle depart="0.1" departLane="0" departPos="20.10283478496835" departSpeed="11.61436" id="329" type="motorcycle">
		<route edges=":35_5 31237 31234"/>
	</vehicle>
</routes>
