<routes>
	<vehicle depart="0.1" departLane="1" departPos="0" departSpeed="5.9245" id="31" type="passenger">
		<route edges="5 5"/>
	</vehicle>
	<vehicle depart="0.1" departLane="0" departPos="0" departSpeed="5.9954" id="32" type="passenger">
		<route edges="8"/>
	</vehicle>
	<vehicle depart="0.1" departLane="1" departPos="211.53274909099625" departSpeed="12.1256" id="33" type="passenger">
		<route edges="5"/>
	</vehicle>
	<vehicle depart="0.1" departLane="1" departPos="0" departSpeed="10.5416" id="36" type="passenger">
		<route edges="8"/>
	</vehicle>
	<vehicle depart="0.1" departLane="1" departPos="226.2427488123092" departSpeed="14.3242" id="37" type="passenger">
		<route edges="8"/>
	</vehicle>
	<vehicle depart="0.1" departLane="0" departPos="226.23596410951797" departSpeed="16.8196" id="38" type="passenger">
		<route edges="5"/>
	</vehicle>
	<vehicle depart="0.1" departLane="1" departPos="0" departSpeed="5.9127" id="39" type="passenger">
		<route edges="5 5"/>
	</vehicle>
	<vehicle depart="0.1" departLane="0" departPos="0" departSpeed="9.2649" id="310" type="passenger">
		<route edges="8 8"/>
	</vehicle>
	<vehicle depart="0.1" departLane="0" departPos="0" departSpeed="10.4792" id="311" type="passenger">
		<route edges="5"/>
	</vehicle>
	<vehicle depart="0.1" departLane="1" departPos="0" departSpeed="5.0496" id="312" type="passenger">
		<route edges="5 5"/>
	</vehicle>
	<vehicle depart="0.1" departLane="0" departPos="0" departSpeed="10.4546" id="313" type="passenger">
		<route edges="5 5"/>
	</vehicle>
	<vehicle depart="0.1" departLane="1" departPos="0" departSpeed="6.1699" id="314" type="passenger">
		<route edges="8"/>
	</vehicle>
	<vehicle depart="0.1" departLane="1" departPos="0" departSpeed="4.9398" id="315" type="passenger">
		<route edges="5 5"/>
	</vehicle>
	<vehicle depart="0.1" departLane="0" departPos="0" departSpeed="4.1348" id="316" type="passenger">
		<route edges="5"/>
	</vehicle>
	<vehicle depart="0.1" departLane="0" departPos="0" departSpeed="5.7167" id="317" type="passenger">
		<route edges="8"/>
	</vehicle>
	<vehicle depart="0.1" departLane="0" departPos="0" departSpeed="4.1819" id="319" type="passenger">
		<route edges="5"/>
	</vehicle>
	<vehicle depart="0.1" departLane="0" departPos="0" departSpeed="5.6461" id="320" type="passenger">
		<route edges="8 8"/>
	</vehicle>
	<vehicle depart="0.1" departLane="1" departPos="0" departSpeed="4.908" id="321" type="passenger">
		<route edges="5"/>
	</vehicle>
	<vehicle depart="0.1" departLane="0" departPos="0" departSpeed="5.3615" id="322" type="passenger">
		<route edges="8 8"/>
	</vehicle>
	<vehicle depart="0.1" departLane="0" departPos="0" departSpeed="4.6726" id="323" type="passenger">
		<route edges="8 8"/>
	</vehicle>
	<vehicle depart="0.1" departLane="0" departPos="0" departSpeed="2.4196" id="324" type="passenger">
		<route edges="8"/>
	</vehicle>
</routes>
