<!-- generated on Tue Feb  9 22:13:44 2021 by Eclipse SUMO netconvert Version 1.8.0
<configuration xmlns:xsi="http://www.w3.org/2001/XMLSchema-instance" xsi:noNamespaceSchemaLocation="http://sumo.dlr.de/xsd/netconvertConfiguration.xsd">

    <input>
        <node-files value="./converted_scenarios/scenario-factory/ITA_CarpiCentro-3_2_I-1-1/ITA_CarpiCentro-3_2_I-1-1.nod.xml"/>
        <edge-files value="./converted_scenarios/scenario-factory/ITA_CarpiCentro-3_2_I-1-1/ITA_CarpiCentro-3_2_I-1-1.edg.xml"/>
        <connection-files value="./converted_scenarios/scenario-factory/ITA_CarpiCentro-3_2_I-1-1/ITA_CarpiCentro-3_2_I-1-1.con.xml"/>
        <tllogic-files value="./converted_scenarios/scenario-factory/ITA_CarpiCentro-3_2_I-1-1/ITA_CarpiCentro-3_2_I-1-1.tll.xml"/>
        <type-files value="/home/zen/commonroad-interactive-benchmarks/install/commonroad-map-tool/crmapconverter/sumo_map/templates/DEU.typ.xml"/>
    </input>

    <output>
        <output-file value="./converted_scenarios/scenario-factory/ITA_CarpiCentro-3_2_I-1-1/ITA_CarpiCentro-3_2_I-1-1.net.xml"/>
    </output>

    <processing>
        <geometry.remove.keep-edges.explicit value="true"/>
        <geometry.avoid-overlap value="true"/>
        <offset.disable-normalization value="true"/>
    </processing>

    <junctions>
        <no-turnarounds value="true"/>
        <junctions.internal-link-detail value="20"/>
    </junctions>

    <report>
        <aggregate-warnings value="5"/>
    </report>

    <random_number>
        <seed value="1234"/>
    </random_number>

</configuration>
--><net xmlns:xsi="http://www.w3.org/2001/XMLSchema-instance" version="1.6" junctionCornerDetail="5" junctionLinkDetail="20" limitTurnSpeed="5.50" xsi:noNamespaceSchemaLocation="http://sumo.dlr.de/xsd/net_file.xsd">

    <location netOffset="0.00,0.00" convBoundary="308.54,-848.66,554.14,-503.81" origBoundary="308.54,-848.66,554.14,-503.81" projParameter="!"/>

    <type id="highway.bridleway" priority="1" speed="2.78" allow="pedestrian" oneway="1" width="2.00"/>
    <type id="highway.bus_guideway" priority="1" speed="27.78" allow="bus" oneway="1"/>
    <type id="highway.cycleway" priority="1" speed="8.33" allow="bicycle" oneway="0" width="1.00"/>
    <type id="highway.footway" priority="1" speed="2.78" allow="pedestrian" oneway="1" width="2.00"/>
    <type id="highway.ford" priority="1" speed="2.78" allow="army" oneway="0"/>
    <type id="highway.living_street" priority="2" speed="2.78" disallow="tram rail_urban rail rail_electric rail_fast ship" oneway="0"/>
    <type id="highway.motorway" priority="14" speed="39.44" allow="private emergency authority army vip passenger hov taxi bus coach delivery truck trailer motorcycle evehicle custom1 custom2" oneway="1"/>
    <type id="highway.motorway_link" priority="9" speed="22.22" allow="private emergency authority army vip passenger hov taxi bus coach delivery truck trailer motorcycle evehicle custom1 custom2" oneway="1"/>
    <type id="highway.path" priority="1" speed="2.78" allow="pedestrian bicycle" oneway="0" width="2.00"/>
    <type id="highway.pedestrian" priority="1" speed="2.78" allow="pedestrian" oneway="1" width="2.00"/>
    <type id="highway.primary" priority="12" speed="27.78" disallow="pedestrian tram rail_urban rail rail_electric rail_fast ship" oneway="0"/>
    <type id="highway.primary_link" priority="7" speed="22.22" disallow="pedestrian tram rail_urban rail rail_electric rail_fast ship" oneway="0"/>
    <type id="highway.raceway" priority="15" speed="83.33" allow="vip" oneway="0"/>
    <type id="highway.residential" priority="3" speed="13.89" disallow="pedestrian tram rail_urban rail rail_electric rail_fast ship" oneway="0"/>
    <type id="highway.secondary" priority="11" speed="27.78" disallow="pedestrian tram rail_urban rail rail_electric rail_fast ship" oneway="0"/>
    <type id="highway.secondary_link" priority="6" speed="22.22" disallow="pedestrian tram rail_urban rail rail_electric rail_fast ship" oneway="0"/>
    <type id="highway.service" priority="1" speed="5.56" allow="pedestrian delivery bicycle" oneway="0"/>
    <type id="highway.stairs" priority="1" speed="1.39" allow="pedestrian" oneway="1" width="2.00"/>
    <type id="highway.step" priority="1" speed="1.39" allow="pedestrian" oneway="1" width="2.00"/>
    <type id="highway.steps" priority="1" speed="1.39" allow="pedestrian" oneway="1" width="2.00"/>
    <type id="highway.tertiary" priority="10" speed="22.22" disallow="pedestrian tram rail_urban rail rail_electric rail_fast ship" oneway="0"/>
    <type id="highway.tertiary_link" priority="5" speed="22.22" disallow="pedestrian tram rail_urban rail rail_electric rail_fast ship" oneway="0"/>
    <type id="highway.track" priority="1" speed="5.56" allow="pedestrian motorcycle moped bicycle" oneway="0"/>
    <type id="highway.trunk" priority="13" speed="27.78" disallow="pedestrian bicycle tram rail_urban rail rail_electric rail_fast ship" oneway="0"/>
    <type id="highway.trunk_link" priority="8" speed="22.22" disallow="pedestrian bicycle tram rail_urban rail rail_electric rail_fast ship" oneway="0"/>
    <type id="highway.unclassified" priority="4" speed="13.89" disallow="pedestrian tram rail_urban rail rail_electric rail_fast ship" oneway="0"/>
    <type id="highway.unsurfaced" priority="1" speed="8.33" disallow="tram rail_urban rail rail_electric rail_fast ship" oneway="0"/>
    <type id="railway.highspeed" priority="21" speed="69.44" allow="rail_fast" oneway="1"/>
    <type id="railway.light_rail" priority="19" speed="27.78" allow="rail_urban" oneway="1"/>
    <type id="railway.preserved" priority="16" speed="27.78" allow="rail" oneway="1"/>
    <type id="railway.rail" priority="20" speed="44.44" allow="rail" oneway="1"/>
    <type id="railway.subway" priority="18" speed="27.78" allow="rail_urban" oneway="1"/>
    <type id="railway.tram" priority="17" speed="13.89" allow="tram" oneway="1"/>

    <edge id=":100_0" function="internal">
        <lane id=":100_0_0" index="0" disallow="pedestrian tram rail_urban rail rail_electric rail_fast ship" speed="11.10" length="28.37" width="3.50" shape="485.86,-566.62 484.44,-569.57 483.30,-571.43 481.98,-573.17 480.45,-574.73 479.61,-575.42 478.71,-576.04 477.76,-576.58 476.77,-577.04 475.75,-577.41 474.69,-577.69 473.61,-577.87 471.44,-577.99 469.26,-577.80 467.12,-577.36 465.03,-576.73 463.00,-575.94"/>
    </edge>
    <edge id=":100_1" function="internal">
        <lane id=":100_1_0" index="0" disallow="pedestrian tram rail_urban rail rail_electric rail_fast ship" speed="36.11" length="38.88" width="3.50" shape="485.86,-566.62 478.35,-584.53 470.83,-602.48"/>
    </edge>
    <edge id=":100_2" function="internal">
        <lane id=":100_2_0" index="0" disallow="pedestrian tram rail_urban rail rail_electric rail_fast ship" speed="36.11" length="38.86" width="3.50" shape="474.06,-603.84 481.58,-585.89 489.08,-568.00"/>
    </edge>
    <edge id=":100_3" function="internal">
        <lane id=":100_3_0" index="0" disallow="pedestrian tram rail_urban rail rail_electric rail_fast ship" speed="12.25" length="34.39" width="3.50" shape="474.06,-603.84 475.42,-600.08 476.07,-597.52 476.45,-594.90 476.52,-592.26 476.41,-590.95 476.20,-589.64 475.88,-588.36 475.45,-587.11 474.92,-585.90 474.28,-584.74 473.54,-583.64 471.83,-581.63 469.85,-579.88 467.69,-578.37 465.39,-577.06 463.00,-575.94"/>
    </edge>
    <edge id=":100_4" function="internal">
        <lane id=":100_4_0" index="0" disallow="pedestrian tram rail_urban rail rail_electric rail_fast ship" speed="11.25" length="28.83" width="3.50" shape="461.62,-579.16 463.70,-580.13 465.68,-581.25 467.52,-582.54 469.17,-584.00 470.59,-585.67 471.16,-586.54 471.68,-587.47 472.10,-588.44 472.45,-589.44 472.70,-590.48 472.87,-591.54 472.96,-592.58 472.90,-594.81 472.58,-597.01 472.03,-599.20 470.83,-602.48"/>
    </edge>
    <edge id=":100_5" function="internal">
        <lane id=":100_5_0" index="0" disallow="pedestrian tram rail_urban rail rail_electric rail_fast ship" speed="12.11" length="33.96" width="3.50" shape="461.62,-579.16 463.98,-580.07 466.42,-580.81 468.95,-581.32 471.57,-581.55 474.19,-581.41 475.55,-581.18 476.86,-580.84 478.13,-580.38 479.37,-579.81 480.54,-579.14 481.64,-578.38 482.70,-577.51 484.53,-575.65 486.10,-573.58 487.45,-571.38 489.08,-568.00"/>
    </edge>
    <edge id=":101_0" function="internal">
        <lane id=":101_0_0" index="0" disallow="pedestrian tram rail_urban rail rail_electric rail_fast ship" speed="11.49" length="29.35" width="3.50" shape="408.54,-533.27 408.08,-534.27 406.45,-537.25 405.20,-539.05 403.78,-540.69 402.20,-542.13 400.41,-543.32 399.51,-543.78 398.54,-544.18 397.55,-544.50 396.56,-544.73 394.42,-545.00 392.27,-544.96 390.10,-544.68 387.95,-544.18 384.74,-543.10"/>
    </edge>
    <edge id=":101_1" function="internal">
        <lane id=":101_1_0" index="0" disallow="pedestrian tram rail_urban rail rail_electric rail_fast ship" speed="36.11" length="39.12" width="3.50" shape="408.54,-533.27 396.68,-560.66 393.07,-569.20"/>
    </edge>
    <edge id=":101_2" function="internal">
        <lane id=":101_2_0" index="0" disallow="pedestrian tram rail_urban rail rail_electric rail_fast ship" speed="12.17" length="34.37" width="3.50" shape="408.54,-533.27 407.59,-535.64 406.81,-538.10 406.26,-540.65 406.00,-543.29 406.10,-545.94 406.31,-547.32 406.64,-548.64 407.08,-549.94 407.64,-551.19 408.31,-552.39 409.07,-553.52 409.93,-554.60 411.79,-556.46 413.86,-558.08 416.08,-559.46 419.52,-561.15"/>
    </edge>
    <edge id=":101_3" function="internal">
        <lane id=":101_3_0" index="0" disallow="pedestrian tram rail_urban rail rail_electric rail_fast ship" speed="11.16" length="28.74" width="3.50" shape="420.89,-557.93 417.91,-556.47 416.04,-555.30 414.29,-553.94 412.73,-552.38 412.04,-551.51 411.43,-550.60 410.89,-549.63 410.44,-548.62 410.08,-547.57 409.82,-546.50 409.65,-545.41 409.56,-543.20 409.78,-541.00 410.25,-538.84 410.92,-536.73 411.74,-534.68"/>
    </edge>
    <edge id=":101_4" function="internal">
        <lane id=":101_4_0" index="0" disallow="pedestrian tram rail_urban rail rail_electric rail_fast ship" speed="36.11" length="39.07" width="3.50" shape="420.89,-557.93 400.02,-549.22 384.74,-543.10"/>
    </edge>
    <edge id=":101_5" function="internal">
        <lane id=":101_5_0" index="0" disallow="pedestrian tram rail_urban rail rail_electric rail_fast ship" speed="12.21" length="34.48" width="3.50" shape="420.89,-557.93 417.15,-556.56 414.58,-555.90 411.96,-555.51 409.31,-555.46 407.99,-555.57 406.68,-555.79 405.40,-556.13 404.15,-556.57 402.94,-557.12 401.79,-557.78 400.70,-558.53 398.70,-560.28 396.97,-562.28 395.47,-564.47 394.18,-566.79 393.07,-569.20"/>
    </edge>
    <edge id=":101_6" function="internal">
        <lane id=":101_6_0" index="0" disallow="pedestrian tram rail_urban rail rail_electric rail_fast ship" speed="11.20" length="28.87" width="3.50" shape="396.30,-570.55 397.26,-568.46 398.37,-566.46 399.64,-564.60 401.09,-562.92 402.75,-561.47 403.61,-560.88 404.54,-560.35 405.50,-559.91 406.50,-559.56 407.53,-559.29 408.59,-559.11 409.64,-559.02 411.86,-559.06 414.07,-559.39 416.26,-559.95 419.52,-561.15"/>
    </edge>
    <edge id=":101_7" function="internal">
        <lane id=":101_7_0" index="0" disallow="pedestrian tram rail_urban rail rail_electric rail_fast ship" speed="36.11" length="39.05" width="3.50" shape="396.30,-570.55 399.90,-562.04 411.74,-534.68"/>
    </edge>
    <edge id=":101_8" function="internal">
        <lane id=":101_8_0" index="0" disallow="pedestrian tram rail_urban rail rail_electric rail_fast ship" speed="12.09" length="34.25" width="3.50" shape="396.30,-570.55 397.59,-566.97 398.22,-564.45 398.59,-561.85 398.63,-559.23 398.50,-557.85 398.26,-556.52 397.91,-555.20 397.44,-553.92 396.85,-552.68 396.16,-551.51 395.37,-550.40 394.48,-549.35 392.57,-547.54 390.46,-545.99 388.21,-544.68 384.74,-543.10"/>
    </edge>
    <edge id=":101_9" function="internal">
        <lane id=":101_9_0" index="0" disallow="pedestrian tram rail_urban rail rail_electric rail_fast ship" speed="11.08" length="28.58" width="3.50" shape="383.46,-546.36 386.46,-547.72 388.36,-548.83 390.14,-550.13 391.73,-551.64 392.44,-552.48 393.08,-553.38 393.64,-554.32 394.11,-555.32 394.49,-556.35 394.77,-557.41 394.96,-558.49 395.07,-559.59 395.03,-561.79 394.72,-563.96 394.19,-566.10 393.07,-569.20"/>
    </edge>
    <edge id=":101_10" function="internal">
        <lane id=":101_10_0" index="0" disallow="pedestrian tram rail_urban rail rail_electric rail_fast ship" speed="36.11" length="38.98" width="3.50" shape="383.46,-546.36 398.69,-552.46 419.52,-561.15"/>
    </edge>
    <edge id=":101_11" function="internal">
        <lane id=":101_11_0" index="0" disallow="pedestrian tram rail_urban rail rail_electric rail_fast ship" speed="12.48" length="34.78" width="3.50" shape="383.46,-546.36 387.13,-547.59 389.64,-548.17 392.19,-548.50 394.77,-548.54 397.32,-548.23 398.58,-547.94 399.80,-547.54 400.99,-547.05 402.14,-546.46 404.28,-545.03 406.19,-543.30 407.88,-541.35 409.35,-539.24 411.20,-535.85 411.74,-534.68"/>
    </edge>
    <edge id=":102_0" function="internal">
        <lane id=":102_0_0" index="0" disallow="pedestrian tram rail_urban rail rail_electric rail_fast ship" speed="11.39" length="28.93" width="3.50" shape="341.52,-688.34 339.94,-691.43 338.72,-693.35 337.34,-695.12 335.79,-696.71 334.05,-698.06 333.15,-698.60 332.19,-699.08 331.20,-699.47 330.18,-699.79 329.13,-700.01 328.06,-700.15 327.01,-700.21 324.78,-700.11 322.57,-699.73 320.38,-699.12 318.21,-698.32"/>
    </edge>
    <edge id=":102_1" function="internal">
        <lane id=":102_1_0" index="0" disallow="pedestrian tram rail_urban rail rail_electric rail_fast ship" speed="12.16" length="34.64" width="3.50" shape="341.52,-688.34 340.12,-691.93 339.41,-694.47 338.97,-697.08 338.86,-699.74 338.96,-701.13 339.16,-702.49 339.49,-703.83 339.93,-705.14 340.49,-706.41 341.16,-707.61 341.93,-708.75 342.80,-709.84 344.69,-711.72 346.78,-713.34 349.02,-714.73 352.46,-716.42"/>
    </edge>
    <edge id=":102_2" function="internal">
        <lane id=":102_2_0" index="0" disallow="pedestrian tram rail_urban rail rail_electric rail_fast ship" speed="11.16" length="29.00" width="3.50" shape="353.85,-713.21 350.85,-711.74 348.95,-710.56 347.19,-709.20 345.61,-707.62 344.91,-706.75 344.29,-705.82 343.75,-704.85 343.29,-703.83 342.94,-702.77 342.68,-701.69 342.51,-700.58 342.43,-699.47 342.52,-697.24 342.89,-695.04 343.49,-692.89 344.71,-689.78"/>
    </edge>
    <edge id=":102_3" function="internal">
        <lane id=":102_3_0" index="0" disallow="pedestrian tram rail_urban rail rail_electric rail_fast ship" speed="36.11" length="38.63" width="3.50" shape="353.85,-713.21 323.05,-700.31 318.21,-698.32"/>
    </edge>
    <edge id=":102_4" function="internal">
        <lane id=":102_4_0" index="0" disallow="pedestrian tram rail_urban rail rail_electric rail_fast ship" speed="36.11" length="38.56" width="3.50" shape="316.88,-701.56 321.72,-703.54 352.46,-716.42"/>
    </edge>
    <edge id=":102_5" function="internal">
        <lane id=":102_5_0" index="0" disallow="pedestrian tram rail_urban rail rail_electric rail_fast ship" speed="12.38" length="34.38" width="3.50" shape="316.88,-701.56 319.38,-702.48 321.93,-703.18 324.54,-703.63 327.17,-703.77 328.50,-703.70 329.81,-703.53 331.10,-703.26 332.37,-702.87 333.60,-702.39 334.78,-701.80 335.91,-701.12 338.00,-699.50 339.86,-697.62 341.48,-695.54 342.90,-693.31 344.71,-689.78"/>
    </edge>
    <edge id=":103_0" function="internal">
        <lane id=":103_0_0" index="0" disallow="pedestrian tram rail_urban rail rail_electric rail_fast ship" speed="10.30" length="24.82" width="3.50" shape="482.09,-754.69 481.67,-755.65 480.59,-757.58 479.99,-758.40 479.31,-759.18 478.57,-759.88 477.76,-760.49 476.90,-761.01 475.98,-761.43 475.01,-761.75 474.00,-761.97 472.96,-762.10 471.90,-762.15 470.84,-762.12 468.62,-761.86 466.43,-761.37 464.27,-760.70 461.02,-759.42"/>
    </edge>
    <edge id=":103_1" function="internal">
        <lane id=":103_1_0" index="0" disallow="pedestrian tram rail_urban rail rail_electric rail_fast ship" speed="36.11" length="33.39" width="3.50" shape="482.09,-754.69 481.69,-755.69 479.56,-761.65 476.84,-770.67 473.87,-780.62 471.81,-786.44"/>
    </edge>
    <edge id=":103_2" function="internal">
        <lane id=":103_2_0" index="0" disallow="pedestrian tram rail_urban rail rail_electric rail_fast ship" speed="12.04" length="32.55" width="3.50" shape="482.09,-754.69 481.29,-757.17 481.03,-758.53 480.90,-759.89 480.90,-761.27 481.05,-762.64 481.34,-763.99 481.77,-765.29 482.33,-766.54 482.99,-767.72 483.74,-768.82 484.59,-769.87 486.38,-771.71 488.36,-773.35 491.47,-775.44 494.74,-777.23 498.07,-778.78"/>
    </edge>
    <edge id=":103_3" function="internal">
        <lane id=":103_3_0" index="0" disallow="pedestrian tram rail_urban rail rail_electric rail_fast ship" speed="10.98" length="27.10" width="3.50" shape="499.45,-775.56 496.51,-774.20 493.65,-772.66 490.92,-770.88 489.22,-769.53 487.67,-768.02 486.96,-767.20 486.32,-766.32 485.75,-765.40 485.27,-764.43 484.88,-763.41 484.61,-762.37 484.46,-761.29 484.42,-760.21 484.50,-759.13 484.69,-758.06 485.34,-755.99"/>
    </edge>
    <edge id=":103_4" function="internal">
        <lane id=":103_4_0" index="0" disallow="pedestrian tram rail_urban rail rail_electric rail_fast ship" speed="36.11" length="41.68" width="3.50" shape="499.45,-775.56 478.29,-766.73 461.02,-759.42"/>
    </edge>
    <edge id=":103_5" function="internal">
        <lane id=":103_5_0" index="0" disallow="pedestrian tram rail_urban rail rail_electric rail_fast ship" speed="12.03" length="34.25" width="3.50" shape="499.45,-775.56 498.27,-775.07 494.68,-773.88 492.14,-773.32 489.53,-773.02 486.90,-773.07 485.53,-773.25 484.20,-773.54 482.90,-773.95 481.63,-774.48 480.42,-775.12 479.28,-775.87 478.21,-776.71 477.20,-777.64 475.49,-779.63 474.03,-781.80 472.82,-784.08 471.81,-786.44"/>
    </edge>
    <edge id=":103_6" function="internal">
        <lane id=":103_6_0" index="0" disallow="pedestrian tram rail_urban rail rail_electric rail_fast ship" speed="11.02" length="28.54" width="3.50" shape="475.07,-787.70 475.94,-785.67 476.97,-783.74 478.19,-781.91 479.64,-780.26 480.44,-779.51 481.31,-778.84 482.23,-778.24 483.20,-777.73 484.22,-777.31 485.27,-776.99 486.34,-776.76 487.43,-776.62 489.62,-776.59 491.80,-776.84 493.95,-777.32 497.07,-778.37 498.07,-778.78"/>
    </edge>
    <edge id=":103_7" function="internal">
        <lane id=":103_7_0" index="0" disallow="pedestrian tram rail_urban rail rail_electric rail_fast ship" speed="36.11" length="33.34" width="3.50" shape="475.07,-787.70 477.16,-781.80 480.15,-771.82 482.85,-762.85 484.95,-756.96 485.34,-755.99"/>
    </edge>
    <edge id=":103_8" function="internal">
        <lane id=":103_8_0" index="0" disallow="pedestrian tram rail_urban rail rail_electric rail_fast ship" speed="12.67" length="35.83" width="3.50" shape="475.07,-787.70 475.90,-785.27 476.52,-782.79 476.88,-780.26 476.92,-777.70 476.60,-775.17 476.30,-773.92 475.90,-772.71 474.82,-770.39 473.40,-768.26 471.72,-766.34 469.83,-764.62 467.78,-763.09 464.49,-761.10 461.02,-759.42"/>
    </edge>
    <edge id=":103_9" function="internal">
        <lane id=":103_9_0" index="0" disallow="pedestrian tram rail_urban rail rail_electric rail_fast ship" speed="11.71" length="30.41" width="3.50" shape="459.62,-762.63 462.70,-764.12 465.59,-765.86 467.36,-767.16 468.98,-768.62 470.41,-770.22 471.59,-771.97 472.51,-773.90 472.83,-774.85 473.08,-775.83 473.37,-777.94 473.35,-780.07 473.06,-782.20 472.53,-784.33 471.81,-786.44"/>
    </edge>
    <edge id=":103_10" function="internal">
        <lane id=":103_10_0" index="0" disallow="pedestrian tram rail_urban rail rail_electric rail_fast ship" speed="36.11" length="41.70" width="3.50" shape="459.62,-762.63 476.92,-769.95 498.07,-778.78"/>
    </edge>
    <edge id=":103_11" function="internal">
        <lane id=":103_11_0" index="0" disallow="pedestrian tram rail_urban rail rail_electric rail_fast ship" speed="11.41" length="30.51" width="3.50" shape="459.62,-762.63 463.34,-764.09 465.88,-764.85 468.47,-765.41 471.11,-765.69 472.43,-765.71 473.76,-765.62 475.07,-765.42 476.35,-765.10 477.60,-764.65 478.79,-764.07 479.91,-763.37 480.95,-762.54 481.90,-761.62 482.76,-760.61 483.52,-759.53 484.81,-757.21 485.34,-755.99"/>
    </edge>
    <edge id=":104_0" function="internal">
        <lane id=":104_0_0" index="0" disallow="pedestrian tram rail_urban rail rail_electric rail_fast ship" speed="11.67" length="30.87" width="3.50" shape="494.87,-722.42 494.19,-724.02 493.43,-725.48 492.60,-726.82 491.69,-728.03 490.71,-729.12 489.65,-730.08 488.52,-730.91 487.32,-731.61 486.04,-732.18 484.68,-732.63 483.25,-732.95 481.75,-733.14 480.17,-733.21 478.52,-733.15 476.80,-732.96 474.99,-732.64 473.12,-732.20 471.17,-731.63 469.14,-730.93"/>
    </edge>
    <edge id=":104_1" function="internal">
        <lane id=":104_1_0" index="0" disallow="pedestrian tram rail_urban rail rail_electric rail_fast ship" speed="36.11" length="34.45" width="3.50" shape="494.87,-722.42 494.49,-723.39 482.19,-754.45"/>
    </edge>
    <edge id=":104_2" function="internal">
        <lane id=":104_2_0" index="0" disallow="pedestrian tram rail_urban rail rail_electric rail_fast ship" speed="12.43" length="34.72" width="3.50" shape="494.87,-722.42 494.43,-723.62 493.38,-727.18 492.92,-729.70 492.73,-732.27 492.86,-734.87 493.36,-737.42 493.77,-738.72 494.28,-739.95 494.88,-741.13 495.60,-742.28 497.20,-744.32 499.06,-746.12 501.10,-747.67 503.26,-749.01 506.61,-750.65"/>
    </edge>
    <edge id=":104_3" function="internal">
        <lane id=":104_3_0" index="0" disallow="pedestrian tram rail_urban rail rail_electric rail_fast ship" speed="11.45" length="29.27" width="3.50" shape="508.00,-747.44 505.08,-746.01 503.23,-744.87 501.51,-743.55 499.95,-742.05 498.61,-740.34 498.04,-739.42 497.55,-738.45 497.13,-737.45 496.80,-736.42 496.39,-734.29 496.28,-732.13 496.45,-729.97 496.84,-727.83 497.75,-724.71 498.13,-723.70"/>
    </edge>
    <edge id=":104_4" function="internal">
        <lane id=":104_4_0" index="0" disallow="pedestrian tram rail_urban rail rail_electric rail_fast ship" speed="36.11" length="27.56" width="3.50" shape="507.99,-747.44 482.67,-736.56"/>
    </edge>
    <edge id=":104_5" function="internal">
        <lane id=":104_5_0" index="0" disallow="pedestrian tram rail_urban rail rail_electric rail_fast ship" speed="11.47" length="30.69" width="3.50" shape="508.00,-747.44 504.26,-746.01 501.69,-745.26 499.08,-744.73 496.42,-744.48 495.09,-744.49 493.76,-744.60 492.44,-744.82 491.15,-745.17 489.91,-745.65 488.72,-746.25 487.60,-746.98 486.57,-747.82 485.62,-748.77 484.77,-749.79 483.32,-752.03 482.19,-754.45"/>
    </edge>
    <edge id=":104_6" function="internal">
        <lane id=":104_6_0" index="0" disallow="pedestrian tram rail_urban rail rail_electric rail_fast ship" speed="10.36" length="25.03" width="3.50" shape="485.43,-755.76 486.36,-753.78 487.56,-751.95 488.23,-751.18 488.97,-750.46 489.78,-749.83 490.64,-749.29 491.57,-748.85 492.54,-748.51 493.55,-748.26 494.59,-748.11 495.66,-748.04 496.73,-748.05 498.96,-748.29 501.17,-748.76 503.36,-749.41 506.61,-750.65"/>
    </edge>
    <edge id=":104_7" function="internal">
        <lane id=":104_7_0" index="0" disallow="pedestrian tram rail_urban rail rail_electric rail_fast ship" speed="36.11" length="34.48" width="3.50" shape="485.43,-755.76 497.75,-724.67 498.13,-723.70"/>
    </edge>
    <edge id=":104_8" function="internal">
        <lane id=":104_8_0" index="0" disallow="pedestrian tram rail_urban rail rail_electric rail_fast ship" speed="11.16" length="21.16" width="3.50" shape="485.43,-755.76 485.84,-754.61 486.18,-753.48 486.44,-752.36 486.63,-751.26 486.74,-750.18 486.78,-749.12 486.74,-748.07 486.62,-747.03 486.43,-746.02 486.17,-745.02 485.83,-744.04 485.41,-743.07 484.92,-742.13 484.35,-741.20 483.71,-740.28 482.99,-739.38 482.20,-738.50 481.33,-737.64 480.39,-736.79"/>
    </edge>
    <edge id=":104_9" function="internal">
        <lane id=":104_9_0" index="0" disallow="pedestrian tram rail_urban rail rail_electric rail_fast ship" speed="10.62" length="25.25" width="3.50" shape="470.86,-735.29 473.83,-736.70 475.74,-737.80 477.55,-739.03 479.24,-740.43 480.02,-741.21 480.74,-742.04 481.40,-742.92 481.97,-743.85 482.46,-744.84 482.84,-745.87 483.11,-746.93 483.28,-748.01 483.33,-749.11 483.27,-750.21 482.88,-752.37 482.19,-754.45"/>
    </edge>
    <edge id=":104_10" function="internal">
        <lane id=":104_10_0" index="0" disallow="pedestrian tram rail_urban rail rail_electric rail_fast ship" speed="36.11" length="38.91" width="3.50" shape="470.86,-735.29 488.74,-742.97 506.61,-750.65"/>
    </edge>
    <edge id=":104_11" function="internal">
        <lane id=":104_11_0" index="0" disallow="pedestrian tram rail_urban rail rail_electric rail_fast ship" speed="12.05" length="34.26" width="3.50" shape="470.86,-735.29 474.57,-736.66 477.12,-737.31 479.73,-737.69 482.37,-737.73 483.68,-737.60 484.97,-737.37 486.24,-737.01 487.48,-736.55 488.66,-735.97 489.79,-735.29 490.86,-734.52 492.79,-732.72 494.45,-730.68 495.88,-728.46 497.09,-726.12 498.13,-723.70"/>
    </edge>
    <edge id=":36_0" function="internal">
        <lane id=":36_0_0" index="0" disallow="pedestrian tram rail_urban rail rail_electric rail_fast ship" speed="36.11" length="0.10" width="3.50" shape="497.02,-548.98 497.02,-548.98"/>
    </edge>
    <edge id=":73_0" function="internal">
        <lane id=":73_0_0" index="0" disallow="pedestrian tram rail_urban rail rail_electric rail_fast ship" speed="36.11" length="3.92" width="3.50" shape="494.44,-545.83 493.02,-549.48"/>
    </edge>
    <edge id=":74_0" function="internal">
        <lane id=":74_0_0" index="0" disallow="pedestrian tram rail_urban rail rail_electric rail_fast ship" speed="36.11" length="3.28" width="3.50" shape="487.32,-521.85 484.32,-520.53"/>
    </edge>
    <edge id=":81_0" function="internal">
        <lane id=":81_0_0" index="0" disallow="pedestrian tram rail_urban rail rail_electric rail_fast ship" speed="36.11" length="3.30" width="3.50" shape="482.93,-523.74 485.95,-525.06"/>
    </edge>
    <edge id=":94_0" function="internal">
        <lane id=":94_0_0" index="0" disallow="pedestrian tram rail_urban rail rail_electric rail_fast ship" speed="11.94" length="32.35" width="3.50" shape="439.75,-665.37 436.97,-671.42 435.82,-673.27 434.50,-674.98 433.01,-676.48 431.31,-677.76 430.45,-678.27 429.52,-678.71 428.55,-679.08 427.56,-679.37 426.57,-679.58 424.44,-679.77 422.30,-679.68 420.15,-679.35 418.03,-678.82 414.86,-677.70"/>
    </edge>
    <edge id=":94_1" function="internal">
        <lane id=":94_1_0" index="0" disallow="pedestrian tram rail_urban rail rail_electric rail_fast ship" speed="36.11" length="42.50" width="3.50" shape="439.75,-665.37 438.05,-669.36 430.55,-686.35 422.29,-704.12"/>
    </edge>
    <edge id=":94_2" function="internal">
        <lane id=":94_2_0" index="0" disallow="pedestrian tram rail_urban rail rail_electric rail_fast ship" speed="36.11" length="3.39" width="3.50" shape="425.46,-705.60 426.89,-702.53"/>
    </edge>
    <edge id=":94_3" function="internal">
        <lane id=":94_3_0" index="0" disallow="pedestrian tram rail_urban rail rail_electric rail_fast ship" speed="12.00" length="34.64" width="3.50" shape="425.45,-705.63 426.93,-702.08 427.69,-699.57 428.20,-696.97 428.38,-694.33 428.33,-692.94 428.16,-691.58 427.86,-690.23 427.44,-688.90 426.90,-687.62 426.24,-686.41 425.47,-685.26 424.60,-684.17 422.71,-682.30 420.59,-680.69 418.34,-679.34 414.86,-677.70"/>
    </edge>
    <edge id=":94_4" function="internal">
        <lane id=":94_4_0" index="0" disallow="pedestrian tram rail_urban rail rail_electric rail_fast ship" speed="10.99" length="28.83" width="3.50" shape="413.54,-680.94 416.55,-682.35 418.45,-683.50 420.21,-684.84 421.79,-686.40 422.48,-687.27 423.09,-688.19 423.62,-689.17 424.05,-690.19 424.39,-691.25 424.62,-692.33 424.76,-693.43 424.80,-694.54 424.65,-696.75 424.22,-698.93 423.57,-701.05 422.29,-704.12"/>
    </edge>
    <edge id=":94_5" function="internal">
        <lane id=":94_5_0" index="0" disallow="pedestrian tram rail_urban rail rail_electric rail_fast ship" speed="16.76" length="30.52" width="3.50" shape="413.54,-680.94 413.96,-681.05 414.49,-681.08 415.14,-681.02 415.91,-680.89 416.80,-680.68 417.80,-680.39 418.92,-680.02 420.16,-679.57 421.52,-679.05 422.99,-678.44 424.58,-677.75 426.29,-676.99 428.11,-676.14 430.05,-675.22 432.11,-674.22 434.29,-673.14 436.58,-671.97 438.99,-670.73 441.52,-669.41"/>
    </edge>
    <edge id=":96_0" function="internal">
        <lane id=":96_0_0" index="0" disallow="pedestrian tram rail_urban rail rail_electric rail_fast ship" speed="11.13" length="28.40" width="3.50" shape="464.25,-618.15 462.83,-621.10 461.68,-622.96 460.35,-624.69 458.82,-626.24 457.97,-626.93 457.07,-627.55 456.12,-628.09 455.13,-628.55 454.10,-628.92 453.04,-629.19 451.96,-629.38 449.78,-629.49 447.61,-629.31 445.47,-628.88 443.37,-628.25 441.33,-627.47"/>
    </edge>
    <edge id=":96_1" function="internal">
        <lane id=":96_1_0" index="0" disallow="pedestrian tram rail_urban rail rail_electric rail_fast ship" speed="36.11" length="38.83" width="3.50" shape="464.25,-618.15 456.69,-636.01 449.12,-653.91"/>
    </edge>
    <edge id=":96_2" function="internal">
        <lane id=":96_2_0" index="0" disallow="pedestrian tram rail_urban rail rail_electric rail_fast ship" speed="36.11" length="38.82" width="3.50" shape="452.33,-655.28 459.91,-637.38 467.46,-619.53"/>
    </edge>
    <edge id=":96_3" function="internal">