<routes>
	<vehicle depart="0.1" departLane="0" departPos="1.0" departSpeed="2.542943" id="354" type="bicycle">
		<route edges="43362 43549"/>
	</vehicle>
	<vehicle depart="0.1" departLane="0" departPos="10.973279533643362" departSpeed="11.341338" id="38" type="passenger">
		<route edges=":102_2 43549 43479"/>
	</vehicle>
	<vehicle depart="0.1" departLane="0" departPos="14.977654455012292" departSpeed="2.048511" id="328" type="passenger">
		<route edges="43550 43359"/>
	</vehicle>
	<vehicle depart="0.1" departLane="0" departPos="2.5" departSpeed="1.600839" id="350" type="passenger">
		<route edges=":102_5 43549"/>
	</vehicle>
</routes>
