<routes>
	<vehicle depart="0.1" departLane="0" departPos="24.691820631886277" departSpeed="0.042836202" id="338" type="bus">
		<route edges="39145 39242"/>
	</vehicle>
	<vehicle depart="0.1" departLane="0" departPos="60.04780777026623" departSpeed="2.0732895" id="34" type="passenger">
		<route edges="39241 39142"/>
	</vehicle>
	<vehicle depart="0.1" departLane="0" departPos="7.327019299721163" departSpeed="7.6199611" id="310" type="passenger">
		<route edges="39100"/>
	</vehicle>
	<vehicle depart="0.1" departLane="0" departPos="22.163898516181284" departSpeed="2.1508859" id="316" type="passenger">
		<route edges=":61_3 39139"/>
	</vehicle>
	<vehicle depart="0.1" departLane="0" departPos="72.49971989750583" departSpeed="0.19648189" id="317" type="passenger">
		<route edges="39099 39143"/>
	</vehicle>
	<vehicle depart="0.1" departLane="0" departPos="36.136854435033044" departSpeed="0.77748253" id="319" type="passenger">
		<route edges="39241 39142"/>
	</vehicle>
	<vehicle depart="0.1" departLane="0" departPos="52.25144682041419" departSpeed="0.74853732" id="320" type="passenger">
		<route edges="39099 39143"/>
	</vehicle>
	<vehicle depart="0.1" departLane="0" departPos="9.57722977045572" departSpeed="1.9662572" id="325" type="passenger">
		<route edges=":63_1 39146"/>
	</vehicle>
	<vehicle depart="0.1" departLane="0" departPos="43.85487282314228" departSpeed="1.7873411" id="327" type="passenger">
		<route edges="39241 39142"/>
	</vehicle>
	<vehicle depart="0.1" departLane="0" departPos="24.12255608307173" departSpeed="0.21855555" id="331" type="motorcycle">
		<route edges=":63_3 39142"/>
	</vehicle>
</routes>
