<routes>
	<vehicle depart="0.1" departLane="0" departPos="24.99871490502816" departSpeed="0.45438983" id="37" type="passenger">
		<route edges="14624 14596"/>
	</vehicle>
	<vehicle depart="0.1" departLane="0" departPos="116.91642133753277" departSpeed="0.57971281" id="311" type="passenger">
		<route edges=":97_2 14627"/>
	</vehicle>
	<vehicle depart="0.1" departLane="0" departPos="39.317696585429594" departSpeed="1.3551748" id="314" type="passenger">
		<route edges=":95_5 14624 14596"/>
	</vehicle>
	<vehicle depart="0.1" departLane="0" departPos="14.914809069834824" departSpeed="1.0019225" id="315" type="passenger">
		<route edges="14624 14596"/>
	</vehicle>
	<vehicle depart="0.1" departLane="0" departPos="21.443700816782897" departSpeed="3.1806295" id="322" type="passenger">
		<route edges=":95_2 14624"/>
	</vehicle>
	<vehicle depart="0.1" departLane="0" departPos="72.49999845134167" departSpeed="1.1364508" id="325" type="passenger">
		<route edges="14923 14624"/>
	</vehicle>
	<vehicle depart="0.1" departLane="0" departPos="124.59166240485087" departSpeed="1.2305525" id="327" type="passenger">
		<route edges=":97_2 14627 14624"/>
	</vehicle>
	<vehicle depart="0.1" departLane="0" departPos="28.48195510004197" departSpeed="1.0880154" id="329" type="passenger">
		<route edges="14627 14624"/>
	</vehicle>
	<vehicle depart="0.1" departLane="0" departPos="47.49090347699237" departSpeed="1.7794274" id="338" type="passenger">
		<route edges="14923 14624"/>
	</vehicle>
	<vehicle depart="0.1" departLane="0" departPos="9.941698929305275" departSpeed="1.7214904" id="341" type="passenger">
		<route edges=":95_6 14925"/>
	</vehicle>
</routes>
