<!-- generated on Tue Feb  9 22:02:44 2021 by Eclipse SUMO netconvert Version 1.8.0
<configuration xmlns:xsi="http://www.w3.org/2001/XMLSchema-instance" xsi:noNamespaceSchemaLocation="http://sumo.dlr.de/xsd/netconvertConfiguration.xsd">

    <input>
        <node-files value="./converted_scenarios/scenario-factory/ESP_Monzon-6_1_I-1-1/ESP_Monzon-6_1_I-1-1.nod.xml"/>
        <edge-files value="./converted_scenarios/scenario-factory/ESP_Monzon-6_1_I-1-1/ESP_Monzon-6_1_I-1-1.edg.xml"/>
        <connection-files value="./converted_scenarios/scenario-factory/ESP_Monzon-6_1_I-1-1/ESP_Monzon-6_1_I-1-1.con.xml"/>
        <tllogic-files value="./converted_scenarios/scenario-factory/ESP_Monzon-6_1_I-1-1/ESP_Monzon-6_1_I-1-1.tll.xml"/>
        <type-files value="/home/zen/commonroad-interactive-benchmarks/install/commonroad-map-tool/crmapconverter/sumo_map/templates/DEU.typ.xml"/>
    </input>

    <output>
        <output-file value="./converted_scenarios/scenario-factory/ESP_Monzon-6_1_I-1-1/ESP_Monzon-6_1_I-1-1.net.xml"/>
    </output>

    <processing>
        <geometry.remove.keep-edges.explicit value="true"/>
        <geometry.avoid-overlap value="true"/>
        <offset.disable-normalization value="true"/>
    </processing>

    <junctions>
        <no-turnarounds value="true"/>
        <junctions.internal-link-detail value="20"/>
    </junctions>

    <report>
        <aggregate-warnings value="5"/>
    </report>

    <random_number>
        <seed value="1234"/>
    </random_number>

</configuration>
--><net xmlns:xsi="http://www.w3.org/2001/XMLSchema-instance" version="1.6" junctionCornerDetail="5" junctionLinkDetail="20" limitTurnSpeed="5.50" xsi:noNamespaceSchemaLocation="http://sumo.dlr.de/xsd/net_file.xsd">

    <location netOffset="0.00,0.00" convBoundary="8.02,-663.63,385.62,-249.13" origBoundary="7.52,-663.63,386.83,-247.45" projParameter="!"/>

    <type id="highway.bridleway" priority="1" speed="2.78" allow="pedestrian" oneway="1" width="2.00"/>
    <type id="highway.bus_guideway" priority="1" speed="27.78" allow="bus" oneway="1"/>
    <type id="highway.cycleway" priority="1" speed="8.33" allow="bicycle" oneway="0" width="1.00"/>
    <type id="highway.footway" priority="1" speed="2.78" allow="pedestrian" oneway="1" width="2.00"/>
    <type id="highway.ford" priority="1" speed="2.78" allow="army" oneway="0"/>
    <type id="highway.living_street" priority="2" speed="2.78" disallow="tram rail_urban rail rail_electric rail_fast ship" oneway="0"/>
    <type id="highway.motorway" priority="14" speed="39.44" allow="private emergency authority army vip passenger hov taxi bus coach delivery truck trailer motorcycle evehicle custom1 custom2" oneway="1"/>
    <type id="highway.motorway_link" priority="9" speed="22.22" allow="private emergency authority army vip passenger hov taxi bus coach delivery truck trailer motorcycle evehicle custom1 custom2" oneway="1"/>
    <type id="highway.path" priority="1" speed="2.78" allow="pedestrian bicycle" oneway="0" width="2.00"/>
    <type id="highway.pedestrian" priority="1" speed="2.78" allow="pedestrian" oneway="1" width="2.00"/>
    <type id="highway.primary" priority="12" speed="27.78" disallow="pedestrian tram rail_urban rail rail_electric rail_fast ship" oneway="0"/>
    <type id="highway.primary_link" priority="7" speed="22.22" disallow="pedestrian tram rail_urban rail rail_electric rail_fast ship" oneway="0"/>
    <type id="highway.raceway" priority="15" speed="83.33" allow="vip" oneway="0"/>
    <type id="highway.residential" priority="3" speed="13.89" disallow="pedestrian tram rail_urban rail rail_electric rail_fast ship" oneway="0"/>
    <type id="highway.secondary" priority="11" speed="27.78" disallow="pedestrian tram rail_urban rail rail_electric rail_fast ship" oneway="0"/>
    <type id="highway.secondary_link" priority="6" speed="22.22" disallow="pedestrian tram rail_urban rail rail_electric rail_fast ship" oneway="0"/>
    <type id="highway.service" priority="1" speed="5.56" allow="pedestrian delivery bicycle" oneway="0"/>
    <type id="highway.stairs" priority="1" speed="1.39" allow="pedestrian" oneway="1" width="2.00"/>
    <type id="highway.step" priority="1" speed="1.39" allow="pedestrian" oneway="1" width="2.00"/>
    <type id="highway.steps" priority="1" speed="1.39" allow="pedestrian" oneway="1" width="2.00"/>
    <type id="highway.tertiary" priority="10" speed="22.22" disallow="pedestrian tram rail_urban rail rail_electric rail_fast ship" oneway="0"/>
    <type id="highway.tertiary_link" priority="5" speed="22.22" disallow="pedestrian tram rail_urban rail rail_electric rail_fast ship" oneway="0"/>
    <type id="highway.track" priority="1" speed="5.56" allow="pedestrian motorcycle moped bicycle" oneway="0"/>
    <type id="highway.trunk" priority="13" speed="27.78" disallow="pedestrian bicycle tram rail_urban rail rail_electric rail_fast ship" oneway="0"/>
    <type id="highway.trunk_link" priority="8" speed="22.22" disallow="pedestrian bicycle tram rail_urban rail rail_electric rail_fast ship" oneway="0"/>
    <type id="highway.unclassified" priority="4" speed="13.89" disallow="pedestrian tram rail_urban rail rail_electric rail_fast ship" oneway="0"/>
    <type id="highway.unsurfaced" priority="1" speed="8.33" disallow="tram rail_urban rail rail_electric rail_fast ship" oneway="0"/>
    <type id="railway.highspeed" priority="21" speed="69.44" allow="rail_fast" oneway="1"/>
    <type id="railway.light_rail" priority="19" speed="27.78" allow="rail_urban" oneway="1"/>
    <type id="railway.preserved" priority="16" speed="27.78" allow="rail" oneway="1"/>
    <type id="railway.rail" priority="20" speed="44.44" allow="rail" oneway="1"/>
    <type id="railway.subway" priority="18" speed="27.78" allow="rail_urban" oneway="1"/>
    <type id="railway.tram" priority="17" speed="13.89" allow="tram" oneway="1"/>

    <edge id=":53_0" function="internal">
        <lane id=":53_0_0" index="0" disallow="pedestrian tram rail_urban rail rail_electric rail_fast ship" speed="36.11" length="3.77" width="3.50" shape="75.06,-418.00 73.06,-421.20"/>
    </edge>
    <edge id=":70_0" function="internal">
        <lane id=":70_0_0" index="0" disallow="pedestrian tram rail_urban rail rail_electric rail_fast ship" speed="36.11" length="0.10" width="3.50" shape="77.57,-443.32 77.57,-443.32"/>
    </edge>
    <edge id=":87_0" function="internal">
        <lane id=":87_0_0" index="0" disallow="pedestrian tram rail_urban rail rail_electric rail_fast ship" speed="36.11" length="45.37" width="3.50" shape="286.30,-413.02 276.05,-404.02 265.53,-395.37 254.76,-387.08 251.11,-384.41"/>
        <lane id=":87_0_1" index="1" disallow="pedestrian tram rail_urban rail rail_electric rail_fast ship" speed="36.11" length="45.00" width="3.50" shape="283.95,-415.61 273.80,-406.70 263.38,-398.13 252.68,-389.90 249.05,-387.23"/>
    </edge>
    <edge id=":87_2" function="internal">
        <lane id=":87_2_0" index="0" disallow="pedestrian tram rail_urban rail rail_electric rail_fast ship" speed="12.63" length="39.00" width="3.50" shape="283.95,-415.61 281.23,-413.33 278.31,-411.32 275.70,-409.93 272.95,-408.87 270.64,-408.33 268.29,-408.12 265.93,-408.26 263.62,-408.76 261.41,-409.58 259.31,-410.68 256.89,-412.36 254.66,-414.31 252.23,-416.89 250.74,-418.72"/>
    </edge>
    <edge id=":87_3" function="internal">
        <lane id=":87_3_0" index="0" disallow="pedestrian tram rail_urban rail rail_electric rail_fast ship" speed="11.13" length="30.03" width="3.50" shape="253.50,-420.87 255.47,-418.60 257.25,-416.98 259.23,-415.63 260.85,-414.84 262.57,-414.29 264.35,-414.01 266.15,-414.00 267.93,-414.25 270.24,-414.92 272.43,-415.90 275.01,-417.44 277.89,-419.61 279.24,-420.80"/>
    </edge>
    <edge id=":87_4" function="internal">
        <lane id=":87_4_0" index="0" disallow="pedestrian tram rail_urban rail rail_electric rail_fast ship" speed="12.87" length="39.21" width="3.50" shape="253.50,-420.87 255.86,-417.52 257.59,-414.46 258.76,-411.78 259.60,-408.98 259.98,-406.67 260.06,-404.33 259.81,-402.00 259.24,-399.73 258.36,-397.56 257.23,-395.52 255.51,-393.15 253.53,-391.00 250.91,-388.66 249.05,-387.23"/>
    </edge>
    <edge id=":87_5" function="internal">
        <lane id=":87_5_0" index="0" disallow="pedestrian tram rail_urban rail rail_electric rail_fast ship" speed="11.41" length="30.53" width="3.50" shape="244.93,-392.89 247.70,-395.08 249.83,-397.10 251.74,-399.33 253.03,-401.29 254.05,-403.41 254.58,-405.09 254.88,-406.82 254.94,-408.58 254.76,-410.33 254.17,-412.61 253.26,-414.77 251.77,-417.30 250.74,-418.72"/>
    </edge>
    <edge id=":87_6" function="internal">
        <lane id=":87_6_0" index="0" disallow="pedestrian tram rail_urban rail rail_electric rail_fast ship" speed="36.11" length="44.25" width="3.50" shape="244.93,-392.89 248.50,-395.52 259.02,-403.61 269.27,-412.04 279.24,-420.80"/>
        <lane id=":87_6_1" index="1" disallow="pedestrian tram rail_urban rail rail_electric rail_fast ship" speed="36.11" length="44.62" width="3.50" shape="247.00,-390.07 250.60,-392.72 261.22,-400.89 271.56,-409.39 281.60,-418.21"/>
    </edge>
    <edge id=":88_0" function="internal">
        <lane id=":88_0_0" index="0" disallow="pedestrian tram rail_urban rail rail_electric rail_fast ship" speed="11.12" length="30.55" width="3.50" shape="328.98,-427.54 327.09,-429.86 325.37,-431.53 323.46,-432.97 321.88,-433.84 320.20,-434.48 318.45,-434.87 316.65,-434.97 314.86,-434.81 312.54,-434.23 310.32,-433.32 307.71,-431.85 304.81,-429.73 302.99,-428.17"/>
    </edge>
    <edge id=":88_1" function="internal">
        <lane id=":88_1_0" index="0" disallow="pedestrian tram rail_urban rail rail_electric rail_fast ship" speed="36.11" length="45.63" width="3.50" shape="328.98,-427.54 327.14,-430.04 318.36,-441.61 309.30,-452.95 300.60,-463.25"/>
    </edge>
    <edge id=":88_2" function="internal">
        <lane id=":88_2_0" index="0" disallow="pedestrian tram rail_urban rail rail_electric rail_fast ship" speed="14.01" length="40.99" width="3.50" shape="328.98,-427.54 326.76,-430.85 325.11,-433.84 323.75,-436.97 322.90,-439.69 322.35,-442.48 322.15,-445.32 322.34,-448.16 322.90,-450.95 323.82,-453.64 325.06,-456.20 326.57,-458.62 328.67,-461.31 331.42,-464.20"/>
    </edge>
    <edge id=":88_3" function="internal">
        <lane id=":88_3_0" index="0" disallow="pedestrian tram rail_urban rail rail_electric rail_fast ship" speed="12.66" length="33.29" width="3.50" shape="336.25,-459.15 333.52,-456.29 331.42,-453.63 329.91,-451.25 328.68,-448.71 327.80,-446.03 327.40,-443.81 327.29,-441.56 327.49,-439.31 327.98,-437.11 328.95,-434.46 330.25,-431.96 331.80,-429.60"/>
    </edge>
    <edge id=":88_4" function="internal">
        <lane id=":88_4_0" index="0" disallow="pedestrian tram rail_urban rail rail_electric rail_fast ship" speed="36.11" length="45.45" width="3.50" shape="336.25,-459.14 319.72,-443.54 302.99,-428.17"/>
        <lane id=":88_4_1" index="1" disallow="pedestrian tram rail_urban rail rail_electric rail_fast ship" speed="36.11" length="45.36" width="3.50" shape="333.83,-461.67 317.34,-446.10 300.64,-430.76"/>
    </edge>
    <edge id=":88_6" function="internal">
        <lane id=":88_6_0" index="0" disallow="pedestrian tram rail_urban rail rail_electric rail_fast ship" speed="12.69" length="38.62" width="3.50" shape="333.83,-461.67 330.74,-458.98 327.87,-456.96 325.31,-455.56 322.58,-454.49 320.31,-453.95 317.98,-453.72 315.64,-453.83 313.35,-454.28 311.13,-455.04 308.52,-456.36 306.10,-458.00 303.43,-460.28 300.60,-463.25"/>
    </edge>
    <edge id=":88_7" function="internal">
        <lane id=":88_7_0" index="0" disallow="pedestrian tram rail_urban rail rail_electric rail_fast ship" speed="11.21" length="29.83" width="3.50" shape="303.25,-465.54 305.29,-463.44 307.11,-461.97 309.12,-460.76 310.73,-460.08 312.43,-459.63 314.17,-459.42 315.92,-459.48 318.22,-459.91 320.43,-460.69 323.02,-462.04 325.44,-463.69 328.14,-465.93 328.99,-466.73"/>
    </edge>
    <edge id=":88_8" function="internal">
        <lane id=":88_8_0" index="0" disallow="pedestrian tram rail_urban rail rail_electric rail_fast ship" speed="36.11" length="45.91" width="3.50" shape="303.25,-465.54 312.00,-455.17 321.12,-443.76 329.95,-432.13 331.80,-429.60"/>
    </edge>
    <edge id=":88_9" function="internal">
        <lane id=":88_9_0" index="0" disallow="pedestrian tram rail_urban rail rail_electric rail_fast ship" speed="13.23" length="39.80" width="3.50" shape="303.25,-465.54 305.75,-462.36 307.60,-459.44 308.86,-456.85 309.81,-454.12 310.29,-451.87 310.50,-449.57 310.41,-447.26 310.03,-444.99 309.37,-442.78 308.21,-440.14 306.74,-437.66 304.65,-434.90 301.90,-431.94 300.64,-430.76"/>
    </edge>
    <edge id=":88_10" function="internal">
        <lane id=":88_10_0" index="0" disallow="pedestrian tram rail_urban rail rail_electric rail_fast ship" speed="11.82" length="31.50" width="3.50" shape="295.93,-435.94 298.84,-438.81 301.09,-441.49 302.71,-443.91 304.02,-446.52 304.77,-448.73 305.17,-451.03 305.22,-452.78 305.05,-454.52 304.48,-456.78 303.57,-458.93 302.39,-460.94 300.60,-463.25"/>
    </edge>
    <edge id=":88_11" function="internal">
        <lane id=":88_11_0" index="0" disallow="pedestrian tram rail_urban rail rail_electric rail_fast ship" speed="36.11" length="45.18" width="3.50" shape="295.93,-435.94 312.56,-451.22 328.99,-466.73"/>
        <lane id=":88_11_1" index="1" disallow="pedestrian tram rail_urban rail rail_electric rail_fast ship" speed="36.11" length="45.27" width="3.50" shape="298.29,-433.35 314.95,-448.67 331.42,-464.20"/>
    </edge>
    <edge id=":88_13" function="internal">
        <lane id=":88_13_0" index="0" disallow="pedestrian tram rail_urban rail rail_electric rail_fast ship" speed="12.62" length="39.72" width="3.50" shape="298.29,-433.35 301.06,-435.67 304.03,-437.71 306.69,-439.13 308.93,-440.01 311.26,-440.62 313.65,-440.89 316.05,-440.79 318.41,-440.31 320.67,-439.49 322.80,-438.37 325.27,-436.64 327.51,-434.64 329.95,-431.98 331.80,-429.60"/>
    </edge>
    <edge id=":89_0" function="internal">
        <lane id=":89_0_0" index="0" disallow="pedestrian tram rail_urban rail rail_electric rail_fast ship" speed="11.20" length="28.66" width="3.50" shape="229.25,-446.46 227.09,-448.96 225.49,-450.48 223.73,-451.81 221.82,-452.91 220.81,-453.35 219.77,-453.71 218.70,-453.98 217.61,-454.16 216.51,-454.24 215.41,-454.22 214.31,-454.11 212.16,-453.65 210.08,-452.90 208.11,-451.92 206.23,-450.77 204.44,-449.48"/>
    </edge>
    <edge id=":89_1" function="internal">
        <lane id=":89_1_0" index="0" disallow="pedestrian tram rail_urban rail rail_electric rail_fast ship" speed="8.89" length="17.41" width="3.50" shape="226.55,-464.63 226.33,-462.90 226.41,-460.58 226.84,-458.29 227.57,-456.08 228.81,-453.45 230.65,-450.48 232.00,-448.63"/>
    </edge>
    <edge id=":89_2" function="internal">
        <lane id=":89_2_0" index="0" disallow="pedestrian tram rail_urban rail rail_electric rail_fast ship" speed="36.11" length="26.75" width="3.50" shape="224.62,-467.03 211.52,-455.28 205.24,-450.10 204.44,-449.48"/>
    </edge>
    <edge id=":89_3" function="internal">
        <lane id=":89_3_0" index="0" disallow="pedestrian tram rail_urban rail rail_electric rail_fast ship" speed="12.20" length="34.20" width="3.50" shape="202.30,-452.26 204.37,-453.74 206.56,-455.08 208.89,-456.23 211.37,-457.12 213.95,-457.68 215.33,-457.82 216.69,-457.84 218.05,-457.74 219.40,-457.52 220.72,-457.18 222.00,-456.74 223.26,-456.18 225.54,-454.87 227.63,-453.28 229.52,-451.49 232.00,-448.63"/>
    </edge>
    <edge id=":90_0" function="internal">
        <lane id=":90_0_0" index="0" disallow="pedestrian tram rail_urban rail rail_electric rail_fast ship" speed="36.11" length="43.76" width="3.50" shape="226.76,-366.72 216.16,-358.99 191.56,-340.73"/>
        <lane id=":90_0_1" index="1" disallow="pedestrian tram rail_urban rail rail_electric rail_fast ship" speed="36.11" length="43.81" width="3.50" shape="224.70,-369.55 214.09,-361.80 189.46,-343.53"/>
    </edge>
    <edge id=":90_2" function="internal">
        <lane id=":90_2_0" index="0" disallow="pedestrian tram rail_urban rail rail_electric rail_fast ship" speed="13.14" length="38.53" width="3.50" shape="224.70,-369.55 221.82,-367.64 218.78,-366.02 216.10,-364.96 213.32,-364.23 211.04,-363.93 208.74,-363.92 206.46,-364.19 204.23,-364.76 201.57,-365.84 199.07,-367.27 196.76,-368.98 194.21,-371.30 191.52,-374.30 191.16,-374.75"/>
    </edge>
    <edge id=":90_3" function="internal">
        <lane id=":90_3_0" index="0" disallow="pedestrian tram rail_urban rail rail_electric rail_fast ship" speed="11.70" length="30.32" width="3.50" shape="193.89,-376.93 195.83,-374.76 197.57,-373.20 199.48,-371.87 201.57,-370.82 203.79,-370.13 206.10,-369.82 208.43,-369.88 210.73,-370.29 213.50,-371.19 216.15,-372.42 219.15,-374.22 220.59,-375.22"/>
    </edge>
    <edge id=":90_4" function="internal">
        <lane id=":90_4_0" index="0" disallow="pedestrian tram rail_urban rail rail_electric rail_fast ship" speed="12.83" length="38.93" width="3.50" shape="193.89,-376.93 195.99,-374.08 197.81,-371.04 199.04,-368.36 199.93,-365.55 200.33,-363.22 200.43,-360.87 200.20,-358.52 199.63,-356.23 198.75,-354.04 197.61,-351.97 195.90,-349.58 193.92,-347.38 191.31,-344.99 189.46,-343.53"/>
    </edge>
    <edge id=":90_5" function="internal">
        <lane id=":90_5_0" index="0" disallow="pedestrian tram rail_urban rail rail_electric rail_fast ship" speed="11.37" length="30.29" width="3.50" shape="185.25,-349.12 188.41,-351.72 190.86,-354.21 192.64,-356.51 193.81,-358.52 194.69,-360.68 195.11,-362.38 195.29,-364.11 195.22,-365.86 194.92,-367.58 194.19,-369.79 193.14,-371.87 191.52,-374.29 191.16,-374.75"/>
    </edge>
    <edge id=":90_6" function="internal">
        <lane id=":90_6_0" index="0" disallow="pedestrian tram rail_urban rail rail_electric rail_fast ship" speed="36.11" length="43.93" width="3.50" shape="185.25,-349.12 209.95,-367.45 220.59,-375.22"/>
        <lane id=":90_6_1" index="1" disallow="pedestrian tram rail_urban rail rail_electric rail_fast ship" speed="36.11" length="43.87" width="3.50" shape="187.36,-346.33 212.01,-364.62 222.65,-372.39"/>
    </edge>
    <edge id=":91_0" function="internal">
        <lane id=":91_0_0" index="0" disallow="pedestrian tram rail_urban rail rail_electric rail_fast ship" speed="11.41" length="29.30" width="3.50" shape="170.24,-400.94 168.07,-403.37 166.47,-404.84 164.72,-406.13 162.83,-407.19 160.81,-407.97 159.75,-408.23 158.68,-408.41 157.60,-408.50 156.52,-408.51 154.36,-408.26 152.26,-407.72 150.24,-406.93 148.30,-405.95 145.56,-404.19 144.69,-403.55"/>
    </edge>
    <edge id=":91_1" function="internal">
        <lane id=":91_1_0" index="0" disallow="pedestrian tram rail_urban rail rail_electric rail_fast ship" speed="36.11" length="39.61" width="3.50" shape="170.24,-400.94 168.94,-402.56 158.98,-414.60 144.68,-431.20"/>
    </edge>
    <edge id=":91_2" function="internal">
        <lane id=":91_2_0" index="0" disallow="pedestrian tram rail_urban rail rail_electric rail_fast ship" speed="12.07" length="33.99" width="3.50" shape="170.24,-400.94 167.95,-404.13 166.65,-406.40 165.59,-408.79 164.84,-411.29 164.61,-412.58 164.48,-413.88 164.46,-415.19 164.56,-416.49 164.77,-417.78 165.10,-419.04 165.54,-420.28 166.69,-422.62 168.16,-424.78 169.87,-426.76 171.75,-428.58 173.77,-430.24"/>
    </edge>
    <edge id=":91_3" function="internal">
        <lane id=":91_3_0" index="0" disallow="pedestrian tram rail_urban rail rail_electric rail_fast ship" speed="11.06" length="28.34" width="3.50" shape="175.91,-427.47 174.16,-426.03 172.54,-424.47 171.09,-422.79 169.87,-421.00 168.91,-419.06 168.58,-418.09 168.31,-417.08 168.14,-416.06 168.07,-415.02 168.08,-413.98 168.18,-412.93 168.37,-411.92 168.99,-409.82 169.88,-407.82 170.98,-405.90 172.97,-403.13"/>
    </edge>
    <edge id=":91_4" function="internal">
        <lane id=":91_4_0" index="0" disallow="pedestrian tram rail_urban rail rail_electric rail_fast ship" speed="36.11" length="39.33" width="3.50" shape="175.91,-427.47 160.30,-415.51 144.69,-403.55"/>
    </edge>
    <edge id=":91_5" function="internal">
        <lane id=":91_5_0" index="0" disallow="pedestrian tram rail_urban rail rail_electric rail_fast ship" speed="12.72" length="35.50" width="3.50" shape="175.91,-427.47 172.86,-425.37 170.66,-424.15 168.33,-423.15 165.88,-422.41 163.32,-422.00 160.71,-421.97 158.13,-422.33 155.64,-423.06 153.30,-424.10 151.12,-425.40 149.10,-426.89 147.23,-428.54 144.68,-431.20"/>
    </edge>
    <edge id=":91_6" function="internal">
        <lane id=":91_6_0" index="0" disallow="pedestrian tram rail_urban rail rail_electric rail_fast ship" speed="11.75" length="30.16" width="3.50" shape="147.31,-433.51 149.55,-431.16 151.17,-429.74 152.90,-428.46 154.75,-427.35 156.71,-426.47 158.77,-425.85 160.90,-425.55 163.06,-425.57 165.18,-425.90 167.25,-426.52 169.23,-427.37 171.11,-428.41 173.77,-430.24"/>
    </edge>
    <edge id=":91_7" function="internal">
        <lane id=":91_7_0" index="0" disallow="pedestrian tram rail_urban rail rail_electric rail_fast ship" speed="36.11" length="39.77" width="3.50" shape="147.31,-433.51 161.66,-416.85 171.66,-404.76 172.97,-403.13"/>
    </edge>
    <edge id=":91_8" function="internal">
        <lane id=":91_8_0" index="0" disallow="pedestrian tram rail_urban rail rail_electric rail_fast ship" speed="12.03" length="35.08" width="3.50" shape="147.31,-433.51 149.83,-430.32 151.29,-428.06 152.52,-425.65 153.44,-423.12 153.75,-421.81 153.96,-420.48 154.05,-419.13 154.01,-417.78 153.84,-416.44 153.55,-415.13 153.13,-413.84 152.61,-412.60 151.27,-410.26 149.63,-408.12 147.77,-406.17 145.75,-404.38 144.69,-403.55"/>
    </edge>
    <edge id=":91_9" function="internal">
        <lane id=":91_9_0" index="0" disallow="pedestrian tram rail_urban rail rail_electric rail_fast ship" speed="11.01" length="29.23" width="3.50" shape="142.57,-406.33 143.48,-407.05 145.24,-408.60 146.82,-410.26 148.19,-412.05 149.30,-414.00 149.71,-414.97 150.04,-416.00 150.27,-417.04 150.40,-418.10 150.43,-419.17 150.35,-420.24 150.18,-421.31 149.93,-422.35 149.16,-424.47 148.12,-426.49 146.88,-428.42 144.68,-431.20"/>
    </edge>
    <edge id=":91_10" function="internal">
        <lane id=":91_10_0" index="0" disallow="pedestrian tram rail_urban rail rail_electric rail_fast ship" speed="36.11" length="39.31" width="3.50" shape="142.57,-406.33 158.17,-418.29 173.77,-430.24"/>
    </edge>
    <edge id=":91_11" function="internal">
        <lane id=":91_11_0" index="0" disallow="pedestrian tram rail_urban rail rail_electric rail_fast ship" speed="12.40" length="34.79" width="3.50" shape="142.57,-406.33 143.60,-407.09 146.72,-409.09 149.00,-410.24 151.39,-411.17 153.92,-411.81 156.50,-412.10 157.86,-412.09 159.19,-411.97 160.50,-411.75 161.82,-411.41 164.25,-410.46 166.52,-409.18 168.59,-407.65 170.48,-405.93 172.97,-403.13"/>
    </edge>
    <edge id=":92_0" function="internal">
        <lane id=":92_0_0" index="0" disallow="pedestrian tram rail_urban rail rail_electric rail_fast ship" speed="36.11" length="28.67" width="3.49" shape="163.75,-319.86 152.32,-311.22 140.88,-302.57"/>
        <lane id=":92_0_1" index="1" disallow="pedestrian tram rail_urban rail rail_electric rail_fast ship" speed="36.11" length="28.74" width="3.50" shape="161.66,-322.67 150.20,-314.00 138.74,-305.33"/>
    </edge>
    <edge id=":92_2" function="internal">
        <lane id=":92_2_0" index="0" disallow="pedestrian tram rail_urban rail rail_electric rail_fast ship" speed="9.86" length="23.27" width="3.50" shape="161.66,-322.67 158.72,-320.68 156.11,-319.29 153.36,-318.24 151.06,-317.70 148.70,-317.51 146.35,-317.71 144.06,-318.29 141.90,-319.23 140.18,-320.28"/>
    </edge>
    <edge id=":92_3" function="internal">
        <lane id=":92_3_0" index="0" disallow="pedestrian tram rail_urban rail rail_electric rail_fast ship" speed="6.42" length="8.14" width="3.50" shape="134.45,-310.87 135.66,-312.06 136.28,-313.00 136.86,-314.58 137.05,-316.25 136.95,-317.94 136.89,-318.19"/>
    </edge>
    <edge id=":92_4" function="internal">
        <lane id=":92_4_0" index="0" disallow="pedestrian tram rail_urban rail rail_electric rail_fast ship" speed="36.11" length="28.83" width="3.50" shape="134.45,-310.87 145.96,-319.58 157.45,-328.26"/>
        <lane id=":92_4_1" index="1" disallow="pedestrian tram rail_urban rail rail_electric rail_fast ship" speed="36.11" length="28.79" width="3.50" shape="136.60,-308.10 148.08,-316.79 159.56,-325.47"/>
    </edge>
    <edge id=":93_0" function="internal">
        <lane id=":93_0_0" index="0" disallow="pedestrian tram rail_urban rail rail_electric rail_fast ship" speed="8.67" length="17.24" width="3.50" shape="123.28,-455.52 121.44,-457.80 119.87,-460.26 118.86,-462.38 118.16,-464.61 117.87,-466.34 117.82,-468.10 118.00,-469.84 118.34,-471.24"/>
    </edge>
    <edge id=":93_1" function="internal">
        <lane id=":93_1_0" index="0" disallow="pedestrian tram rail_urban rail rail_electric rail_fast ship" speed="36.11" length="9.98" width="3.50" shape="108.41,-467.65 116.21,-473.87"/>
    </edge>
    <edge id=":93_2" function="internal">
        <lane id=":93_2_0" index="0" disallow="pedestrian tram rail_urban rail rail_electric rail_fast ship" speed="9.13" length="17.88" width="3.50" shape="110.37,-465.15 110.95,-465.23 113.26,-465.20 115.53,-464.81 117.71,-464.07 119.77,-463.04 122.15,-461.41 124.31,-459.51 125.90,-457.83"/>
    </edge>
    <edge id=":94_0" function="internal">
        <lane id=":94_0_0" index="0" disallow="pedestrian tram rail_urban rail rail_electric rail_fast ship" speed="36.11" length="10.03" width="3.50" shape="106.13,-370.27 103.97,-373.77 100.85,-378.80"/>
    </edge>
    <edge id=":94_1" function="internal">
        <lane id=":94_1_0" index="0" disallow="pedestrian tram rail_urban rail rail_electric rail_fast ship" speed="9.36" length="18.44" width="3.50" shape="108.57,-371.83 108.55,-372.41 108.78,-374.71 109.36,-376.94 110.25,-379.06 111.42,-381.04 113.19,-383.32 115.22,-385.36 117.44,-387.20"/>
    </edge>
    <edge id=":94_2" function="internal">
        <lane id=":94_2_0" index="0" disallow="pedestrian tram rail_urban rail rail_electric rail_fast ship" speed="8.48" length="16.65" width="3.50" shape="119.56,-384.42 117.13,-382.75 114.52,-381.39 112.30,-380.60 109.98,-380.15 108.22,-380.09 106.46,-380.26 104.74,-380.69 104.06,-380.97"/>
    </edge>
    <edge id=":95_0" function="internal">
        <lane id=":95_0_0" index="0" disallow="pedestrian tram rail_urban rail rail_electric rail_fast ship" speed="8.97" length="17.50" width="3.50" shape="278.97,-488.25 276.57,-490.77 274.36,-492.64 272.44,-493.92 270.37,-494.96 268.16,-495.66 266.45,-495.94 264.71,-495.98 264.01,-495.89"/>
    </edge>
    <edge id=":95_1" function="internal">
        <lane id=":95_1_0" index="0" disallow="pedestrian tram rail_urban rail rail_electric rail_fast ship" speed="36.11" length="37.48" width="3.50" shape="278.97,-488.25 274.89,-492.98 262.14,-508.07 254.96,-517.02"/>
    </edge>
    <edge id=":95_2" function="internal">
        <lane id=":95_2_0" index="0" disallow="pedestrian tram rail_urban rail rail_electric rail_fast ship" speed="9.12" length="17.05" width="3.50" shape="275.98,-506.07 275.91,-505.67 275.80,-503.38 276.05,-501.10 276.62,-498.87 277.48,-496.74 278.86,-494.22 280.52,-491.88 281.61,-490.55"/>
    </edge>
    <edge id=":95_3" function="internal">
        <lane id=":95_3_0" index="0" disallow="pedestrian tram rail_urban rail rail_electric rail_fast ship" speed="36.11" length="15.23" width="3.50" shape="273.40,-508.45 267.88,-503.08 262.28,-498.05"/>
    </edge>
    <edge id=":95_4" function="internal">
        <lane id=":95_4_0" index="0" disallow="pedestrian tram rail_urban rail rail_electric rail_fast ship" speed="8.82" length="19.70" width="3.50" shape="271.81,-509.91 270.43,-509.49 268.63,-509.20 266.80,-509.20 265.00,-509.49 263.26,-510.05 261.62,-510.86 259.60,-512.22 257.77,-513.82 255.72,-516.07 254.96,-517.02"/>
    </edge>
    <edge id=":95_5" function="internal">
        <lane id=":95_5_0" index="0" disallow="pedestrian tram rail_urban rail rail_electric rail_fast ship" speed="36.11" length="37.26" width="3.50" shape="257.74,-519.15 264.86,-510.28 277.56,-495.25 281.61,-490.55"/>
    </edge>
    <edge id=":95_6" function="internal">
        <lane id=":95_6_0" index="0" disallow="pedestrian tram rail_urban rail rail_electric rail_fast ship" speed="9.83" length="21.44" width="3.50" shape="257.74,-519.15 259.73,-516.28 261.14,-513.72 262.23,-511.01 262.79,-508.75 263.03,-506.43 262.90,-504.10 262.39,-501.82 261.52,-499.65 261.30,-499.27"/>
    </edge>
    <edge id=":96_0" function="internal">
        <lane id=":96_0_0" index="0" disallow="pedestrian tram rail_urban rail rail_electric rail_fast ship" speed="12.90" length="28.69" width="3.50" shape="145.42,-289.11 143.15,-290.68 141.19,-291.70 139.11,-292.45 136.96,-292.93 134.76,-293.12 132.00,-292.99 129.29,-292.50 126.13,-291.52 123.09,-290.20 119.69,-288.36 118.76,-287.78"/>
    </edge>
    <edge id=":96_1" function="internal">
        <lane id=":96_1_0" index="0" disallow="pedestrian tram rail_urban rail rail_electric rail_fast ship" speed="9.67" length="24.80" width="3.50" shape="145.42,-289.11 141.42,-292.52 138.52,-295.41 136.66,-297.66 135.38,-299.61 134.62,-301.19 134.17,-302.88 134.13,-304.04 134.34,-305.19 134.83,-306.25 135.54,-307.17 137.09,-308.49"/>
    </edge>
    <edge id=":96_2" function="internal">
        <lane id=":96_2_0" index="0" disallow="pedestrian tram rail_urban rail rail_electric rail_fast ship" speed="7.57" length="14.77" width="3.50" shape="141.40,-302.97 140.28,-302.01 140.02,-301.50 139.92,-300.93 139.99,-300.35 140.39,-299.27 141.33,-297.82 143.26,-295.66 146.26,-292.94 147.60,-291.84"/>
    </edge>
    <edge id=":96_3" function="internal">