<routes>
	<vehicle depart="0.1" departLane="0" departPos="7.802470796200407" departSpeed="1.4352471" id="313" type="bicycle">
		<route edges=":48_4 12994"/>
	</vehicle>
	<vehicle depart="0.1" departLane="0" departPos="19.145847894400806" departSpeed="0.96343794" id="318" type="passenger">
		<route edges="12647 12994"/>
	</vehicle>
	<vehicle depart="0.1" departLane="0" departPos="7.602230064966492" departSpeed="0.75613939" id="319" type="passenger">
		<route edges=":48_5 12133"/>
	</vehicle>
	<vehicle depart="0.1" departLane="0" departPos="42.18040614028197" departSpeed="1.2903554" id="324" type="passenger">
		<route edges="12130 12994"/>
	</vehicle>
	<vehicle depart="0.1" departLane="0" departPos="16.840481968395988" departSpeed="0.62152332" id="329" type="passenger">
		<route edges="12130 12994"/>
	</vehicle>
	<vehicle depart="0.1" departLane="0" departPos="25.245000922818935" departSpeed="1.5039691" id="333" type="passenger">
		<route edges="12130 12994"/>
	</vehicle>
	<vehicle depart="0.1" departLane="0" departPos="69.47316973049365" departSpeed="1.2698552" id="336" type="passenger">
		<route edges="12132 12129"/>
	</vehicle>
	<vehicle depart="0.1" departLane="0" departPos="9.146040571797776" departSpeed="1.1100936" id="341" type="passenger">
		<route edges=":48_2 12648"/>
	</vehicle>
	<vehicle depart="0.1" departLane="0" departPos="59.936773689279846" departSpeed="1.3363179" id="342" type="passenger">
		<route edges="12132 12129"/>
	</vehicle>
	<vehicle depart="0.1" departLane="0" departPos="12.205815329814946" departSpeed="0.0" id="30" type="truck">
		<route edges="12993 12133"/>
	</vehicle>
</routes>
