<routes>
	<vehicle depart="0.1" departLane="1" departPos="0" departSpeed="11.015892" id="1" type="passenger">
		<route edges="26 28 24"/>
	</vehicle>
	<vehicle depart="0.1" departLane="0" departPos="0" departSpeed="13.740331" id="2" type="passenger">
		<route edges="26 27 24"/>
	</vehicle>
	<vehicle depart="0.1" departLane="0" departPos="101.43351593643679" departSpeed="12.236044" id="3" type="passenger">
		<route edges="26 26 28 24"/>
	</vehicle>
</routes>
