<!-- generated on Tue Feb  9 22:14:55 2021 by Eclipse SUMO netconvert Version 1.8.0
<configuration xmlns:xsi="http://www.w3.org/2001/XMLSchema-instance" xsi:noNamespaceSchemaLocation="http://sumo.dlr.de/xsd/netconvertConfiguration.xsd">

    <input>
        <node-files value="./converted_scenarios/scenario-factory/DEU_Hennigsdorf-13_2_I-1-1/DEU_Hennigsdorf-13_2_I-1-1.nod.xml"/>
        <edge-files value="./converted_scenarios/scenario-factory/DEU_Hennigsdorf-13_2_I-1-1/DEU_Hennigsdorf-13_2_I-1-1.edg.xml"/>
        <connection-files value="./converted_scenarios/scenario-factory/DEU_Hennigsdorf-13_2_I-1-1/DEU_Hennigsdorf-13_2_I-1-1.con.xml"/>
        <tllogic-files value="./converted_scenarios/scenario-factory/DEU_Hennigsdorf-13_2_I-1-1/DEU_Hennigsdorf-13_2_I-1-1.tll.xml"/>
        <type-files value="/home/zen/commonroad-interactive-benchmarks/install/commonroad-map-tool/crmapconverter/sumo_map/templates/DEU.typ.xml"/>
    </input>

    <output>
        <output-file value="./converted_scenarios/scenario-factory/DEU_Hennigsdorf-13_2_I-1-1/DEU_Hennigsdorf-13_2_I-1-1.net.xml"/>
    </output>

    <processing>
        <geometry.remove.keep-edges.explicit value="true"/>
        <geometry.avoid-overlap value="true"/>
        <offset.disable-normalization value="true"/>
    </processing>

    <junctions>
        <no-turnarounds value="true"/>
        <junctions.internal-link-detail value="20"/>
    </junctions>

    <report>
        <aggregate-warnings value="5"/>
    </report>

    <random_number>
        <seed value="1234"/>
    </random_number>

</configuration>
--><net xmlns:xsi="http://www.w3.org/2001/XMLSchema-instance" version="1.6" junctionCornerDetail="5" junctionLinkDetail="20" limitTurnSpeed="5.50" xsi:noNamespaceSchemaLocation="http://sumo.dlr.de/xsd/net_file.xsd">

    <location netOffset="0.00,0.00" convBoundary="196.10,512.70,293.93,643.61" origBoundary="196.10,512.57,294.82,643.61" projParameter="!"/>

    <type id="highway.bridleway" priority="1" speed="2.78" allow="pedestrian" oneway="1" width="2.00"/>
    <type id="highway.bus_guideway" priority="1" speed="27.78" allow="bus" oneway="1"/>
    <type id="highway.cycleway" priority="1" speed="8.33" allow="bicycle" oneway="0" width="1.00"/>
    <type id="highway.footway" priority="1" speed="2.78" allow="pedestrian" oneway="1" width="2.00"/>
    <type id="highway.ford" priority="1" speed="2.78" allow="army" oneway="0"/>
    <type id="highway.living_street" priority="2" speed="2.78" disallow="tram rail_urban rail rail_electric rail_fast ship" oneway="0"/>
    <type id="highway.motorway" priority="14" speed="39.44" allow="private emergency authority army vip passenger hov taxi bus coach delivery truck trailer motorcycle evehicle custom1 custom2" oneway="1"/>
    <type id="highway.motorway_link" priority="9" speed="22.22" allow="private emergency authority army vip passenger hov taxi bus coach delivery truck trailer motorcycle evehicle custom1 custom2" oneway="1"/>
    <type id="highway.path" priority="1" speed="2.78" allow="pedestrian bicycle" oneway="0" width="2.00"/>
    <type id="highway.pedestrian" priority="1" speed="2.78" allow="pedestrian" oneway="1" width="2.00"/>
    <type id="highway.primary" priority="12" speed="27.78" disallow="pedestrian tram rail_urban rail rail_electric rail_fast ship" oneway="0"/>
    <type id="highway.primary_link" priority="7" speed="22.22" disallow="pedestrian tram rail_urban rail rail_electric rail_fast ship" oneway="0"/>
    <type id="highway.raceway" priority="15" speed="83.33" allow="vip" oneway="0"/>
    <type id="highway.residential" priority="3" speed="13.89" disallow="pedestrian tram rail_urban rail rail_electric rail_fast ship" oneway="0"/>
    <type id="highway.secondary" priority="11" speed="27.78" disallow="pedestrian tram rail_urban rail rail_electric rail_fast ship" oneway="0"/>
    <type id="highway.secondary_link" priority="6" speed="22.22" disallow="pedestrian tram rail_urban rail rail_electric rail_fast ship" oneway="0"/>
    <type id="highway.service" priority="1" speed="5.56" allow="pedestrian delivery bicycle" oneway="0"/>
    <type id="highway.stairs" priority="1" speed="1.39" allow="pedestrian" oneway="1" width="2.00"/>
    <type id="highway.step" priority="1" speed="1.39" allow="pedestrian" oneway="1" width="2.00"/>
    <type id="highway.steps" priority="1" speed="1.39" allow="pedestrian" oneway="1" width="2.00"/>
    <type id="highway.tertiary" priority="10" speed="22.22" disallow="pedestrian tram rail_urban rail rail_electric rail_fast ship" oneway="0"/>
    <type id="highway.tertiary_link" priority="5" speed="22.22" disallow="pedestrian tram rail_urban rail rail_electric rail_fast ship" oneway="0"/>
    <type id="highway.track" priority="1" speed="5.56" allow="pedestrian motorcycle moped bicycle" oneway="0"/>
    <type id="highway.trunk" priority="13" speed="27.78" disallow="pedestrian bicycle tram rail_urban rail rail_electric rail_fast ship" oneway="0"/>
    <type id="highway.trunk_link" priority="8" speed="22.22" disallow="pedestrian bicycle tram rail_urban rail rail_electric rail_fast ship" oneway="0"/>
    <type id="highway.unclassified" priority="4" speed="13.89" disallow="pedestrian tram rail_urban rail rail_electric rail_fast ship" oneway="0"/>
    <type id="highway.unsurfaced" priority="1" speed="8.33" disallow="tram rail_urban rail rail_electric rail_fast ship" oneway="0"/>
    <type id="railway.highspeed" priority="21" speed="69.44" allow="rail_fast" oneway="1"/>
    <type id="railway.light_rail" priority="19" speed="27.78" allow="rail_urban" oneway="1"/>
    <type id="railway.preserved" priority="16" speed="27.78" allow="rail" oneway="1"/>
    <type id="railway.rail" priority="20" speed="44.44" allow="rail" oneway="1"/>
    <type id="railway.subway" priority="18" speed="27.78" allow="rail_urban" oneway="1"/>
    <type id="railway.tram" priority="17" speed="13.89" allow="tram" oneway="1"/>

    <edge id=":24_0" function="internal">
        <lane id=":24_0_0" index="0" disallow="pedestrian tram rail_urban rail rail_electric rail_fast ship" speed="10.40" length="33.50" width="3.50" shape="258.72,590.45 258.32,586.36 257.78,583.68 256.94,581.08 256.04,579.24 254.84,577.58 253.85,576.64 252.71,575.88 251.46,575.34 250.13,575.01 248.08,574.90 246.05,575.14 243.41,575.83 240.24,577.11 236.60,579.03"/>
    </edge>
    <edge id=":24_1" function="internal">
        <lane id=":24_1_0" index="0" disallow="pedestrian tram rail_urban rail rail_electric rail_fast ship" speed="36.11" length="58.49" width="3.50" shape="258.72,590.45 256.81,558.23 254.95,532.08"/>
    </edge>
    <edge id=":24_2" function="internal">
        <lane id=":24_2_0" index="0" disallow="pedestrian tram rail_urban rail rail_electric rail_fast ship" speed="31.52" length="52.84" width="3.50" shape="262.22,590.25 262.31,588.49 262.72,586.40 263.42,584.01 264.37,581.38 265.54,578.55 266.90,575.56 268.40,572.47 270.01,569.30 271.70,566.12 273.44,562.96 275.17,559.87 276.89,556.89 278.53,554.07 280.08,551.45 281.50,549.09 282.74,547.02 283.79,545.28 284.59,543.93 285.12,543.01"/>
    </edge>
    <edge id=":24_3" function="internal">
        <lane id=":24_3_0" index="0" disallow="pedestrian tram rail_urban rail rail_electric rail_fast ship" speed="18.89" length="53.16" width="3.50" shape="290.96,547.02 283.88,551.37 280.48,553.96 277.71,556.46 275.16,559.20 272.87,562.15 270.88,565.32 269.21,568.66 267.87,572.15 266.85,575.74 266.15,579.42 265.72,583.67 265.64,587.94 265.71,590.07"/>
    </edge>
    <edge id=":24_4" function="internal">
        <lane id=":24_4_0" index="0" disallow="pedestrian tram rail_urban rail rail_electric rail_fast ship" speed="36.11" length="63.08" width="3.50" shape="290.96,547.02 262.04,564.05 236.60,579.03"/>
    </edge>
    <edge id=":24_5" function="internal">
        <lane id=":24_5_0" index="0" disallow="pedestrian tram rail_urban rail rail_electric rail_fast ship" speed="12.56" length="49.06" width="3.50" shape="289.19,544.00 281.57,548.30 277.89,549.95 274.71,551.04 272.10,551.65 269.42,551.94 267.41,551.87 265.43,551.50 263.54,550.79 261.83,549.74 260.33,548.39 259.08,546.81 258.05,545.08 256.99,542.61 256.03,539.39 255.31,535.42 254.95,532.08"/>
    </edge>
    <edge id=":24_6" function="internal">
        <lane id=":24_6_0" index="0" disallow="pedestrian tram rail_urban rail rail_electric rail_fast ship" speed="36.11" length="4.06" width="3.50" shape="261.93,531.55 261.96,531.85 261.97,532.13 261.99,532.37 262.00,532.60 262.01,532.80 262.02,532.99 262.03,533.17 262.04,533.34 262.06,533.50 262.07,533.66 262.09,533.82 262.11,533.98 262.13,534.16 262.17,534.34 262.20,534.54 262.24,534.76 262.29,535.01 262.35,535.27 262.42,535.57"/>
    </edge>
    <edge id=":24_7" function="internal">
        <lane id=":24_7_0" index="0" disallow="pedestrian tram rail_urban rail rail_electric rail_fast ship" speed="36.11" length="58.64" width="3.50" shape="261.93,531.55 264.15,563.32 265.71,590.07"/>
    </edge>
    <edge id=":24_8" function="internal">
        <lane id=":24_8_0" index="0" disallow="pedestrian tram rail_urban rail rail_electric rail_fast ship" speed="18.93" length="55.20" width="3.50" shape="258.45,531.81 258.68,537.17 258.55,541.99 258.07,546.79 257.30,551.00 256.18,555.14 254.88,558.66 253.29,562.05 251.39,565.29 249.19,568.33 246.72,571.15 244.01,573.74 241.09,576.09 237.53,578.48 236.60,579.03"/>
    </edge>
    <edge id=":24_9" function="internal">
        <lane id=":24_9_0" index="0" disallow="pedestrian tram rail_urban rail rail_electric rail_fast ship" speed="17.90" length="49.24" width="3.50" shape="233.08,572.98 237.14,570.39 240.55,567.79 243.33,565.28 245.88,562.54 248.18,559.58 250.17,556.41 251.83,553.05 253.15,549.54 254.12,545.93 254.75,542.23 255.09,537.97 255.05,533.68 254.95,532.08"/>
    </edge>
    <edge id=":24_10" function="internal">
        <lane id=":24_10_0" index="0" disallow="pedestrian tram rail_urban rail rail_electric rail_fast ship" speed="36.11" length="48.89" width="3.50" shape="233.08,572.98 275.21,548.17"/>
    </edge>
    <edge id=":24_11" function="internal">
        <lane id=":24_11_0" index="0" disallow="pedestrian tram rail_urban rail rail_electric rail_fast ship" speed="12.06" length="45.58" width="3.50" shape="234.84,576.00 239.04,573.74 242.76,572.07 245.98,570.95 248.62,570.31 251.33,570.00 253.37,570.04 255.38,570.38 257.30,571.07 259.04,572.12 260.56,573.48 261.82,575.09 262.84,576.85 263.88,579.37 264.78,582.65 265.35,586.00 265.71,590.07"/>
    </edge>
    <edge id=":26_0" function="internal">
        <lane id=":26_0_0" index="0" disallow="pedestrian tram rail_urban rail rail_electric rail_fast ship" speed="36.11" length="3.08" width="3.50" shape="260.12,616.23 259.94,613.16"/>
    </edge>
    <edge id=":26_1" function="internal">
        <lane id=":26_1_0" index="0" disallow="pedestrian tram rail_urban rail rail_electric rail_fast ship" speed="36.11" length="3.14" width="3.50" shape="263.57,616.11 263.43,612.97"/>
    </edge>
    <edge id=":28_0" function="internal">
        <lane id=":28_0_0" index="0" disallow="pedestrian tram rail_urban rail rail_electric rail_fast ship" speed="36.11" length="3.28" width="3.50" shape="220.75,584.13 223.61,582.53"/>
    </edge>
    <edge id=":28_1" function="internal">
        <lane id=":28_1_0" index="0" disallow="pedestrian tram rail_urban rail rail_electric rail_fast ship" speed="36.11" length="3.15" width="3.50" shape="219.14,581.14 221.84,579.51"/>
    </edge>
    <edge id=":3_0" function="internal">
        <lane id=":3_0_0" index="0" disallow="pedestrian tram rail_urban rail rail_electric rail_fast ship" speed="36.11" length="2.95" width="3.50" shape="225.32,585.58 222.75,587.02"/>
    </edge>
    <edge id=":7_0" function="internal">
        <lane id=":7_0_0" index="0" disallow="pedestrian tram rail_urban rail rail_electric rail_fast ship" speed="36.11" length="2.98" width="3.50" shape="266.93,612.82 267.06,615.80"/>
    </edge>

    <edge id="1753" from="24" to="3" priority="3" type="highway.residential" spreadType="center" length="13.04" shape="257.67,565.52 224.05,586.33">
        <lane id="1753_0" index="0" disallow="pedestrian tram rail_urban rail rail_electric rail_fast ship" speed="36.11" length="13.04" width="3.50" customShape="1" shape="236.60,579.03 230.33,582.68 225.32,585.58"/>
    </edge>
    <edge id="1755" from="28" to="24" priority="3" type="highway.residential" spreadType="center" length="13.00" shape="221.42,581.78 255.11,560.95">
        <lane id="1755_0" index="0" disallow="pedestrian tram rail_urban rail rail_electric rail_fast ship" speed="36.11" length="13.00" width="3.50" customShape="1" shape="221.84,579.51 226.81,576.62 233.08,572.98"/>
        <lane id="1755_1" index="1" disallow="pedestrian tram rail_urban rail rail_electric rail_fast ship" speed="36.11" length="13.01" width="3.50" customShape="1" shape="223.61,582.53 228.57,579.65 234.86,575.99"/>
    </edge>
    <edge id="1781" from="20" to="24" priority="3" type="highway.residential" spreadType="center" length="4.46" shape="293.93,543.25 258.39,567.13">
        <lane id="1781_0" index="0" disallow="pedestrian tram rail_urban rail rail_electric rail_fast ship" speed="36.11" length="4.48" width="3.50" customShape="1" shape="294.82,544.75 290.96,547.02"/>
        <lane id="1781_1" index="1" disallow="pedestrian tram rail_urban rail rail_electric rail_fast ship" speed="36.11" length="4.46" width="3.50" customShape="1" shape="293.04,541.74 289.19,544.00"/>
    </edge>
    <edge id="2047" from="24" to="7" priority="3" type="highway.residential" spreadType="center" length="22.78" shape="258.40,563.72 267.01,614.31">
        <lane id="2047_0" index="0" disallow="pedestrian tram rail_urban rail rail_electric rail_fast ship" speed="36.11" length="22.78" width="3.50" customShape="1" shape="265.71,590.07 266.36,602.18 266.93,612.82"/>
    </edge>
    <edge id="2049" from="26" to="24" priority="3" type="highway.residential" spreadType="center" length="22.74" shape="261.76,614.57 253.20,564.42">
        <lane id="2049_0" index="0" disallow="pedestrian tram rail_urban rail rail_electric rail_fast ship" speed="36.11" length="22.74" width="3.50" acceleration="1" customShape="1" shape="259.94,613.16 259.37,602.56 258.72,590.45"/>
        <lane id="2049_1" index="1" disallow="pedestrian tram rail_urban rail rail_electric rail_fast ship" speed="36.11" length="22.75" width="3.50" customShape="1" shape="263.43,612.97 262.86,602.37 262.22,590.25"/>
    </edge>
    <edge id="2476" from="19" to="24" priority="3" type="highway.residential" spreadType="center" length="19.04" shape="258.75,512.70 260.18,564.21">
        <lane id="2476_0" index="0" disallow="pedestrian tram rail_urban rail rail_electric rail_fast ship" speed="36.11" length="19.04" width="3.50" customShape="1" shape="260.49,512.56 261.21,522.06 261.93,531.55"/>
        <lane id="2476_1" index="1" disallow="pedestrian tram rail_urban rail rail_electric rail_fast ship" speed="36.11" length="19.06" width="3.50" customShape="1" shape="257.00,512.82 257.72,522.32 258.45,531.82"/>
    </edge>
    <edge id="2478" from="24" to="10" priority="3" type="highway.residential" spreadType="center" length="19.07" shape="254.93,564.18 253.51,513.06">
        <lane id="2478_0" index="0" disallow="pedestrian tram rail_urban rail rail_electric rail_fast ship" speed="36.11" length="19.07" width="3.50" customShape="1" shape="254.95,532.08 254.23,522.59 253.51,513.06"/>
    </edge>
    <edge id="3554" from="7" to="14" priority="3" type="highway.residential" spreadType="center" length="27.46">
        <lane id="3554_0" index="0" disallow="pedestrian tram rail_urban rail rail_electric rail_fast ship" speed="36.11" length="27.46" width="3.50" customShape="1" shape="267.06,615.80 267.15,618.51 267.07,630.97 267.20,638.15 267.59,643.24"/>
    </edge>
    <edge id="3555" from="24" to="25" priority="3" type="highway.residential" spreadType="center" length="0.20" shape="255.61,562.69 283.93,543.03">
        <lane id="3555_0" index="0" disallow="pedestrian tram rail_urban rail rail_electric rail_fast ship" speed="36.11" length="0.20" width="3.50" customShape="1" shape="285.12,543.01 285.22,542.84"/>
    </edge>
    <edge id="3808" from="3" to="11" priority="3" type="highway.residential" spreadType="center" length="27.87">
        <lane id="3808_0" index="0" disallow="pedestrian tram rail_urban rail rail_electric rail_fast ship" speed="36.11" length="27.87" width="3.50" customShape="1" shape="222.75,587.02 218.51,589.31 203.37,596.53 197.84,599.51"/>
    </edge>
    <edge id="3810" from="24" to="25" priority="3" type="highway.residential" spreadType="center" length="10.12">
        <lane id="3810_0" index="0" disallow="pedestrian tram rail_urban rail rail_electric rail_fast ship" speed="36.11" length="10.12" width="3.50" customShape="1" shape="275.21,548.17 283.93,543.03"/>
    </edge>
    <edge id="3983" from="29" to="28" priority="3" type="highway.residential" spreadType="center" length="27.58">
        <lane id="3983_0" index="0" disallow="pedestrian tram rail_urban rail rail_electric rail_fast ship" speed="36.11" length="27.58" width="3.50" customShape="1" shape="196.10,596.48 201.70,593.46 216.84,586.24 220.75,584.13"/>
    </edge>
    <edge id="3984" from="29" to="28" priority="3" type="highway.residential" spreadType="center" length="27.69">
        <lane id="3984_0" index="0" disallow="pedestrian tram rail_urban rail rail_electric rail_fast ship" speed="36.11" length="27.69" width="3.50" customShape="1" shape="196.10,596.48 201.24,593.28 215.80,583.20 219.14,581.14"/>
    </edge>
    <edge id="4271" from="27" to="26" priority="3" type="highway.residential" spreadType="center" length="27.68">
        <lane id="4271_0" index="0" disallow="pedestrian tram rail_urban rail rail_electric rail_fast ship" speed="36.11" length="27.68" width="3.50" customShape="1" shape="264.11,643.61 263.12,636.49 260.83,622.83 260.15,616.71 260.12,616.23"/>
    </edge>
    <edge id="4272" from="27" to="26" priority="3" type="highway.residential" spreadType="center" length="27.52">
        <lane id="4272_0" index="0" disallow="pedestrian tram rail_urban rail rail_electric rail_fast ship" speed="36.11" length="27.52" width="3.50" customShape="1" shape="264.11,643.61 263.71,638.41 263.58,631.13 263.65,618.64 263.57,616.11"/>
    </edge>
    <edge id="4328" from="24" to="25" priority="3" type="highway.residential" spreadType="center" length="29.05">
        <lane id="4328_0" index="0" disallow="pedestrian tram rail_urban rail rail_electric rail_fast ship" speed="36.11" length="29.05" width="3.50" customShape="1" shape="262.42,535.57 263.19,538.87 264.14,541.40 265.13,543.16 266.42,544.72 267.46,545.59 268.63,546.26 269.90,546.73 271.22,546.98 273.25,547.01 275.25,546.72 277.85,545.97 280.96,544.64 283.93,543.03"/>
    </edge>

    <junction id="10" type="dead_end" x="253.51" y="513.06" incLanes="2478_0" intLanes="" shape="251.77,513.20 255.26,512.93" rightOfWay="edgePriority"/>
    <junction id="11" type="dead_end" x="197.84" y="599.51" incLanes="3808_0" intLanes="" shape="198.67,601.05 197.01,597.97" rightOfWay="edgePriority"/>
    <junction id="14" type="dead_end" x="267.59" y="643.24" incLanes="3554_0" intLanes="" shape="269.33,643.11 265.85,643.38" rightOfWay="edgePriority"/>
    <junction id="19" type="dead_end" x="258.75" y="512.70" incLanes="" intLanes="" shape="255.26,512.96 262.24,512.43" rightOfWay="edgePriority"/>
    <junction id="20" type="dead_end" x="293.93" y="543.25" incLanes="" intLanes="" shape="292.15,540.23 295.70,546.26" rightOfWay="edgePriority"/>
    <junction id="24" type="priority" x="256.68" y="564.07" incLanes="2049_0 2049_1 1781_0 1781_1 2476_0 2476_1 1755_0 1755_1" intLanes=":24_0_0 :24_1_0 :24_2_0 :24_3_0 :24_4_0 :24_5_0 :24_6_0 :24_7_0 :24_8_0 :24_9_0 :24_10_0 :24_11_0" shape="256.98,590.54 267.46,589.98 267.75,581.53 269.55,573.70 272.86,566.48 277.68,559.88 284.01,553.89 291.85,548.53 288.30,542.50 288.21,542.35 283.31,541.35 276.10,549.68 274.32,546.66 260.68,535.78 264.17,535.36 263.86,533.86 263.80,533.36 263.77,532.86 263.73,532.24 263.68,531.41 253.21,532.21 253.17,540.50 251.75,548.08 248.94,554.97 244.75,561.17 239.17,566.67 232.20,571.46 237.48,580.54 242.53,578.31 247.07,577.71 250.93,578.69 253.97,581.19 256.04,585.16">
        <request index="0" response="000000010000" foes="000100010000" cont="0"/>
        <request index="1" response="111000110000" foes="111100110000" cont="0"/>
        <request index="2" response="100010110000" foes="100010110000" cont="0"/>
        <request index="3" response="000000000000" foes="100010000000" cont="0"/>
        <request index="4" response="000000000000" foes="100110000111" cont="0"/>
        <request index="5" response="011000000000" foes="011110000110" cont="0"/>
        <request index="6" response="000000000000" foes="000000000000" cont="0"/>
        <request index="7" response="110000111000" foes="110000111100" cont="0"/>
        <request index="8" response="110000110011" foes="110000110011" cont="0"/>
        <request index="9" response="000000000000" foes="000000100010" cont="0"/>
        <request index="10" response="000000000000" foes="000110100010" cont="0"/>
        <request index="11" response="000000011000" foes="000110011110" cont="0"/>
    </junction>
    <junction id="25" type="dead_end" x="283.93" y="543.03" incLanes="3555_0 3810_0 4328_0" intLanes="" shape="282.98,541.57 284.89,544.50 283.05,541.53 284.82,544.54 283.10,541.49 284.77,544.57"/>
    <junction id="26" type="priority" x="261.76" y="614.57" incLanes="4271_0 4272_0" intLanes=":26_0_0 :26_1_0" shape="258.37,616.29 265.32,616.05 265.18,612.88 258.19,613.25">
        <request index="0" response="00" foes="00" cont="0"/>
        <request index="1" response="00" foes="00" cont="0"/>
    </junction>
    <junction id="27" type="dead_end" x="264.11" y="643.61" incLanes="" intLanes="" shape="265.84,643.36 262.38,643.85 265.85,643.47 262.36,643.74"/>
    <junction id="28" type="priority" x="221.42" y="581.78" incLanes="3983_0 3984_0" intLanes=":28_0_0 :28_1_0" shape="224.49,584.04 220.96,578.00 218.30,579.59 221.58,585.67">
        <request index="0" response="00" foes="00" cont="0"/>
        <request index="1" response="00" foes="00" cont="0"/>
    </junction>
    <junction id="29" type="dead_end" x="196.10" y="596.48" incLanes="" intLanes="" shape="196.93,598.02 195.27,594.94 197.02,597.96 195.17,594.99"/>
    <junction id="3" type="priority" x="224.05" y="586.33" incLanes="1753_0" intLanes=":3_0_0" shape="226.20,587.10 224.44,584.07 221.92,585.48 223.58,588.57" rightOfWay="edgePriority">
        <request index="0" response="0" foes="0" cont="0"/>
    </junction>
    <junction id="7" type="priority" x="267.01" y="614.31" incLanes="2047_0" intLanes=":7_0_0" shape="265.31,615.86 268.81,615.74 268.67,612.73 265.18,612.92" rightOfWay="edgePriority">
        <request index="0" response="0" foes="0" cont="0"/>
    </junction>

    <connection from="1753" to="3808" fromLane="0" toLane="0" contPos="-4.00" via=":3_0_0" dir="s" state="M"/>
    <connection from="1755" to="2478" fromLane="0" toLane="0" contPos="-4.00" shape="233.08,572.98 237.14,570.39 240.55,567.79 243.33,565.28 245.88,562.54 248.18,559.58 250.17,556.41 251.83,553.05 253.15,549.54 254.12,545.93 254.75,542.23 255.09,537.97 255.05,533.68 254.95,532.08" via=":24_9_0" dir="r" state="M"/>
    <connection from="1755" to="3810" fromLane="0" toLane="0" contPos="-4.00" via=":24_10_0" dir="s" state="M"/>
    <connection from="1755" to="2047" fromLane="1" toLane="0" contPos="-4.00" shape="234.86,575.99 239.04,573.74 242.76,572.07 245.98,570.95 248.62,570.31 251.33,570.00 253.37,570.04 255.38,570.38 257.30,571.07 259.04,572.12 260.56,573.48 261.82,575.09 262.84,576.85 263.88,579.37 264.78,582.65 265.35,586.00 265.71,590.07" via=":24_11_0" dir="l" state="m"/>
    <connection from="1781" to="2047" fromLane="0" toLane="0" contPos="-4.00" shape="287.48,549.07 283.88,551.37 280.48,553.96 277.71,556.46 275.16,559.20 272.87,562.15 270.88,565.32 269.21,568.66 267.87,572.15 266.85,575.74 266.15,579.42 265.72,583.67 265.64,587.94 265.71,590.07" via=":24_3_0" dir="r" state="M"/>
    <connection from="1781" to="1753" fromLane="0" toLane="0" contPos="-4.00" shape="287.48,549.07 262.04,564.05 236.60,579.03" via=":24_4_0" dir="s" state="M"/>
    <connection from="1781" to="2478" fromLane="1" toLane="0" contPos="-4.00" shape="285.70,546.06 281.57,548.30 277.89,549.95 274.71,551.04 272.10,551.65 269.42,551.94 267.41,551.87 265.43,551.50 263.54,550.79 261.83,549.74 260.33,548.39 259.08,546.81 258.05,545.08 256.99,542.61 256.03,539.39 255.31,535.42 254.95,532.08" via=":24_5_0" dir="l" state="m"/>
    <connection from="2047" to="3554" fromLane="0" toLane="0" contPos="-4.00" via=":7_0_0" dir="s" state="M"/>
    <connection from="2049" to="1753" fromLane="0" toLane="0" contPos="-4.00" shape="258.72,590.45 258.32,586.36 257.78,583.68 256.94,581.08 256.04,579.24 254.84,577.58 253.85,576.64 252.71,575.88 251.46,575.34 250.13,575.01 248.08,574.90 246.05,575.14 243.41,575.83 240.24,577.11 236.60,579.03" via=":24_0_0" dir="r" state="m"/>
    <connection from="2049" to="2478" fromLane="0" toLane="0" contPos="-4.00" shape="258.72,590.45 256.81,558.23 254.95,532.08" via=":24_1_0" dir="s" state="m"/>
    <connection from="2049" to="3555" fromLane="1" toLane="0" contPos="-4.00" via=":24_2_0" dir="l" state="m"/>
    <connection from="2476" to="4328" fromLane="0" toLane="0" contPos="-4.00" via=":24_6_0" dir="r" state="M"/>
    <connection from="2476" to="2047" fromLane="0" toLane="0" contPos="-4.00" shape="261.93,531.55 264.15,563.32 265.71,590.07" via=":24_7_0" dir="s" state="m"/>
    <connection from="2476" to="1753" fromLane="1" toLane="0" contPos="-4.00" shape="258.45,531.82 258.68,537.17 258.55,541.99 258.07,546.79 257.30,551.00 256.18,555.14 254.88,558.66 253.29,562.05 251.39,565.29 249.19,568.33 246.72,571.15 244.01,573.74 241.09,576.09 237.53,578.48 236.60,579.03" via=":24_8_0" dir="l" state="m"/>
    <connection from="3983" to="1755" fromLane="0" toLane="1" contPos="-4.00" via=":28_0_0" dir="s" state="M"/>
    <connection from="3984" to="1755" fromLane="0" toLane="0" contPos="-4.00" via=":28_1_0" dir="s" state="M"/>
    <connection from="4271" to="2049" fromLane="0" toLane="0" contPos="-4.00" via=":26_0_0" dir="s" state="M"/>
    <connection from="4272" to="2049" fromLane="0" toLane="1" contPos="-4.00" via=":26_1_0" dir="s" state="M"/>

    <connection from=":24_0" to="1753" fromLane="0" toLane="0" dir="r" state="M"/>
    <connection from=":24_1" to="2478" fromLane="0" toLane="0" dir="s" state="M"/>
    <connection from=":24_2" to="3555" fromLane="0" toLane="0" dir="l" state="M"/>
    <connection from=":24_3" to="2047" fromLane="0" toLane="0" dir="r" state="M"/>
    <connection from=":24_4" to="1753" fromLane="0" toLane="0" dir="s" state="M"/>
    <connection from=":24_5" to="2478" fromLane="0" toLane="0" dir="l" state="M"/>
    <connection from=":24_6" to="4328" fromLane="0" toLane="0" dir="r" state="M"/>
    <connection from=":24_7" to="2047" fromLane="0" toLane="0" dir="s" state="M"/>
    <connection from=":24_8" to="1753" fromLane="0" toLane="0" dir="l" state="M"/>
    <connection from=":24_9" to="2478" fromLane="0" toLane="0" dir="r" state="M"/>
    <connection from=":24_10" to="3810" fromLane="0" toLane="0" dir="s" state="M"/>
    <connection from=":24_11" to="2047" fromLane="0" toLane="0" dir="l" state="M"/>
    <connection from=":26_0" to="2049" fromLane="0" toLane="0" dir="s" state="M"/>
    <connection from=":26_1" to="2049" fromLane="0" toLane="1" dir="s" state="M"/>
    <connection from=":28_0" to="1755" fromLane="0" toLane="1" dir="s" state="M"/>
    <connection from=":28_1" to="1755" fromLane="0" toLane="0" dir="s" state="M"/>
    <connection from=":3_0" to="3808" fromLane="0" toLane="0" dir="s" state="M"/>
    <connection from=":7_0" to="3554" fromLane="0" toLane="0" dir="s" state="M"/>

</net>