<routes>
	<vehicle depart="0.1" departLane="0" departPos="8.482359609445606" departSpeed="0.57836015" id="31" type="passenger">
		<route edges="1781 1753"/>
	</vehicle>
	<vehicle depart="0.1" departLane="0" departPos="41.08207915847253" departSpeed="0.0" id="36" type="passenger">
		<route edges="3555"/>
	</vehicle>
	<vehicle depart="0.1" departLane="0" departPos="17.936211367471394" departSpeed="1.0555202" id="37" type="passenger">
		<route edges=":24_4 1753"/>
	</vehicle>
	<vehicle depart="0.1" departLane="0" departPos="8.841419325912565" departSpeed="0.48143342" id="38" type="passenger">
		<route edges=":24_4 1753"/>
	</vehicle>
	<vehicle depart="0.1" departLane="0" departPos="28.863903134912047" departSpeed="0.43752082" id="318" type="passenger">
		<route edges=":24_5 2478"/>
	</vehicle>
	<vehicle depart="0.1" departLane="1" departPos="17.03115721350582" departSpeed="0.24340539" id="323" type="passenger">
		<route edges="2476 1753"/>
	</vehicle>
	<vehicle depart="0.1" departLane="1" departPos="6.9117300251340605" departSpeed="0.068271073" id="334" type="passenger">
		<route edges="2476 1753"/>
	</vehicle>
	<vehicle depart="0.1" departLane="0" departPos="12.202757706748224" departSpeed="11.690457" id="338" type="passenger">
		<route edges=":24_1 2478"/>
	</vehicle>
	<vehicle depart="0.1" departLane="0" departPos="9.952503194966035" departSpeed="8.7508039" id="344" type="passenger">
		<route edges="2049 1753"/>
	</vehicle>
	<vehicle depart="0.1" departLane="1" departPos="1.25" departSpeed="0.75043622" id="320" type="motorcycle">
		<route edges="1781 2478"/>
	</vehicle>
</routes>
