<routes>
	<vehicle depart="0.1" departLane="0" departPos="22.5565692981625" departSpeed="10.99596" id="37" type="passenger">
		<route edges=":31_5 31162"/>
	</vehicle>
	<vehicle depart="0.1" departLane="0" departPos="60.22393124210344" departSpeed="0.0" id="39" type="passenger">
		<route edges="31201 31162"/>
	</vehicle>
	<vehicle depart="0.1" departLane="0" departPos="2.5" departSpeed="2.5726606" id="312" type="passenger">
		<route edges=":31_0 31204"/>
	</vehicle>
	<vehicle depart="0.1" departLane="0" departPos="52.94723016236753" departSpeed="1.0069577e-05" id="317" type="passenger">
		<route edges="31201 31162"/>
	</vehicle>
	<vehicle depart="0.1" departLane="0" departPos="55.66754940072316" departSpeed="4.4460741" id="324" type="passenger">
		<route edges="31163 31204"/>
	</vehicle>
	<vehicle depart="0.1" departLane="0" departPos="34.59204308727887" departSpeed="4.4101419" id="329" type="passenger">
		<route edges="31163 31204"/>
	</vehicle>
	<vehicle depart="0.1" departLane="0" departPos="27.55453351938052" departSpeed="4.5373609" id="337" type="passenger">
		<route edges="31163 31204"/>
	</vehicle>
	<vehicle depart="0.1" departLane="0" departPos="16.27102491543586" departSpeed="4.1385104" id="347" type="passenger">
		<route edges="31163 31204"/>
	</vehicle>
	<vehicle depart="0.1" departLane="0" departPos="7.011982057796234" departSpeed="2.6150145" id="350" type="passenger">
		<route edges="31163 31204"/>
	</vehicle>
	<vehicle depart="0.1" departLane="0" departPos="70.00072351670171" departSpeed="0.0" id="32" type="truck">
		<route edges="31201 31162"/>
	</vehicle>
</routes>
