<routes>
	<vehicle depart="0.1" departLane="0" departPos="2.5" departSpeed="2.7871268" id="312" type="passenger">
		<route edges=":19_2 96030"/>
	</vehicle>
	<vehicle depart="0.1" departLane="0" departPos="23.47609698056079" departSpeed="9.2910744" id="326" type="passenger">
		<route edges=":19_9 95357"/>
	</vehicle>
	<vehicle depart="0.1" departLane="0" departPos="31.967764382074872" departSpeed="14.515047" id="328" type="passenger">
		<route edges="95638 96062"/>
	</vehicle>
	<vehicle depart="0.1" departLane="0" departPos="7.880761218665921" departSpeed="10.144501" id="329" type="passenger">
		<route edges="95638 96030"/>
	</vehicle>
	<vehicle depart="0.1" departLane="0" departPos="16.319532181757396" departSpeed="0.2085807" id="318" type="truck">
		<route edges="96037 95636"/>
	</vehicle>
</routes>
