<!-- generated on Tue Feb  9 22:22:23 2021 by Eclipse SUMO netconvert Version 1.8.0
<configuration xmlns:xsi="http://www.w3.org/2001/XMLSchema-instance" xsi:noNamespaceSchemaLocation="http://sumo.dlr.de/xsd/netconvertConfiguration.xsd">

    <input>
        <node-files value="./converted_scenarios/scenario-factory/FRA_Anglet-5_8_I-1-1/FRA_Anglet-5_8_I-1-1.nod.xml"/>
        <edge-files value="./converted_scenarios/scenario-factory/FRA_Anglet-5_8_I-1-1/FRA_Anglet-5_8_I-1-1.edg.xml"/>
        <connection-files value="./converted_scenarios/scenario-factory/FRA_Anglet-5_8_I-1-1/FRA_Anglet-5_8_I-1-1.con.xml"/>
        <tllogic-files value="./converted_scenarios/scenario-factory/FRA_Anglet-5_8_I-1-1/FRA_Anglet-5_8_I-1-1.tll.xml"/>
        <type-files value="/home/zen/commonroad-interactive-benchmarks/install/commonroad-map-tool/crmapconverter/sumo_map/templates/DEU.typ.xml"/>
    </input>

    <output>
        <output-file value="./converted_scenarios/scenario-factory/FRA_Anglet-5_8_I-1-1/FRA_Anglet-5_8_I-1-1.net.xml"/>
    </output>

    <processing>
        <geometry.remove.keep-edges.explicit value="true"/>
        <geometry.avoid-overlap value="true"/>
        <offset.disable-normalization value="true"/>
    </processing>

    <junctions>
        <no-turnarounds value="true"/>
        <junctions.internal-link-detail value="20"/>
    </junctions>

    <report>
        <aggregate-warnings value="5"/>
    </report>

    <random_number>
        <seed value="1234"/>
    </random_number>

</configuration>
--><net xmlns:xsi="http://www.w3.org/2001/XMLSchema-instance" version="1.6" junctionCornerDetail="5" junctionLinkDetail="20" limitTurnSpeed="5.50" xsi:noNamespaceSchemaLocation="http://sumo.dlr.de/xsd/net_file.xsd">

    <location netOffset="0.00,0.00" convBoundary="775.95,-686.49,880.79,-547.80" origBoundary="775.95,-686.49,880.79,-547.80" projParameter="!"/>

    <type id="highway.bridleway" priority="1" speed="2.78" allow="pedestrian" oneway="1" width="2.00"/>
    <type id="highway.bus_guideway" priority="1" speed="27.78" allow="bus" oneway="1"/>
    <type id="highway.cycleway" priority="1" speed="8.33" allow="bicycle" oneway="0" width="1.00"/>
    <type id="highway.footway" priority="1" speed="2.78" allow="pedestrian" oneway="1" width="2.00"/>
    <type id="highway.ford" priority="1" speed="2.78" allow="army" oneway="0"/>
    <type id="highway.living_street" priority="2" speed="2.78" disallow="tram rail_urban rail rail_electric rail_fast ship" oneway="0"/>
    <type id="highway.motorway" priority="14" speed="39.44" allow="private emergency authority army vip passenger hov taxi bus coach delivery truck trailer motorcycle evehicle custom1 custom2" oneway="1"/>
    <type id="highway.motorway_link" priority="9" speed="22.22" allow="private emergency authority army vip passenger hov taxi bus coach delivery truck trailer motorcycle evehicle custom1 custom2" oneway="1"/>
    <type id="highway.path" priority="1" speed="2.78" allow="pedestrian bicycle" oneway="0" width="2.00"/>
    <type id="highway.pedestrian" priority="1" speed="2.78" allow="pedestrian" oneway="1" width="2.00"/>
    <type id="highway.primary" priority="12" speed="27.78" disallow="pedestrian tram rail_urban rail rail_electric rail_fast ship" oneway="0"/>
    <type id="highway.primary_link" priority="7" speed="22.22" disallow="pedestrian tram rail_urban rail rail_electric rail_fast ship" oneway="0"/>
    <type id="highway.raceway" priority="15" speed="83.33" allow="vip" oneway="0"/>
    <type id="highway.residential" priority="3" speed="13.89" disallow="pedestrian tram rail_urban rail rail_electric rail_fast ship" oneway="0"/>
    <type id="highway.secondary" priority="11" speed="27.78" disallow="pedestrian tram rail_urban rail rail_electric rail_fast ship" oneway="0"/>
    <type id="highway.secondary_link" priority="6" speed="22.22" disallow="pedestrian tram rail_urban rail rail_electric rail_fast ship" oneway="0"/>
    <type id="highway.service" priority="1" speed="5.56" allow="pedestrian delivery bicycle" oneway="0"/>
    <type id="highway.stairs" priority="1" speed="1.39" allow="pedestrian" oneway="1" width="2.00"/>
    <type id="highway.step" priority="1" speed="1.39" allow="pedestrian" oneway="1" width="2.00"/>
    <type id="highway.steps" priority="1" speed="1.39" allow="pedestrian" oneway="1" width="2.00"/>
    <type id="highway.tertiary" priority="10" speed="22.22" disallow="pedestrian tram rail_urban rail rail_electric rail_fast ship" oneway="0"/>
    <type id="highway.tertiary_link" priority="5" speed="22.22" disallow="pedestrian tram rail_urban rail rail_electric rail_fast ship" oneway="0"/>
    <type id="highway.track" priority="1" speed="5.56" allow="pedestrian motorcycle moped bicycle" oneway="0"/>
    <type id="highway.trunk" priority="13" speed="27.78" disallow="pedestrian bicycle tram rail_urban rail rail_electric rail_fast ship" oneway="0"/>
    <type id="highway.trunk_link" priority="8" speed="22.22" disallow="pedestrian bicycle tram rail_urban rail rail_electric rail_fast ship" oneway="0"/>
    <type id="highway.unclassified" priority="4" speed="13.89" disallow="pedestrian tram rail_urban rail rail_electric rail_fast ship" oneway="0"/>
    <type id="highway.unsurfaced" priority="1" speed="8.33" disallow="tram rail_urban rail rail_electric rail_fast ship" oneway="0"/>
    <type id="railway.highspeed" priority="21" speed="69.44" allow="rail_fast" oneway="1"/>
    <type id="railway.light_rail" priority="19" speed="27.78" allow="rail_urban" oneway="1"/>
    <type id="railway.preserved" priority="16" speed="27.78" allow="rail" oneway="1"/>
    <type id="railway.rail" priority="20" speed="44.44" allow="rail" oneway="1"/>
    <type id="railway.subway" priority="18" speed="27.78" allow="rail_urban" oneway="1"/>
    <type id="railway.tram" priority="17" speed="13.89" allow="tram" oneway="1"/>

    <edge id=":12_0" function="internal">
        <lane id=":12_0_0" index="0" disallow="pedestrian tram rail_urban rail rail_electric rail_fast ship" speed="36.11" length="2.98" width="3.50" shape="877.29,-671.99 877.13,-669.01"/>
    </edge>
    <edge id=":19_0" function="internal">
        <lane id=":19_0_0" index="0" disallow="pedestrian tram rail_urban rail rail_electric rail_fast ship" speed="12.02" length="29.68" width="3.50" shape="879.34,-627.35 874.57,-627.36 873.76,-626.78 873.09,-626.04 872.53,-625.22 872.04,-624.35 871.19,-622.55 870.14,-619.75 869.25,-616.89 868.22,-613.04 867.11,-608.18 866.31,-604.28"/>
    </edge>
    <edge id=":19_1" function="internal">
        <lane id=":19_1_0" index="0" disallow="pedestrian tram rail_urban rail rail_electric rail_fast ship" speed="36.11" length="34.94" width="3.50" shape="879.34,-627.35 872.43,-627.61 869.32,-627.39 865.22,-626.75 860.17,-625.57 849.15,-622.58 845.09,-621.72"/>
    </edge>
    <edge id=":19_2" function="internal">
        <lane id=":19_2_0" index="0" disallow="pedestrian tram rail_urban rail rail_electric rail_fast ship" speed="7.93" length="15.21" width="3.50" shape="879.34,-627.35 874.08,-627.79 872.72,-628.33 871.54,-629.21 870.64,-630.37 870.00,-631.69 869.59,-633.11 869.34,-634.56 869.29,-635.67"/>
    </edge>
    <edge id=":19_3" function="internal">
        <lane id=":19_3_0" index="0" disallow="pedestrian tram rail_urban rail rail_electric rail_fast ship" speed="7.31" length="16.94" width="3.50" shape="873.48,-644.17 883.12,-630.24"/>
    </edge>
    <edge id=":19_4" function="internal">
        <lane id=":19_4_0" index="0" disallow="pedestrian tram rail_urban rail rail_electric rail_fast ship" speed="36.11" length="40.53" width="3.50" shape="873.48,-644.17 869.67,-622.70 866.31,-604.28"/>
    </edge>
    <edge id=":19_5" function="internal">
        <lane id=":19_5_0" index="0" disallow="pedestrian tram rail_urban rail rail_electric rail_fast ship" speed="15.09" length="38.73" width="3.50" shape="873.48,-644.17 872.94,-641.85 872.18,-639.59 871.19,-637.40 869.98,-635.33 868.56,-633.40 866.96,-631.62 865.19,-630.00 862.34,-627.93 859.29,-626.19 856.11,-624.76 852.86,-623.60 849.54,-622.67 845.09,-621.72"/>
    </edge>
    <edge id=":19_6" function="internal">
        <lane id=":19_6_0" index="0" disallow="pedestrian tram rail_urban rail rail_electric rail_fast ship" speed="12.20" length="25.04" width="3.50" shape="844.46,-625.16 848.56,-626.03 851.58,-626.87 854.54,-627.91 857.41,-629.17 860.15,-630.70 862.70,-632.52 864.26,-633.91 865.68,-635.44 866.28,-636.23"/>
    </edge>
    <edge id=":19_7" function="internal">
        <lane id=":19_7_0" index="0" disallow="pedestrian tram rail_urban rail rail_electric rail_fast ship" speed="36.11" length="29.16" width="3.49" shape="844.50,-625.17 873.17,-630.51"/>
    </edge>
    <edge id=":19_8" function="internal">
        <lane id=":19_8_0" index="0" disallow="pedestrian tram rail_urban rail rail_electric rail_fast ship" speed="11.51" length="38.85" width="3.50" shape="844.46,-625.16 848.92,-625.77 851.90,-625.92 854.89,-625.79 856.37,-625.59 857.83,-625.28 859.25,-624.83 860.63,-624.25 861.92,-623.50 863.10,-622.58 864.14,-621.51 865.01,-620.30 865.72,-618.98 866.25,-617.59 866.64,-616.15 866.90,-614.67 867.09,-611.69 866.96,-608.71 866.57,-605.74 866.31,-604.28"/>
    </edge>
    <edge id=":19_9" function="internal">
        <lane id=":19_9_0" index="0" disallow="pedestrian tram rail_urban rail rail_electric rail_fast ship" speed="10.44" length="31.74" width="3.50" shape="862.87,-604.94 863.10,-606.20 863.43,-608.77 863.55,-611.30 863.38,-613.80 863.18,-614.96 862.87,-616.09 862.45,-617.17 861.91,-618.16 861.26,-619.05 860.49,-619.84 859.60,-620.51 858.62,-621.07 857.56,-621.52 856.42,-621.87 855.24,-622.11 854.05,-622.27 851.51,-622.38 848.96,-622.25 845.09,-621.72"/>
    </edge>
    <edge id=":19_10" function="internal">
        <lane id=":19_10_0" index="0" disallow="pedestrian tram rail_urban rail rail_electric rail_fast ship" speed="36.11" length="31.39" width="3.50" shape="862.87,-604.94 866.23,-623.34 868.45,-635.83"/>
    </edge>
    <edge id=":19_11" function="internal">
        <lane id=":19_11_0" index="0" disallow="pedestrian tram rail_urban rail rail_electric rail_fast ship" speed="13.00" length="27.68" width="3.50" shape="862.88,-604.97 863.40,-607.49 863.91,-609.88 864.42,-612.15 864.93,-614.28 865.44,-616.28 865.94,-618.14 866.44,-619.88 866.94,-621.48 867.44,-622.95 867.93,-624.29 868.41,-625.49 868.90,-626.57 869.38,-627.51 869.86,-628.32 870.34,-629.00 870.81,-629.55 871.28,-629.97 871.74,-630.25 872.21,-630.40"/>
    </edge>

    <edge id="95357" from="19" to="3" priority="3" type="highway.residential" spreadType="center" length="70.01" shape="862.49,-622.91 776.52,-627.39">
        <lane id="95357_0" index="0" disallow="pedestrian tram rail_urban rail rail_electric rail_fast ship" speed="36.11" length="70.01" width="3.50" customShape="1" shape="845.09,-621.72 837.64,-620.46 828.16,-619.17 819.64,-618.38 815.11,-618.20 811.08,-618.36 807.59,-618.81 803.65,-619.68 779.90,-626.37 776.52,-627.39"/>
    </edge>
    <edge id="95358" from="10" to="19" priority="3" type="highway.residential" spreadType="center" length="70.04" shape="775.95,-631.21 862.67,-626.41">
        <lane id="95358_0" index="0" disallow="pedestrian tram rail_urban rail rail_electric rail_fast ship" speed="36.11" length="70.04" width="3.50" customShape="1" shape="775.95,-631.21 780.33,-629.89 803.95,-623.23 807.74,-622.34 811.06,-621.88 814.91,-621.69 819.30,-621.87 827.72,-622.64 837.10,-623.92 844.50,-625.17"/>
    </edge>
    <edge id="95417" from="9" to="19" priority="3" type="highway.residential" spreadType="center" length="1.45" shape="880.79,-627.26 862.79,-622.95">
        <lane id="95417_0" index="0" disallow="pedestrian tram rail_urban rail rail_electric rail_fast ship" speed="36.11" length="1.45" width="3.47" customShape="1" shape="880.79,-627.26 879.34,-627.35"/>
    </edge>
    <edge id="95636" from="12" to="19" priority="3" type="highway.residential" spreadType="center" length="25.12" shape="877.24,-670.50 864.21,-624.13">
        <lane id="95636_0" index="0" disallow="pedestrian tram rail_urban rail rail_electric rail_fast ship" speed="36.11" length="25.12" width="3.50" customShape="1" shape="877.13,-669.01 876.80,-664.80 875.80,-657.22 874.32,-648.61 873.90,-646.39 873.48,-644.17"/>
    </edge>
    <edge id="95638" from="11" to="19" priority="3" type="highway.residential" spreadType="center" length="57.62" shape="851.72,-548.44 860.81,-624.91">
        <lane id="95638_0" index="0" disallow="pedestrian tram rail_urban rail rail_electric rail_fast ship" speed="36.11" length="57.62" width="3.50" customShape="1" shape="851.72,-548.44 855.71,-569.28 862.88,-604.97"/>
    </edge>
    <edge id="95639" from="19" to="6" priority="3" type="highway.residential" spreadType="center" length="57.57" shape="864.28,-624.50 855.16,-547.80">
        <lane id="95639_0" index="0" disallow="pedestrian tram rail_urban rail rail_electric rail_fast ship" speed="36.11" length="57.57" width="3.50" customShape="1" shape="866.31,-604.28 859.15,-568.62 855.16,-547.80"/>
    </edge>
    <edge id="96004" from="19" to="20" priority="3" type="highway.residential" spreadType="center" length="0.19" shape="861.78,-626.23 875.69,-631.05">
        <lane id="96004_0" index="0" disallow="pedestrian tram rail_urban rail rail_electric rail_fast ship" speed="36.11" length="0.19" width="3.49" customShape="1" shape="873.17,-630.51 873.36,-630.55"/>
    </edge>
    <edge id="96030" from="19" to="18" priority="3" type="highway.residential" spreadType="center" length="50.17" shape="860.82,-624.95 872.56,-685.45">
        <lane id="96030_0" index="0" disallow="pedestrian tram rail_urban rail rail_electric rail_fast ship" speed="36.11" length="50.17" width="3.50" customShape="1" shape="868.36,-635.84 870.46,-647.04 870.88,-649.24 872.34,-657.71 873.31,-665.13 873.73,-670.44 873.74,-670.65 873.82,-672.82 873.80,-677.15 873.58,-680.33 873.10,-683.44 872.56,-685.45"/>
    </edge>
    <edge id="96037" from="13" to="12" priority="3" type="highway.residential" spreadType="center" length="14.63">
        <lane id="96037_0" index="0" disallow="pedestrian tram rail_urban rail rail_electric rail_fast ship" speed="36.11" length="14.63" width="3.50" customShape="1" shape="875.90,-686.49 876.50,-684.26 877.04,-680.85 877.29,-677.41 877.32,-672.80 877.29,-671.99"/>
    </edge>
    <edge id="96052" from="19" to="20" priority="3" type="highway.residential" spreadType="center" length="11.72">
        <lane id="96052_0" index="0" disallow="pedestrian tram rail_urban rail rail_electric rail_fast ship" speed="36.11" length="11.72" width="3.50" customShape="1" shape="883.12,-630.24 874.87,-638.57"/>
    </edge>
    <edge id="96062" from="19" to="20" priority="3" type="highway.residential" spreadType="center" length="0.19">
        <lane id="96062_0" index="0" disallow="pedestrian tram rail_urban rail rail_electric rail_fast ship" speed="36.11" length="0.19" width="3.50" customShape="1" shape="872.21,-630.40 872.40,-630.44"/>
    </edge>

    <junction id="10" type="dead_end" x="775.95" y="-631.21" incLanes="" intLanes="" shape="775.44,-629.53 776.45,-632.88" rightOfWay="edgePriority"/>
    <junction id="11" type="dead_end" x="851.72" y="-548.44" incLanes="" intLanes="" shape="853.44,-548.11 850.00,-548.77" rightOfWay="edgePriority"/>
    <junction id="12" type="priority" x="877.24" y="-670.50" incLanes="96037_0" intLanes=":12_0_0" shape="879.04,-671.93 875.54,-672.05 875.38,-669.09 878.88,-668.93" rightOfWay="edgePriority">
        <request index="0" response="0" foes="0" cont="0"/>
    </junction>
    <junction id="13" type="dead_end" x="875.90" y="-686.49" incLanes="" intLanes="" shape="874.21,-686.04 877.59,-686.94" rightOfWay="edgePriority"/>
    <junction id="18" type="dead_end" x="872.56" y="-685.45" incLanes="96030_0" intLanes="" shape="870.87,-685.00 874.25,-685.90" rightOfWay="edgePriority"/>
    <junction id="19" type="priority" x="862.54" y="-624.66" incLanes="95417_0 95636_0 95358_0 95638_0" intLanes=":19_0_0 :19_1_0 :19_2_0 :19_3_0 :19_4_0 :19_5_0 :19_6_0 :19_7_0 :19_8_0 :19_9_0 :19_10_0 :19_11_0" shape="879.24,-625.62 879.44,-629.08 884.37,-631.47 881.88,-629.01 875.20,-643.84 871.76,-644.49 870.30,-640.29 867.59,-636.59 863.62,-633.41 858.40,-630.73 851.93,-628.56 844.21,-626.89 845.38,-619.99 851.20,-620.49 855.75,-619.82 859.02,-617.96 861.01,-614.92 861.72,-610.71 861.16,-605.31 868.02,-603.93 876.50,-629.41 872.03,-631.72 869.35,-630.26 868.02,-629.22 868.04,-628.60 869.40,-628.40 872.11,-628.63 876.17,-629.29 875.55,-632.72 872.18,-632.53 871.08,-632.86 870.36,-633.46 870.03,-634.35 870.08,-635.52 866.64,-636.17 866.48,-633.17 867.23,-630.67 868.88,-628.67 871.43,-627.16 874.88,-626.14">
        <request index="0" response="110010010000" foes="110111010000" cont="0"/>
        <request index="1" response="001000110000" foes="001111110000" cont="0"/>
        <request index="2" response="110000100000" foes="110001100000" cont="0"/>
        <request index="3" response="000000000000" foes="000000000000" cont="0"/>
        <request index="4" response="000000000000" foes="110111000011" cont="0"/>
        <request index="5" response="001000000000" foes="001111000110" cont="0"/>
        <request index="6" response="010000110111" foes="010000110111" cont="0"/>
        <request index="7" response="010000110010" foes="010000110011" cont="0"/>
        <request index="8" response="110000110011" foes="110000110011" cont="0"/>
        <request index="9" response="000000000000" foes="000000100010" cont="0"/>
        <request index="10" response="000000010000" foes="000111010101" cont="0"/>
        <request index="11" response="000000010000" foes="000100010101" cont="0"/>
    </junction>
    <junction id="20" type="dead_end" x="875.69" y="-631.05" incLanes="96004_0 96062_0 96052_0" intLanes="" shape="870.35,-631.77 870.98,-628.39 874.47,-638.00 871.35,-633.46"/>
    <junction id="3" type="dead_end" x="776.52" y="-627.39" incLanes="95357_0" intLanes="" shape="776.02,-625.71 777.02,-629.06" rightOfWay="edgePriority"/>
    <junction id="6" type="dead_end" x="855.16" y="-547.80" incLanes="95639_0" intLanes="" shape="856.88,-547.47 853.44,-548.13" rightOfWay="edgePriority"/>
    <junction id="9" type="dead_end" x="880.79" y="-627.26" incLanes="" intLanes="" shape="880.89,-628.99 880.69,-625.53" rightOfWay="edgePriority"/>

    <connection from="95358" to="96030" fromLane="0" toLane="0" contPos="-4.00" shape="844.46,-625.16 848.56,-626.03 851.58,-626.87 854.54,-627.91 857.41,-629.17 860.15,-630.70 862.70,-632.52 864.26,-633.91 865.68,-635.44 866.94,-637.11 868.01,-638.90 868.89,-640.80 869.56,-642.78 870.05,-644.81" via=":19_6_0" dir="R" state="m"/>
    <connection from="95358" to="96004" fromLane="0" toLane="0" contPos="-4.00" via=":19_7_0" dir="s" state="m"/>
    <connection from="95358" to="95639" fromLane="0" toLane="0" contPos="-4.00" shape="844.46,-625.16 848.92,-625.77 851.90,-625.92 854.89,-625.79 856.37,-625.59 857.83,-625.28 859.25,-624.83 860.63,-624.25 861.92,-623.50 863.10,-622.58 864.14,-621.51 865.01,-620.30 865.72,-618.98 866.25,-617.59 866.64,-616.15 866.90,-614.67 867.09,-611.69 866.96,-608.71 866.57,-605.74 866.31,-604.28" via=":19_8_0" dir="l" state="m"/>
    <connection from="95417" to="95639" fromLane="0" toLane="0" contPos="-4.00" shape="875.53,-627.56 874.57,-627.36 873.76,-626.78 873.09,-626.04 872.53,-625.22 872.04,-624.35 871.19,-622.55 870.14,-619.75 869.25,-616.89 868.22,-613.04 867.11,-608.18 866.31,-604.28" via=":19_0_0" dir="R" state="m"/>
    <connection from="95417" to="95357" fromLane="0" toLane="0" contPos="-4.00" shape="875.53,-627.56 872.43,-627.61 869.32,-627.39 865.22,-626.75 860.17,-625.57 849.15,-622.58 845.09,-621.72" via=":19_1_0" dir="s" state="m"/>
    <connection from="95417" to="96030" fromLane="0" toLane="0" contPos="-4.00" shape="875.53,-627.56 874.08,-627.79 872.72,-628.33 871.54,-629.21 870.64,-630.37 870.00,-631.69 869.59,-633.11 869.34,-634.56 869.21,-637.50 869.40,-640.44 870.05,-644.81" via=":19_2_0" dir="l" state="m"/>
    <connection from="95636" to="96052" fromLane="0" toLane="0" contPos="-4.00" via=":19_3_0" dir="r" state="M"/>
    <connection from="95636" to="95639" fromLane="0" toLane="0" contPos="-4.00" shape="873.48,-644.17 869.67,-622.70 866.31,-604.28" via=":19_4_0" dir="s" state="M"/>
    <connection from="95636" to="95357" fromLane="0" toLane="0" contPos="-4.00" shape="873.48,-644.17 872.94,-641.85 872.18,-639.59 871.19,-637.40 869.98,-635.33 868.56,-633.40 866.96,-631.62 865.19,-630.00 862.34,-627.93 859.29,-626.19 856.11,-624.76 852.86,-623.60 849.54,-622.67 845.09,-621.72" via=":19_5_0" dir="l" state="m"/>
    <connection from="95638" to="95357" fromLane="0" toLane="0" contPos="-4.00" shape="862.87,-604.94 863.10,-606.20 863.43,-608.77 863.55,-611.30 863.38,-613.80 863.18,-614.96 862.87,-616.09 862.45,-617.17 861.91,-618.16 861.26,-619.05 860.49,-619.84 859.60,-620.51 858.62,-621.07 857.56,-621.52 856.42,-621.87 855.24,-622.11 854.05,-622.27 851.51,-622.38 848.96,-622.25 845.09,-621.72" via=":19_9_0" dir="r" state="M"/>
    <connection from="95638" to="96030" fromLane="0" toLane="0" contPos="-4.00" shape="862.87,-604.94 866.23,-623.34 870.05,-644.81" via=":19_10_0" dir="s" state="m"/>
    <connection from="95638" to="96062" fromLane="0" toLane="0" contPos="-4.00" via=":19_11_0" dir="l" state="m"/>
    <connection from="96037" to="95636" fromLane="0" toLane="0" contPos="-4.00" via=":12_0_0" dir="s" state="M"/>

    <connection from=":12_0" to="95636" fromLane="0" toLane="0" dir="s" state="M"/>
    <connection from=":19_0" to="95639" fromLane="0" toLane="0" dir="R" state="M"/>
    <connection from=":19_1" to="95357" fromLane="0" toLane="0" dir="s" state="M"/>
    <connection from=":19_2" to="96030" fromLane="0" toLane="0" dir="l" state="M"/>
    <connection from=":19_3" to="96052" fromLane="0" toLane="0" dir="r" state="M"/>
    <connection from=":19_4" to="95639" fromLane="0" toLane="0" dir="s" state="M"/>
    <connection from=":19_5" to="95357" fromLane="0" toLane="0" dir="l" state="M"/>
    <connection from=":19_6" to="96030" fromLane="0" toLane="0" dir="R" state="M"/>
    <connection from=":19_7" to="96004" fromLane="0" toLane="0" dir="s" state="M"/>
    <connection from=":19_8" to="95639" fromLane="0" toLane="0" dir="l" state="M"/>
    <connection from=":19_9" to="95357" fromLane="0" toLane="0" dir="r" state="M"/>
    <connection from=":19_10" to="96030" fromLane="0" toLane="0" dir="s" state="M"/>
    <connection from=":19_11" to="96062" fromLane="0" toLane="0" dir="l" state="M"/>

</net>