<routes>
	<vehicle depart="0.1" departLane="0" departPos="22.06750744211382" departSpeed="5.0228233" id="39" type="bicycle">
		<route edges="12569 12424 12862"/>
	</vehicle>
	<vehicle depart="0.1" departLane="0" departPos="14.121739272413766" departSpeed="14.849571" id="38" type="passenger">
		<route edges="12569 12424 12862"/>
	</vehicle>
	<vehicle depart="0.1" departLane="0" departPos="21.803116811009424" departSpeed="12.270896" id="312" type="passenger">
		<route edges="12424 12862"/>
	</vehicle>
</routes>
