<routes>
	<vehicle depart="0.1" departLane="0" departPos="59.395055330931456" departSpeed="4.8489569" id="39" type="bicycle">
		<route edges="77545 77499"/>
	</vehicle>
	<vehicle depart="0.1" departLane="0" departPos="1.0" departSpeed="5.0355869" id="376" type="bicycle">
		<route edges="77499 77119"/>
	</vehicle>
	<vehicle depart="0.1" departLane="0" departPos="54.83384100353433" departSpeed="1.9973469" id="318" type="passenger">
		<route edges="77545 77499"/>
	</vehicle>
	<vehicle depart="0.1" departLane="0" departPos="72.49782095180493" departSpeed="1.9937771" id="336" type="passenger">
		<route edges="77545 77499"/>
	</vehicle>
	<vehicle depart="0.1" departLane="0" departPos="25.47311715979617" departSpeed="8.9746695" id="378" type="passenger">
		<route edges=":55_4 77119 77116"/>
	</vehicle>
	<vehicle depart="0.1" departLane="0" departPos="18.722766729344077" departSpeed="11.327274" id="380" type="passenger">
		<route edges="77499 77119"/>
	</vehicle>
	<vehicle depart="0.1" departLane="0" departPos="7.0537838592485596" departSpeed="11.682018" id="382" type="passenger">
		<route edges="77499 77119"/>
	</vehicle>
	<vehicle depart="0.1" departLane="0" departPos="22.42554817753558" departSpeed="10.779334" id="384" type="passenger">
		<route edges="77502 77499"/>
	</vehicle>
	<vehicle depart="0.1" departLane="0" departPos="2.5" departSpeed="8.6864791" id="385" type="passenger">
		<route edges=":56_3 77499"/>
	</vehicle>
</routes>
