<routes>
	<vehicle depart="0.1" departLane="0" departPos="70.0235436022593" departSpeed="0.0" id="350" type="bus">
		<route edges="22888 23552"/>
	</vehicle>
	<vehicle depart="0.1" departLane="0" departPos="55.19464806507554" departSpeed="3.1058133" id="361" type="bus">
		<route edges="22776 23336"/>
	</vehicle>
	<vehicle depart="0.1" departLane="0" departPos="13.516351655616097" departSpeed="11.771542" id="329" type="passenger">
		<route edges=":46_3 22889"/>
	</vehicle>
	<vehicle depart="0.1" departLane="0" departPos="14.001644002434174" departSpeed="1.3837267" id="332" type="passenger">
		<route edges=":49_2 22777"/>
	</vehicle>
	<vehicle depart="0.1" departLane="0" departPos="18.038434193551097" departSpeed="9.1747122" id="346" type="passenger">
		<route edges=":49_0 23555 23552 23492"/>
	</vehicle>
	<vehicle depart="0.1" departLane="0" departPos="2.5" departSpeed="8.4170525" id="352" type="passenger">
		<route edges=":49_0 23555 22889"/>
	</vehicle>
	<vehicle depart="0.1" departLane="0" departPos="38.010313625414945" departSpeed="2.5015289" id="364" type="passenger">
		<route edges="22776 23336"/>
	</vehicle>
	<vehicle depart="0.1" departLane="0" departPos="28.755830241846013" departSpeed="1.8821193" id="368" type="passenger">
		<route edges="22776 23336"/>
	</vehicle>
	<vehicle depart="0.1" departLane="0" departPos="20.005560963389406" departSpeed="1.3047525" id="373" type="passenger">
		<route edges="22776 23336"/>
	</vehicle>
	<vehicle depart="0.1" departLane="0" departPos="11.663733309693285" departSpeed="0.82536816" id="378" type="passenger">
		<route edges="22776 23336"/>
	</vehicle>
</routes>
