<!-- generated on Wed Feb 10 12:27:50 2021 by Eclipse SUMO netconvert Version 1.8.0
<configuration xmlns:xsi="http://www.w3.org/2001/XMLSchema-instance" xsi:noNamespaceSchemaLocation="http://sumo.dlr.de/xsd/netconvertConfiguration.xsd">

    <input>
        <node-files value="./converted_scenarios/SUMO/DEU_Lohmar-16_1_I-1-1/DEU_Lohmar-16_1_I-1-1.nod.xml"/>
        <edge-files value="./converted_scenarios/SUMO/DEU_Lohmar-16_1_I-1-1/DEU_Lohmar-16_1_I-1-1.edg.xml"/>
        <connection-files value="./converted_scenarios/SUMO/DEU_Lohmar-16_1_I-1-1/DEU_Lohmar-16_1_I-1-1.con.xml"/>
        <tllogic-files value="./converted_scenarios/SUMO/DEU_Lohmar-16_1_I-1-1/DEU_Lohmar-16_1_I-1-1.tll.xml"/>
        <type-files value="/home/zen/commonroad-interactive-benchmarks/install/commonroad-map-tool/crmapconverter/sumo_map/templates/DEU.typ.xml"/>
    </input>

    <output>
        <output-file value="./converted_scenarios/SUMO/DEU_Lohmar-16_1_I-1-1/DEU_Lohmar-16_1_I-1-1.net.xml"/>
    </output>

    <processing>
        <geometry.remove.keep-edges.explicit value="true"/>
        <geometry.avoid-overlap value="true"/>
        <offset.disable-normalization value="true"/>
    </processing>

    <junctions>
        <no-turnarounds value="true"/>
        <junctions.internal-link-detail value="20"/>
    </junctions>

    <report>
        <aggregate-warnings value="5"/>
    </report>

    <random_number>
        <seed value="1234"/>
    </random_number>

</configuration>
--><net xmlns:xsi="http://www.w3.org/2001/XMLSchema-instance" version="1.6" junctionCornerDetail="5" junctionLinkDetail="20" limitTurnSpeed="5.50" xsi:noNamespaceSchemaLocation="http://sumo.dlr.de/xsd/net_file.xsd">

    <location netOffset="0.00,0.00" convBoundary="-175.58,16.09,-103.14,235.74" origBoundary="-175.58,16.09,-103.14,235.74" projParameter="!"/>

    <type id="highway.bridleway" priority="1" speed="2.78" allow="pedestrian" oneway="1" width="2.00"/>
    <type id="highway.bus_guideway" priority="1" speed="27.78" allow="bus" oneway="1"/>
    <type id="highway.cycleway" priority="1" speed="8.33" allow="bicycle" oneway="0" width="1.00"/>
    <type id="highway.footway" priority="1" speed="2.78" allow="pedestrian" oneway="1" width="2.00"/>
    <type id="highway.ford" priority="1" speed="2.78" allow="army" oneway="0"/>
    <type id="highway.living_street" priority="2" speed="2.78" disallow="tram rail_urban rail rail_electric rail_fast ship" oneway="0"/>
    <type id="highway.motorway" priority="14" speed="39.44" allow="private emergency authority army vip passenger hov taxi bus coach delivery truck trailer motorcycle evehicle custom1 custom2" oneway="1"/>
    <type id="highway.motorway_link" priority="9" speed="22.22" allow="private emergency authority army vip passenger hov taxi bus coach delivery truck trailer motorcycle evehicle custom1 custom2" oneway="1"/>
    <type id="highway.path" priority="1" speed="2.78" allow="pedestrian bicycle" oneway="0" width="2.00"/>
    <type id="highway.pedestrian" priority="1" speed="2.78" allow="pedestrian" oneway="1" width="2.00"/>
    <type id="highway.primary" priority="12" speed="27.78" disallow="pedestrian tram rail_urban rail rail_electric rail_fast ship" oneway="0"/>
    <type id="highway.primary_link" priority="7" speed="22.22" disallow="pedestrian tram rail_urban rail rail_electric rail_fast ship" oneway="0"/>
    <type id="highway.raceway" priority="15" speed="83.33" allow="vip" oneway="0"/>
    <type id="highway.residential" priority="3" speed="13.89" disallow="pedestrian tram rail_urban rail rail_electric rail_fast ship" oneway="0"/>
    <type id="highway.secondary" priority="11" speed="27.78" disallow="pedestrian tram rail_urban rail rail_electric rail_fast ship" oneway="0"/>
    <type id="highway.secondary_link" priority="6" speed="22.22" disallow="pedestrian tram rail_urban rail rail_electric rail_fast ship" oneway="0"/>
    <type id="highway.service" priority="1" speed="5.56" allow="pedestrian delivery bicycle" oneway="0"/>
    <type id="highway.stairs" priority="1" speed="1.39" allow="pedestrian" oneway="1" width="2.00"/>
    <type id="highway.step" priority="1" speed="1.39" allow="pedestrian" oneway="1" width="2.00"/>
    <type id="highway.steps" priority="1" speed="1.39" allow="pedestrian" oneway="1" width="2.00"/>
    <type id="highway.tertiary" priority="10" speed="22.22" disallow="pedestrian tram rail_urban rail rail_electric rail_fast ship" oneway="0"/>
    <type id="highway.tertiary_link" priority="5" speed="22.22" disallow="pedestrian tram rail_urban rail rail_electric rail_fast ship" oneway="0"/>
    <type id="highway.track" priority="1" speed="5.56" allow="pedestrian motorcycle moped bicycle" oneway="0"/>
    <type id="highway.trunk" priority="13" speed="27.78" disallow="pedestrian bicycle tram rail_urban rail rail_electric rail_fast ship" oneway="0"/>
    <type id="highway.trunk_link" priority="8" speed="22.22" disallow="pedestrian bicycle tram rail_urban rail rail_electric rail_fast ship" oneway="0"/>
    <type id="highway.unclassified" priority="4" speed="13.89" disallow="pedestrian tram rail_urban rail rail_electric rail_fast ship" oneway="0"/>
    <type id="highway.unsurfaced" priority="1" speed="8.33" disallow="tram rail_urban rail rail_electric rail_fast ship" oneway="0"/>
    <type id="railway.highspeed" priority="21" speed="69.44" allow="rail_fast" oneway="1"/>
    <type id="railway.light_rail" priority="19" speed="27.78" allow="rail_urban" oneway="1"/>
    <type id="railway.preserved" priority="16" speed="27.78" allow="rail" oneway="1"/>
    <type id="railway.rail" priority="20" speed="44.44" allow="rail" oneway="1"/>
    <type id="railway.subway" priority="18" speed="27.78" allow="rail_urban" oneway="1"/>
    <type id="railway.tram" priority="17" speed="13.89" allow="tram" oneway="1"/>

    <edge id=":29_0" function="internal">
        <lane id=":29_0_0" index="0" disallow="pedestrian tram rail_urban rail rail_electric rail_fast ship" speed="36.11" length="16.78" width="3.50" shape="-139.12,64.37 -139.45,62.49 -140.90,56.00 -143.08,48.07"/>
    </edge>
    <edge id=":29_1" function="internal">
        <lane id=":29_1_0" index="0" disallow="pedestrian tram rail_urban rail rail_electric rail_fast ship" speed="9.80" length="15.53" width="3.48" shape="-139.12,64.37 -139.33,62.10 -139.13,60.24 -138.54,58.45 -137.63,56.81 -136.46,55.35 -134.61,53.65 -131.94,51.82"/>
    </edge>
    <edge id=":29_2" function="internal">
        <lane id=":29_2_0" index="0" disallow="pedestrian tram rail_urban rail rail_electric rail_fast ship" speed="8.43" length="11.33" width="3.50" shape="-130.14,54.81 -132.29,56.27 -133.71,57.56 -134.58,58.59 -135.24,59.71 -135.67,60.88 -135.83,62.11 -135.67,63.78"/>
    </edge>
    <edge id=":29_3" function="internal">
        <lane id=":29_3_0" index="0" disallow="pedestrian tram rail_urban rail rail_electric rail_fast ship" speed="8.22" length="17.67" width="3.50" shape="-130.14,54.81 -132.19,55.83 -133.71,56.27 -135.32,56.40 -136.28,56.29 -137.81,55.78 -138.63,55.31 -139.30,54.79 -140.36,53.70 -141.22,52.46 -142.17,50.59 -143.08,48.07"/>
    </edge>
    <edge id=":29_4" function="internal">
        <lane id=":29_4_0" index="0" disallow="pedestrian tram rail_urban rail rail_electric rail_fast ship" speed="6.65" length="11.12" width="3.48" shape="-139.74,47.04 -139.57,47.60 -139.38,48.14 -139.16,48.69 -138.93,49.22 -138.67,49.74 -138.39,50.24 -138.07,50.73 -137.72,51.19 -137.33,51.61 -136.89,51.98 -136.42,52.31 -135.91,52.57 -135.35,52.71 -134.77,52.76 -134.19,52.72 -133.62,52.59 -133.07,52.39 -132.54,52.14 -131.94,51.82"/>
    </edge>
    <edge id=":29_5" function="internal">
        <lane id=":29_5_0" index="0" disallow="pedestrian tram rail_urban rail rail_electric rail_fast ship" speed="36.11" length="17.24" width="3.50" shape="-139.74,47.04 -137.50,55.15 -136.02,61.82 -135.67,63.78"/>
    </edge>
    <edge id=":30_0" function="internal">
        <lane id=":30_0_0" index="0" disallow="pedestrian tram rail_urban rail rail_electric rail_fast ship" speed="36.11" length="17.21" width="3.50" shape="-133.22,167.50 -133.59,159.85 -133.79,150.30"/>
    </edge>
    <edge id=":30_1" function="internal">
        <lane id=":30_1_0" index="0" disallow="pedestrian tram rail_urban rail rail_electric rail_fast ship" speed="9.92" length="16.82" width="3.50" shape="-133.22,167.50 -133.17,165.09 -132.72,163.27 -131.87,161.59 -130.72,160.11 -129.33,158.84 -127.25,157.44 -124.44,156.07 -123.27,155.61"/>
    </edge>
    <edge id=":30_2" function="internal">
        <lane id=":30_2_0" index="0" disallow="pedestrian tram rail_urban rail rail_electric rail_fast ship" speed="8.60" length="12.43" width="3.50" shape="-121.98,158.86 -122.97,159.25 -125.26,160.34 -126.89,161.39 -127.92,162.28 -128.76,163.28 -129.36,164.36 -129.69,165.52 -129.72,167.30"/>
    </edge>
    <edge id=":30_3" function="internal">
        <lane id=":30_3_0" index="0" disallow="pedestrian tram rail_urban rail rail_electric rail_fast ship" speed="8.02" length="18.33" width="3.50" shape="-121.98,158.86 -123.44,159.34 -125.59,159.78 -127.21,159.85 -128.84,159.57 -129.72,159.25 -130.54,158.79 -131.27,158.19 -131.86,157.54 -132.36,156.83 -132.77,156.06 -133.29,154.56 -133.68,152.40 -133.79,150.30"/>
    </edge>
    <edge id=":30_4" function="internal">
        <lane id=":30_4_0" index="0" disallow="pedestrian tram rail_urban rail rail_electric rail_fast ship" speed="6.43" length="11.24" width="3.50" shape="-130.29,150.27 -130.27,150.86 -130.24,151.45 -130.17,152.04 -130.08,152.62 -129.94,153.20 -129.77,153.77 -129.53,154.31 -129.22,154.81 -128.85,155.27 -128.41,155.66 -127.90,155.95 -127.33,156.12 -126.75,156.21 -126.15,156.23 -125.56,156.18 -124.98,156.09 -124.40,155.96 -123.83,155.80 -123.27,155.61"/>
    </edge>
    <edge id=":30_5" function="internal">
        <lane id=":30_5_0" index="0" disallow="pedestrian tram rail_urban rail rail_electric rail_fast ship" speed="36.11" length="17.04" width="3.50" shape="-130.29,150.27 -130.10,159.72 -129.72,167.30"/>
    </edge>
    <edge id=":31_0" function="internal">
        <lane id=":31_0_0" index="0" disallow="pedestrian tram rail_urban rail rail_electric rail_fast ship" speed="6.61" length="9.90" width="3.50" shape="-151.86,28.23 -152.64,27.29 -153.31,26.66 -154.06,26.14 -154.89,25.76 -155.78,25.56 -156.69,25.56 -157.58,25.74 -158.44,26.07 -159.62,26.76 -160.35,27.31"/>
    </edge>
    <edge id=":31_1" function="internal">
        <lane id=":31_1_0" index="0" disallow="pedestrian tram rail_urban rail rail_electric rail_fast ship" speed="31.13" length="11.50" width="3.33" shape="-151.84,28.22 -152.28,27.60 -152.70,27.04 -153.11,26.53 -153.52,26.06 -153.92,25.64 -154.32,25.26 -154.72,24.90 -155.12,24.57 -155.53,24.26 -155.95,23.96 -156.38,23.67 -156.82,23.38 -157.28,23.08 -157.76,22.77 -158.26,22.44 -158.79,22.09 -159.34,21.71 -159.92,21.29 -160.53,20.84"/>
    </edge>
    <edge id=":31_2" function="internal">
        <lane id=":31_2_0" index="0" disallow="pedestrian tram rail_urban rail rail_electric rail_fast ship" speed="13.66" length="13.14" width="3.50" shape="-158.72,17.79 -157.06,18.49 -155.13,19.69 -152.97,21.53 -150.66,24.04 -148.94,26.27"/>
    </edge>
    <edge id=":31_3" function="internal">
        <lane id=":31_3_0" index="0" disallow="pedestrian tram rail_urban rail rail_electric rail_fast ship" speed="6.45" length="12.92" width="3.50" shape="-158.72,17.80 -158.00,18.07 -157.38,18.35 -156.79,18.68 -156.25,19.11 -155.85,19.66 -155.67,20.29 -155.64,20.94 -155.74,21.59 -155.94,22.22 -156.22,22.84 -156.57,23.42 -156.97,23.97 -157.40,24.50 -157.85,25.00 -158.32,25.49 -158.81,25.97 -159.32,26.42 -159.83,26.87 -160.35,27.31"/>
    </edge>
    <edge id=":31_4" function="internal">
        <lane id=":31_4_0" index="0" disallow="pedestrian tram rail_urban rail rail_electric rail_fast ship" speed="36.11" length="0.10" width="3.33" shape="-162.55,24.59 -162.55,24.59"/>
    </edge>
    <edge id=":31_5" function="internal">
        <lane id=":31_5_0" index="0" disallow="pedestrian tram rail_urban rail rail_electric rail_fast ship" speed="8.18" length="15.83" width="3.50" shape="-162.57,24.60 -161.48,23.79 -159.73,22.78 -158.36,22.25 -156.89,21.96 -155.34,21.97 -153.82,22.31 -152.44,22.95 -151.25,23.78 -150.21,24.75 -148.94,26.27"/>
    </edge>

    <edge id="169" from="23" to="31" priority="3" type="highway.residential" spreadType="center" length="5.44" shape="-163.88,16.09 -155.45,24.02">
        <lane id="169_0" index="0" disallow="pedestrian tram rail_urban rail rail_electric rail_fast ship" speed="36.11" length="5.44" width="2.62" customShape="1" shape="-163.88,16.09 -159.15,17.66 -159.03,17.70 -158.92,17.73 -158.72,17.80"/>
    </edge>
    <edge id="171" from="29" to="31" priority="3" type="highway.residential" spreadType="center" length="21.82" shape="-138.13,55.84 -157.95,25.76">
        <lane id="171_0" index="0" disallow="pedestrian tram rail_urban rail rail_electric rail_fast ship" speed="36.11" length="21.82" width="3.50" customShape="1" shape="-143.08,48.07 -144.41,43.74 -146.22,38.61 -147.98,34.57 -149.59,31.57 -151.84,28.22"/>
    </edge>
    <edge id="172" from="31" to="29" priority="3" type="highway.residential" spreadType="center" length="22.84" shape="-155.04,23.84 -135.21,53.92">
        <lane id="172_0" index="0" disallow="pedestrian tram rail_urban rail rail_electric rail_fast ship" speed="36.11" length="22.84" width="3.50" customShape="1" shape="-148.94,26.27 -146.59,29.77 -144.83,33.05 -142.96,37.33 -141.08,42.66 -139.74,47.04"/>
    </edge>
    <edge id="174" from="30" to="29" priority="3" type="highway.residential" spreadType="center" length="86.30" shape="-130.47,158.31 -138.41,55.01">
        <lane id="174_0" index="0" disallow="pedestrian tram rail_urban rail rail_electric rail_fast ship" speed="36.11" length="86.30" width="3.50" customShape="1" shape="-133.79,150.30 -133.60,122.14 -133.81,109.14 -134.35,98.17 -135.09,89.70 -136.21,81.30 -139.12,64.37"/>
    </edge>
    <edge id="175" from="29" to="30" priority="3" type="highway.residential" spreadType="center" length="86.92" shape="-134.93,54.75 -126.99,158.04">
        <lane id="175_0" index="0" disallow="pedestrian tram rail_urban rail rail_electric rail_fast ship" speed="36.11" length="86.92" width="3.50" customShape="1" shape="-135.67,63.78 -132.75,80.77 -131.61,89.32 -130.86,97.93 -130.31,109.03 -130.10,122.13 -130.29,150.33"/>
    </edge>
    <edge id="177" from="26" to="30" priority="3" type="highway.residential" spreadType="center" length="69.46" shape="-121.71,235.74 -130.47,158.30">
        <lane id="177_0" index="0" disallow="pedestrian tram rail_urban rail rail_electric rail_fast ship" speed="36.11" length="69.46" width="3.50" customShape="1" shape="-121.71,235.74 -123.20,230.63 -126.55,218.53 -128.76,209.22 -130.39,200.80 -131.41,193.71 -132.18,185.61 -133.22,167.50"/>
    </edge>
    <edge id="178" from="30" to="11" priority="3" type="highway.residential" spreadType="center" length="69.53" shape="-127.00,157.90 -118.11,235.59">
        <lane id="178_0" index="0" disallow="pedestrian tram rail_urban rail rail_electric rail_fast ship" speed="36.11" length="69.53" width="3.50" customShape="1" shape="-129.72,167.30 -128.69,185.34 -127.93,193.29 -126.94,200.21 -125.34,208.48 -123.16,217.66 -119.84,229.67 -118.11,235.59"/>
    </edge>
    <edge id="243" from="15" to="29" priority="3" type="highway.residential" spreadType="center" length="37.69" shape="-111.82,27.83 -135.38,56.06">
        <lane id="243_0" index="0" disallow="pedestrian tram rail_urban rail rail_electric rail_fast ship" speed="36.11" length="37.69" width="3.50" customShape="1" shape="-111.82,27.83 -111.18,28.61 -109.76,30.45 -109.16,31.81 -109.01,32.63 -109.01,33.50 -109.23,34.78 -109.87,37.01 -110.80,39.12 -111.98,41.08 -113.72,43.29 -115.68,45.26 -118.21,47.34 -121.73,49.78 -130.14,54.81"/>
    </edge>
    <edge id="244" from="29" to="13" priority="3" type="highway.residential" spreadType="center" length="31.67" shape="-137.97,53.72 -114.53,30.05">
        <lane id="244_0" index="0" disallow="pedestrian tram rail_urban rail rail_electric rail_fast ship" speed="36.11" length="31.67" width="3.48" customShape="1" shape="-131.94,51.82 -130.58,51.00 -129.11,50.13 -127.63,49.27 -126.16,48.40 -124.70,47.51 -123.25,46.59 -121.83,45.64 -120.45,44.64 -119.11,43.58 -117.82,42.45 -116.62,41.25 -115.51,39.95 -114.52,38.55 -113.70,37.06 -113.05,35.47 -112.61,33.87 -112.55,32.64 -113.39,31.53 -114.53,30.05"/>
    </edge>
    <edge id="249" from="18" to="31" priority="3" type="highway.residential" spreadType="center" length="16.82" shape="-175.58,35.23 -157.28,23.33">
        <lane id="249_0" index="0" disallow="pedestrian tram rail_urban rail rail_electric rail_fast ship" speed="36.11" length="16.82" width="3.50" customShape="1" shape="-175.58,35.23 -169.07,29.92 -162.55,24.59"/>
    </edge>
    <edge id="250" from="31" to="21" priority="3" type="highway.residential" spreadType="center" length="16.80" shape="-155.38,26.25 -173.36,37.94">
        <lane id="250_0" index="0" disallow="pedestrian tram rail_urban rail rail_electric rail_fast ship" speed="36.11" length="16.80" width="3.50" customShape="1" shape="-160.35,27.31 -166.86,32.63 -173.36,37.94"/>
    </edge>
    <edge id="381" from="30" to="5" priority="3" type="highway.residential" spreadType="center" length="20.45" shape="-129.44,156.54 -104.55,147.38">
        <lane id="381_0" index="0" disallow="pedestrian tram rail_urban rail rail_electric rail_fast ship" speed="36.11" length="20.45" width="3.50" customShape="1" shape="-123.27,155.61 -119.14,153.97 -104.55,147.38"/>
    </edge>
    <edge id="382" from="6" to="30" priority="3" type="highway.residential" spreadType="center" length="20.66" shape="-103.14,150.58 -128.24,159.82">
        <lane id="382_0" index="0" disallow="pedestrian tram rail_urban rail rail_electric rail_fast ship" speed="36.11" length="20.66" width="3.50" customShape="1" shape="-103.14,150.58 -117.79,157.20 -122.05,158.89"/>
    </edge>
    <edge id="634" from="31" to="32" priority="3" type="highway.residential" spreadType="center" length="0.20" shape="-157.69,25.98 -159.96,20.97">
        <lane id="634_0" index="0" disallow="pedestrian tram rail_urban rail rail_electric rail_fast ship" speed="36.11" length="0.20" width="3.33" customShape="1" shape="-160.53,20.84 -160.69,20.72"/>
    </edge>
    <edge id="705" from="31" to="32" priority="3" type="highway.residential" spreadType="center" length="5.58">
        <lane id="705_0" index="0" disallow="pedestrian tram rail_urban rail rail_electric rail_fast ship" speed="36.11" length="5.58" width="3.33" customShape="1" shape="-162.55,24.59 -162.27,24.36 -161.99,24.12 -161.71,23.88 -161.43,23.62 -161.15,23.37 -160.88,23.11 -160.62,22.84 -160.36,22.58 -160.11,22.31 -159.88,22.03 -159.65,21.72 -159.44,21.40 -159.29,21.15 -159.25,20.99 -159.33,20.92 -159.55,20.99 -159.75,21.06 -159.85,21.06"/>
    </edge>

    <junction id="11" type="dead_end" x="-118.11" y="235.59" incLanes="178_0" intLanes="" shape="-116.43,235.09 -119.78,236.08" rightOfWay="edgePriority"/>
    <junction id="13" type="dead_end" x="-114.53" y="30.05" incLanes="244_0" intLanes="" shape="-115.91,31.11 -113.15,28.99" rightOfWay="edgePriority"/>
    <junction id="15" type="dead_end" x="-111.82" y="27.83" incLanes="" intLanes="" shape="-113.17,28.95 -110.48,26.71" rightOfWay="edgePriority"/>
    <junction id="18" type="dead_end" x="-175.58" y="35.23" incLanes="" intLanes="" shape="-174.47,36.59 -176.68,33.88" rightOfWay="edgePriority"/>
    <junction id="21" type="dead_end" x="-173.36" y="37.94" incLanes="250_0" intLanes="" shape="-172.25,39.30 -174.47,36.59" rightOfWay="edgePriority"/>
    <junction id="23" type="dead_end" x="-163.88" y="16.09" incLanes="" intLanes="" shape="-164.29,17.33 -163.46,14.85" rightOfWay="edgePriority"/>
    <junction id="26" type="dead_end" x="-121.71" y="235.74" incLanes="" intLanes="" shape="-120.03,235.25 -123.39,236.23" rightOfWay="edgePriority"/>
    <junction id="29" type="priority" x="-136.67" y="54.88" incLanes="174_0 243_0 172_0" intLanes=":29_0_0 :29_1_0 :29_2_0 :29_3_0 :29_4_0 :29_5_0" shape="-140.84,64.66 -133.95,63.48 -133.72,60.93 -133.11,59.72 -132.15,58.54 -130.86,57.41 -129.23,56.31 -132.84,50.32 -134.94,50.82 -135.86,50.41 -136.69,49.55 -137.42,48.26 -138.07,46.53 -144.76,48.58 -143.72,51.95 -142.97,54.45 -142.41,56.53 -141.94,58.63 -141.45,61.19">
        <request index="0" response="000000" foes="001000" cont="0"/>
        <request index="1" response="110000" foes="111000" cont="0"/>
        <request index="2" response="100000" foes="100000" cont="0"/>
        <request index="3" response="100011" foes="100011" cont="0"/>
        <request index="4" response="000000" foes="000010" cont="0"/>
        <request index="5" response="000000" foes="001110" cont="0"/>
    </junction>
    <junction id="30" type="priority" x="-128.73" y="158.14" incLanes="177_0 382_0 175_0" intLanes=":30_0_0 :30_1_0 :30_2_0 :30_3_0 :30_4_0 :30_5_0" shape="-134.96,167.60 -127.98,167.20 -127.34,164.68 -126.43,163.52 -125.13,162.44 -123.43,161.43 -121.34,160.49 -123.92,153.98 -126.50,154.40 -127.40,153.99 -128.04,153.18 -128.42,151.96 -128.54,150.34 -135.54,150.29">
        <request index="0" response="000000" foes="001000" cont="0"/>
        <request index="1" response="110000" foes="111000" cont="0"/>
        <request index="2" response="100000" foes="100000" cont="0"/>
        <request index="3" response="100011" foes="100011" cont="0"/>
        <request index="4" response="000000" foes="000010" cont="0"/>
        <request index="5" response="000000" foes="001110" cont="0"/>
    </junction>
    <junction id="31" type="priority" x="-156.45" y="24.87" incLanes="171_0 169_0 249_0" intLanes=":31_0_0 :31_1_0 :31_2_0 :31_3_0 :31_4_0 :31_5_0" shape="-153.30,29.20 -147.49,25.30 -149.18,22.80 -150.55,20.96 -151.88,19.59 -153.43,18.52 -155.48,17.57 -158.30,16.56 -159.13,19.04 -159.59,19.30 -162.44,21.62 -158.32,22.06 -158.96,19.48 -160.85,20.66 -161.44,21.17 -162.01,21.73 -162.70,22.40 -163.68,23.24 -159.25,28.66 -156.98,27.41 -155.95,27.32 -155.00,27.59 -154.11,28.21">
        <request index="0" response="000000" foes="001000" cont="0"/>
        <request index="1" response="000000" foes="101000" cont="0"/>
        <request index="2" response="000000" foes="100000" cont="0"/>
        <request index="3" response="000011" foes="100011" cont="0"/>
        <request index="4" response="000000" foes="000000" cont="0"/>
        <request index="5" response="001110" foes="001110" cont="0"/>
    </junction>
    <junction id="32" type="dead_end" x="-159.96" y="20.97" incLanes="634_0 705_0" intLanes="" shape="-160.69,22.47 -159.24,19.47 -160.91,22.31 -159.03,19.65"/>
    <junction id="5" type="dead_end" x="-104.55" y="147.38" incLanes="381_0" intLanes="" shape="-105.27,145.78 -103.83,148.97" rightOfWay="edgePriority"/>
    <junction id="6" type="dead_end" x="-103.14" y="150.58" incLanes="" intLanes="" shape="-103.86,148.98 -102.42,152.17" rightOfWay="edgePriority"/>

    <connection from="169" to="172" fromLane="0" toLane="0" contPos="-4.00" shape="-158.64,17.83 -157.06,18.49 -155.13,19.69 -152.97,21.53 -150.66,24.04 -148.94,26.27" via=":31_2_0" dir="s" state="M"/>
    <connection from="169" to="250" fromLane="0" toLane="0" contPos="-4.00" shape="-158.64,17.83 -158.00,18.07 -157.38,18.35 -156.79,18.68 -156.25,19.11 -155.85,19.66 -155.67,20.29 -155.64,20.94 -155.74,21.59 -155.94,22.22 -156.22,22.84 -156.57,23.42 -156.97,23.97 -157.40,24.50 -157.85,25.00 -158.32,25.49 -158.81,25.97 -159.32,26.42 -159.83,26.87 -160.35,27.31" via=":31_3_0" dir="l" state="m"/>
    <connection from="171" to="250" fromLane="0" toLane="0" contPos="-4.00" shape="-151.76,28.35 -152.64,27.29 -153.31,26.66 -154.06,26.14 -154.89,25.76 -155.78,25.56 -156.69,25.56 -157.58,25.74 -158.44,26.07 -159.62,26.76 -160.35,27.31" via=":31_0_0" dir="r" state="M"/>
    <connection from="171" to="634" fromLane="0" toLane="0" contPos="-4.00" via=":31_1_0" dir="L" state="M"/>
    <connection from="172" to="244" fromLane="0" toLane="0" contPos="-4.00" shape="-139.74,47.04 -139.57,47.60 -139.38,48.14 -139.16,48.69 -138.93,49.22 -138.67,49.74 -138.39,50.24 -138.07,50.73 -137.72,51.19 -137.33,51.61 -136.89,51.98 -136.42,52.31 -135.91,52.57 -135.35,52.71 -134.77,52.76 -134.19,52.72 -133.62,52.59 -133.07,52.39 -132.54,52.14 -132.04,51.87" via=":29_4_0" dir="r" state="M"/>
    <connection from="172" to="175" fromLane="0" toLane="0" contPos="-4.00" shape="-139.74,47.04 -137.50,55.15 -136.02,61.82 -135.73,63.44" via=":29_5_0" dir="s" state="M"/>
    <connection from="174" to="171" fromLane="0" toLane="0" contPos="-4.00" shape="-139.18,63.98 -139.45,62.49 -140.90,56.00 -143.08,48.07" via=":29_0_0" dir="s" state="M"/>
    <connection from="174" to="244" fromLane="0" toLane="0" contPos="-4.00" shape="-139.18,63.98 -139.33,62.10 -139.13,60.24 -138.54,58.45 -137.63,56.81 -136.46,55.35 -134.61,53.65 -132.04,51.87" via=":29_1_0" dir="l" state="m"/>
    <connection from="175" to="381" fromLane="0" toLane="0" contPos="-4.00" shape="-130.29,150.27 -130.27,150.86 -130.24,151.45 -130.17,152.04 -130.08,152.62 -129.94,153.20 -129.77,153.77 -129.53,154.31 -129.22,154.81 -128.85,155.27 -128.41,155.66 -127.90,155.95 -127.33,156.12 -126.75,156.21 -126.15,156.23 -125.56,156.18 -124.98,156.09 -124.40,155.96 -123.83,155.80 -123.27,155.61" via=":30_4_0" dir="r" state="M"/>
    <connection from="175" to="178" fromLane="0" toLane="0" contPos="-4.00" shape="-130.29,150.27 -130.10,159.72 -129.75,166.83" via=":30_5_0" dir="s" state="M"/>
    <connection from="177" to="174" fromLane="0" toLane="0" contPos="-4.00" shape="-133.25,166.96 -133.59,159.85 -133.79,150.30" via=":30_0_0" dir="s" state="M"/>
    <connection from="177" to="381" fromLane="0" toLane="0" contPos="-4.00" shape="-133.25,166.96 -133.17,165.09 -132.72,163.27 -131.87,161.59 -130.72,160.11 -129.33,158.84 -127.25,157.44 -124.44,156.07 -123.27,155.61" via=":30_1_0" dir="l" state="m"/>
    <connection from="243" to="175" fromLane="0" toLane="0" contPos="-4.00" shape="-130.25,54.88 -132.29,56.27 -133.71,57.56 -134.58,58.59 -135.24,59.71 -135.67,60.88 -135.83,62.11 -135.73,63.44" via=":29_2_0" dir="r" state="m"/>
    <connection from="243" to="171" fromLane="0" toLane="0" contPos="-4.00" shape="-130.25,54.88 -132.19,55.83 -133.71,56.27 -135.32,56.40 -136.28,56.29 -137.81,55.78 -138.63,55.31 -139.30,54.79 -140.36,53.70 -141.22,52.46 -142.17,50.59 -143.08,48.07" via=":29_3_0" dir="l" state="m"/>
    <connection from="249" to="705" fromLane="0" toLane="0" contPos="-4.00" via=":31_4_0" dir="r" state="M"/>
    <connection from="249" to="172" fromLane="0" toLane="0" contPos="-4.00" shape="-162.55,24.59 -161.48,23.79 -159.73,22.78 -158.36,22.25 -156.89,21.96 -155.34,21.97 -153.82,22.31 -152.44,22.95 -151.25,23.78 -150.21,24.75 -148.94,26.27" via=":31_5_0" dir="l" state="m"/>
    <connection from="382" to="178" fromLane="0" toLane="0" contPos="-4.00" shape="-122.05,158.89 -122.97,159.25 -125.26,160.34 -126.89,161.39 -127.92,162.28 -128.76,163.28 -129.36,164.36 -129.69,165.52 -129.75,166.83" via=":30_2_0" dir="r" state="m"/>
    <connection from="382" to="174" fromLane="0" toLane="0" contPos="-4.00" shape="-122.05,158.89 -123.44,159.34 -125.59,159.78 -127.21,159.85 -128.84,159.57 -129.72,159.25 -130.54,158.79 -131.27,158.19 -131.86,157.54 -132.36,156.83 -132.77,156.06 -133.29,154.56 -133.68,152.40 -133.79,150.30" via=":30_3_0" dir="l" state="m"/>

    <connection from=":29_0" to="171" fromLane="0" toLane="0" dir="s" state="M"/>
    <connection from=":29_1" to="244" fromLane="0" toLane="0" dir="l" state="M"/>
    <connection from=":29_2" to="175" fromLane="0" toLane="0" dir="r" state="M"/>
    <connection from=":29_3" to="171" fromLane="0" toLane="0" dir="l" state="M"/>
    <connection from=":29_4" to="244" fromLane="0" toLane="0" dir="r" state="M"/>
    <connection from=":29_5" to="175" fromLane="0" toLane="0" dir="s" state="M"/>
    <connection from=":30_0" to="174" fromLane="0" toLane="0" dir="s" state="M"/>
    <connection from=":30_1" to="381" fromLane="0" toLane="0" dir="l" state="M"/>
    <connection from=":30_2" to="178" fromLane="0" toLane="0" dir="r" state="M"/>
    <connection from=":30_3" to="174" fromLane="0" toLane="0" dir="l" state="M"/>
    <connection from=":30_4" to="381" fromLane="0" toLane="0" dir="r" state="M"/>
    <connection from=":30_5" to="178" fromLane="0" toLane="0" dir="s" state="M"/>
    <connection from=":31_0" to="250" fromLane="0" toLane="0" dir="r" state="M"/>
    <connection from=":31_1" to="634" fromLane="0" toLane="0" dir="L" state="M"/>
    <connection from=":31_2" to="172" fromLane="0" toLane="0" dir="s" state="M"/>
    <connection from=":31_3" to="250" fromLane="0" toLane="0" dir="l" state="M"/>
    <connection from=":31_4" to="705" fromLane="0" toLane="0" dir="r" state="M"/>
    <connection from=":31_5" to="172" fromLane="0" toLane="0" dir="l" state="M"/>

</net>