<routes>
	<vehicle depart="0.1" departLane="0" departPos="69.39970407410404" departSpeed="6.9035014" id="312" type="bicycle">
		<route edges="174 244"/>
	</vehicle>
	<vehicle depart="0.1" departLane="0" departPos="37.43449044139041" departSpeed="0.0" id="324" type="bicycle">
		<route edges="243 175 178"/>
	</vehicle>
	<vehicle depart="0.1" departLane="0" departPos="37.33596766736697" departSpeed="0.0" id="327" type="bus">
		<route edges="243 175 178"/>
	</vehicle>
	<vehicle depart="0.1" departLane="0" departPos="32.842012517774535" departSpeed="17.86879" id="311" type="passenger">
		<route edges="175 178"/>
	</vehicle>
	<vehicle depart="0.1" departLane="0" departPos="8.144979354773366" departSpeed="8.8747068" id="326" type="passenger">
		<route edges=":29_4 244"/>
	</vehicle>
	<vehicle depart="0.1" departLane="0" departPos="9.660027800436215" departSpeed="0.30552685" id="330" type="passenger">
		<route edges="249 172"/>
	</vehicle>
	<vehicle depart="0.1" departLane="0" departPos="22.689054949342065" departSpeed="0.17708631" id="331" type="passenger">
		<route edges="243 171"/>
	</vehicle>
	<vehicle depart="0.1" departLane="0" departPos="14.911433840598113" departSpeed="0.68997169" id="333" type="passenger">
		<route edges="243 171"/>
	</vehicle>
	<vehicle depart="0.1" departLane="0" departPos="13.780546229562768" departSpeed="9.3053396" id="334" type="passenger">
		<route edges="172 175 178"/>
	</vehicle>
	<vehicle depart="0.1" departLane="0" departPos="4.557645105120441" departSpeed="4.8310251" id="335" type="passenger">
		<route edges=":31_3 250"/>
	</vehicle>
	<vehicle depart="0.1" departLane="0" departPos="7.155451655181697" departSpeed="0.91637761" id="337" type="passenger">
		<route edges="243 171"/>
	</vehicle>
	<vehicle depart="0.1" departLane="0" departPos="1.25" departSpeed="2.9014685" id="338" type="motorcycle">
		<route edges="169 172 175 178"/>
	</vehicle>
</routes>
