<routes>
	<vehicle depart="0.1" departLane="0" departPos="23.645293255773566" departSpeed="0.15342822" id="31" type="passenger">
		<route edges=":31_3 1547"/>
	</vehicle>
	<vehicle depart="0.1" departLane="0" departPos="50.478705922991814" departSpeed="0.44113268" id="33" type="passenger">
		<route edges="1350 1543"/>
	</vehicle>
	<vehicle depart="0.1" departLane="0" departPos="9.42831294207975" departSpeed="0.8744493" id="313" type="passenger">
		<route edges=":31_2 1543"/>
	</vehicle>
	<vehicle depart="0.1" departLane="0" departPos="6.380784583894135" departSpeed="0.34014237" id="317" type="passenger">
		<route edges="1547 1550"/>
	</vehicle>
	<vehicle depart="0.1" departLane="0" departPos="32.78388449651379" departSpeed="1.7774659" id="326" type="passenger">
		<route edges="1544 1547 1550"/>
	</vehicle>
	<vehicle depart="0.1" departLane="0" departPos="19.162208065084094" departSpeed="1.610076" id="332" type="passenger">
		<route edges="1544 1351"/>
	</vehicle>
	<vehicle depart="0.1" departLane="0" departPos="10.639463779774802" departSpeed="0.33621171" id="339" type="passenger">
		<route edges="1544 1351"/>
	</vehicle>
	<vehicle depart="0.1" departLane="0" departPos="2.5" departSpeed="1.2573674" id="345" type="passenger">
		<route edges="1544 1351"/>
	</vehicle>
</routes>
