<routes>
	<vehicle depart="0.1" departLane="0" departPos="31.52363307234346" departSpeed="6.9064677" id="332" type="bicycle">
		<route edges="357"/>
	</vehicle>
	<vehicle depart="0.1" departLane="0" departPos="41.82567501619012" departSpeed="0.00010317221" id="329" type="bus">
		<route edges="358 391"/>
	</vehicle>
	<vehicle depart="0.1" departLane="0" departPos="121.60546280615903" departSpeed="10.670642" id="330" type="bus">
		<route edges="361 391"/>
	</vehicle>
	<vehicle depart="0.1" departLane="0" departPos="158.98039928409915" departSpeed="2.9441874" id="33" type="passenger">
		<route edges="360 311"/>
	</vehicle>
	<vehicle depart="0.1" departLane="0" departPos="171.253575654004" departSpeed="0.0" id="35" type="passenger">
		<route edges="361 391"/>
	</vehicle>
	<vehicle depart="0.1" departLane="0" departPos="378.70900192441695" departSpeed="3.2517817" id="36" type="passenger">
		<route edges="308 361"/>
	</vehicle>
	<vehicle depart="0.1" departLane="0" departPos="60.693074189453576" departSpeed="0.0" id="37" type="passenger">
		<route edges="358 391"/>
	</vehicle>
	<vehicle depart="0.1" departLane="0" departPos="299.4415353590474" departSpeed="17.446656" id="39" type="passenger">
		<route edges="308 361"/>
	</vehicle>
	<vehicle depart="0.1" departLane="0" departPos="53.54985819106053" departSpeed="0.0" id="312" type="passenger">
		<route edges="358 391"/>
	</vehicle>
	<vehicle depart="0.1" departLane="0" departPos="89.71077680992678" departSpeed="14.452423" id="313" type="passenger">
		<route edges="308 361"/>
	</vehicle>
	<vehicle depart="0.1" departLane="0" departPos="2.5" departSpeed="6.7894115" id="314" type="passenger">
		<route edges="307 1161"/>
	</vehicle>
	<vehicle depart="0.1" departLane="0" departPos="397.8887864609348" departSpeed="0.0" id="316" type="passenger">
		<route edges="308 361"/>
	</vehicle>
	<vehicle depart="0.1" departLane="0" departPos="390.03709622952215" departSpeed="0.72668264" id="317" type="passenger">
		<route edges="308 361"/>
	</vehicle>
	<vehicle depart="0.1" departLane="0" departPos="169.77259183387784" departSpeed="0.0081278095" id="318" type="passenger">
		<route edges="360 307"/>
	</vehicle>
	<vehicle depart="0.1" departLane="0" departPos="164.15906308656895" departSpeed="0.27354215" id="319" type="passenger">
		<route edges="361 391"/>
	</vehicle>
	<vehicle depart="0.1" departLane="0" departPos="154.49170063843053" departSpeed="2.0248018" id="324" type="passenger">
		<route edges="361 391"/>
	</vehicle>
	<vehicle depart="0.1" departLane="0" departPos="334.0193425048393" departSpeed="14.660919" id="325" type="passenger">
		<route edges="308 361"/>
	</vehicle>
	<vehicle depart="0.1" departLane="0" departPos="143.7726108285096" departSpeed="25.386159" id="333" type="passenger">
		<route edges="307 1161"/>
	</vehicle>
	<vehicle depart="0.1" departLane="0" departPos="27.18378888432917" departSpeed="0.0005811789" id="335" type="passenger">
		<route edges="358 391"/>
	</vehicle>
	<vehicle depart="0.1" departLane="0" departPos="84.92187467083293" departSpeed="13.818352" id="336" type="passenger">
		<route edges="361 391"/>
	</vehicle>
	<vehicle depart="0.1" departLane="0" departPos="66.62946469873245" departSpeed="18.882469" id="340" type="passenger">
		<route edges="307 1161"/>
	</vehicle>
	<vehicle depart="0.1" departLane="0" departPos="19.939277307201753" departSpeed="0.0023992687" id="342" type="passenger">
		<route edges="358 391"/>
	</vehicle>
	<vehicle depart="0.1" departLane="0" departPos="34.63253082081887" departSpeed="13.429477" id="343" type="passenger">
		<route edges="361 391"/>
	</vehicle>
	<vehicle depart="0.1" departLane="0" departPos="47.93716346104719" departSpeed="15.290016" id="344" type="passenger">
		<route edges="360 311"/>
	</vehicle>
	<vehicle depart="0.1" departLane="0" departPos="9.936166992879265" departSpeed="9.2220038" id="346" type="passenger">
		<route edges="361 391"/>
	</vehicle>
	<vehicle depart="0.1" departLane="0" departPos="18.702819393815822" departSpeed="10.90174" id="347" type="passenger">
		<route edges="360 311"/>
	</vehicle>
	<vehicle depart="0.1" departLane="0" departPos="6.428685684685611" departSpeed="8.4535469" id="350" type="passenger">
		<route edges=":29_0 361 391"/>
	</vehicle>
	<vehicle depart="0.1" departLane="0" departPos="2.5" departSpeed="12.50819" id="351" type="passenger">
		<route edges="357"/>
	</vehicle>
	<vehicle depart="0.1" departLane="0" departPos="61.951595484661404" departSpeed="8.1766935" id="352" type="passenger">
		<route edges="310 361 391"/>
	</vehicle>
	<vehicle depart="0.1" departLane="0" departPos="70.59380103623974" departSpeed="11.544057" id="353" type="passenger">
		<route edges="390 357"/>
	</vehicle>
	<vehicle depart="0.1" departLane="0" departPos="47.776971080274244" departSpeed="7.6428588" id="356" type="passenger">
		<route edges="310 307 1161"/>
	</vehicle>
	<vehicle depart="0.1" departLane="0" departPos="34.53405887150098" departSpeed="7.0340185" id="362" type="passenger">
		<route edges="310 307 1161"/>
	</vehicle>
	<vehicle depart="0.1" departLane="0" departPos="38.31552947163052" departSpeed="9.9088009" id="363" type="passenger">
		<route edges="390 357"/>
	</vehicle>
	<vehicle depart="0.1" departLane="0" departPos="22.348986477415092" departSpeed="6.1112799" id="365" type="passenger">
		<route edges="310 307 1161"/>
	</vehicle>
	<vehicle depart="0.1" departLane="0" departPos="22.03771671096885" departSpeed="7.7741441" id="366" type="passenger">
		<route edges="390 357"/>
	</vehicle>
	<vehicle depart="0.1" departLane="0" departPos="11.884046770541532" departSpeed="5.0923285" id="368" type="passenger">
		<route edges="310 307 1161"/>
	</vehicle>
	<vehicle depart="0.1" departLane="0" departPos="10.7754653275041" departSpeed="5.179883" id="369" type="passenger">
		<route edges="390 357"/>
	</vehicle>
	<vehicle depart="0.1" departLane="0" departPos="46.61680475427797" departSpeed="1.192813e-05" id="323" type="motorcycle">
		<route edges="358 391"/>
	</vehicle>
	<vehicle depart="0.1" departLane="0" departPos="70.29259173816865" departSpeed="0.0" id="30" type="truck">
		<route edges="358 391"/>
	</vehicle>
	<vehicle depart="0.1" departLane="0" departPos="111.69251977755756" departSpeed="15.280074" id="339" type="truck">
		<route edges="308 361"/>
	</vehicle>
</routes>
