<!-- generated on 2020-12-18 16:19:38.550515 by ipykernel_launcher.py v1_2_0+5214-53edc58fcd
-->
<tlLogics/>
