<!-- generated on 2020-12-18 15:45:37.900419 by ipykernel_launcher.py v1_2_0+5214-53edc58fcd
-->
<nodes>
	<node id="1" type="from" x="-26.718740000000004" y="25.47926"/>
	<node id="2" type="to" x="43.96011" y="-39.355579999999996"/>
	<node id="3" type="to" x="92.70254166666666" y="-84.38395833333334"/>
	<node id="4" type="from" x="-38.03725" y="13.346"/>
</nodes>
