<routes>
	<vehicle depart="0.1" departLane="0" departPos="61.770633829292684" departSpeed="15.632" id="290" type="passenger">
		<route edges="12 8"/>
	</vehicle>
	<vehicle depart="0.1" departLane="0" departPos="68.45474496274575" departSpeed="16.7582" id="296" type="passenger">
		<route edges="9 8"/>
	</vehicle>
	<vehicle depart="0.1" departLane="1" departPos="41.18710075666324" departSpeed="15.1463" id="300" type="passenger">
		<route edges="12 8"/>
	</vehicle>
	<vehicle depart="0.1" departLane="2" departPos="74.82873816485815" departSpeed="11.9647" id="301" type="passenger">
		<route edges="12 8"/>
	</vehicle>
	<vehicle depart="0.1" departLane="3" departPos="67.64456406460157" departSpeed="13.9356" id="304" type="passenger">
		<route edges="12 8"/>
	</vehicle>
	<vehicle depart="0.1" departLane="2" departPos="66.64666042767563" departSpeed="10.2775" id="305" type="passenger">
		<route edges="12 8"/>
	</vehicle>
	<vehicle depart="0.1" departLane="0" departPos="42.43659195015088" departSpeed="17.4954" id="306" type="passenger">
		<route edges="12 8"/>
	</vehicle>
	<vehicle depart="0.1" departLane="3" departPos="52.94596900701137" departSpeed="11.8468" id="311" type="passenger">
		<route edges="12 8"/>
	</vehicle>
	<vehicle depart="0.1" departLane="2" departPos="50.08570703180626" departSpeed="11.6032" id="319" type="passenger">
		<route edges="12 8"/>
	</vehicle>
	<vehicle depart="0.1" departLane="4" departPos="53.92338127426203" departSpeed="10.9339" id="322" type="passenger">
		<route edges="12 8"/>
	</vehicle>
	<vehicle depart="0.1" departLane="2" departPos="23.751776924265886" departSpeed="11.0959" id="324" type="passenger">
		<route edges="12 8"/>
	</vehicle>
	<vehicle depart="0.1" departLane="3" departPos="0" departSpeed="12.2318" id="376" type="passenger">
		<route edges="12 12 8"/>
	</vehicle>
</routes>
