<routes>
	<vehicle depart="0.1" departLane="0" departPos="4.640117389249291" departSpeed="0.084115758" id="34" type="passenger">
		<route edges=":27_4 21393"/>
	</vehicle>
	<vehicle depart="0.1" departLane="0" departPos="16.590244381246954" departSpeed="3.7874216" id="35" type="passenger">
		<route edges=":25_0 21011"/>
	</vehicle>
	<vehicle depart="0.1" departLane="0" departPos="18.539944500860052" departSpeed="2.9804402" id="38" type="passenger">
		<route edges=":27_6 21397"/>
	</vehicle>
	<vehicle depart="0.1" departLane="0" departPos="6.299428887849795" departSpeed="4.1802253" id="316" type="passenger">
		<route edges="21011 21013 22011"/>
	</vehicle>
	<vehicle depart="0.1" departLane="0" departPos="27.097506480026894" departSpeed="5.5156417" id="319" type="passenger">
		<route edges=":25_0 21011 21013"/>
	</vehicle>
	<vehicle depart="0.1" departLane="0" departPos="32.17405084576461" departSpeed="3.5329528" id="323" type="passenger">
		<route edges="21009 21011"/>
	</vehicle>
	<vehicle depart="0.1" departLane="0" departPos="6.495567453476398" departSpeed="10.635144" id="333" type="passenger">
		<route edges="21397"/>
	</vehicle>
</routes>
