<routes>
	<vehicle depart="0.1" departLane="0" departPos="5.1564778659088555" departSpeed="6.9190253" id="314" type="bicycle">
		<route edges=":28_0 216 218"/>
	</vehicle>
	<vehicle depart="0.1" departLane="0" departPos="36.416658812431734" departSpeed="6.8981924" id="322" type="bicycle">
		<route edges="218 220"/>
	</vehicle>
	<vehicle depart="0.1" departLane="0" departPos="63.06179632386301" departSpeed="7.2979743" id="334" type="bus">
		<route edges="226 208 210"/>
	</vehicle>
	<vehicle depart="0.1" departLane="0" departPos="48.421394733056594" departSpeed="0.0" id="31" type="passenger">
		<route edges="206 208"/>
	</vehicle>
	<vehicle depart="0.1" departLane="0" departPos="40.019824280445924" departSpeed="0.0" id="35" type="passenger">
		<route edges="206 208"/>
	</vehicle>
	<vehicle depart="0.1" departLane="0" departPos="32.329906907855104" departSpeed="0.0" id="36" type="passenger">
		<route edges="206 208"/>
	</vehicle>
	<vehicle depart="0.1" departLane="0" departPos="28.29731571403723" departSpeed="0.0" id="37" type="passenger">
		<route edges="216 218"/>
	</vehicle>
	<vehicle depart="0.1" departLane="0" departPos="20.938938633602255" departSpeed="0.28368797" id="313" type="passenger">
		<route edges="216 218"/>
	</vehicle>
	<vehicle depart="0.1" departLane="0" departPos="9.51055655600079" departSpeed="0.00056964431" id="316" type="passenger">
		<route edges="206 208"/>
	</vehicle>
	<vehicle depart="0.1" departLane="0" departPos="10.678655865746391" departSpeed="0.0028017869" id="317" type="passenger">
		<route edges="1332 206"/>
	</vehicle>
	<vehicle depart="0.1" departLane="0" departPos="12.148810014890346" departSpeed="1.4227173" id="318" type="passenger">
		<route edges="216 218"/>
	</vehicle>
	<vehicle depart="0.1" departLane="0" departPos="23.81786746803413" departSpeed="12.698778" id="319" type="passenger">
		<route edges="222"/>
	</vehicle>
	<vehicle depart="0.1" departLane="0" departPos="33.109259304165185" departSpeed="19.849606" id="321" type="passenger">
		<route edges="210"/>
	</vehicle>
	<vehicle depart="0.1" departLane="0" departPos="5.611675009913839" departSpeed="6.4374871" id="324" type="passenger">
		<route edges=":28_0 216 218"/>
	</vehicle>
	<vehicle depart="0.1" departLane="0" departPos="27.949052666281965" departSpeed="11.760259" id="326" type="passenger">
		<route edges="208 210"/>
	</vehicle>
	<vehicle depart="0.1" departLane="0" departPos="10.770984053670016" departSpeed="9.8523462" id="328" type="passenger">
		<route edges="208 210"/>
	</vehicle>
	<vehicle depart="0.1" departLane="0" departPos="15.55252598648965" departSpeed="9.5368559" id="332" type="passenger">
		<route edges="218 220"/>
	</vehicle>
	<vehicle depart="0.1" departLane="0" departPos="6.054079094298912" departSpeed="4.3712368" id="335" type="passenger">
		<route edges=":30_0 218 220"/>
	</vehicle>
	<vehicle depart="0.1" departLane="0" departPos="41.37903439779808" departSpeed="6.9275638" id="336" type="passenger">
		<route edges="226 208 210"/>
	</vehicle>
	<vehicle depart="0.1" departLane="0" departPos="13.05447318334089" departSpeed="4.6459223" id="338" type="passenger">
		<route edges="1910 757 218 220"/>
	</vehicle>
	<vehicle depart="0.1" departLane="0" departPos="27.775970105800592" departSpeed="6.5938757" id="339" type="passenger">
		<route edges="226 208 210"/>
	</vehicle>
	<vehicle depart="0.1" departLane="0" departPos="15.881311287660012" departSpeed="5.4472663" id="341" type="passenger">
		<route edges="226 208"/>
	</vehicle>
	<vehicle depart="0.1" departLane="0" departPos="11.905630574231663" departSpeed="4.1071792" id="343" type="passenger">
		<route edges="760 1910 757 218 220"/>
	</vehicle>
	<vehicle depart="0.1" departLane="0" departPos="6.779911918862248" departSpeed="2.8312912" id="344" type="passenger">
		<route edges="226 208"/>
	</vehicle>
	<vehicle depart="0.1" departLane="0" departPos="14.292820963748044" departSpeed="9.5144808e-05" id="311" type="motorcycle">
		<route edges="206 208"/>
	</vehicle>
	<vehicle depart="0.1" departLane="0" departPos="5.58698572051058" departSpeed="7.4442645" id="330" type="motorcycle">
		<route edges=":29_1 208 210"/>
	</vehicle>
	<vehicle depart="0.1" departLane="0" departPos="1.25" departSpeed="4.7063589" id="340" type="motorcycle">
		<route edges="1910 757 218 220"/>
	</vehicle>
	<vehicle depart="0.1" departLane="0" departPos="24.645020010171987" departSpeed="0.0" id="38" type="truck">
		<route edges="206 208"/>
	</vehicle>
</routes>
