<!-- generated on Wed Feb 10 12:34:42 2021 by Eclipse SUMO netconvert Version 1.8.0
<configuration xmlns:xsi="http://www.w3.org/2001/XMLSchema-instance" xsi:noNamespaceSchemaLocation="http://sumo.dlr.de/xsd/netconvertConfiguration.xsd">

    <input>
        <node-files value="./converted_scenarios/SUMO/DEU_Flensburg-84_1_I-1-1/DEU_Flensburg-84_1_I-1-1.nod.xml"/>
        <edge-files value="./converted_scenarios/SUMO/DEU_Flensburg-84_1_I-1-1/DEU_Flensburg-84_1_I-1-1.edg.xml"/>
        <connection-files value="./converted_scenarios/SUMO/DEU_Flensburg-84_1_I-1-1/DEU_Flensburg-84_1_I-1-1.con.xml"/>
        <tllogic-files value="./converted_scenarios/SUMO/DEU_Flensburg-84_1_I-1-1/DEU_Flensburg-84_1_I-1-1.tll.xml"/>
        <type-files value="/home/zen/commonroad-interactive-benchmarks/install/commonroad-map-tool/crmapconverter/sumo_map/templates/DEU.typ.xml"/>
    </input>

    <output>
        <output-file value="./converted_scenarios/SUMO/DEU_Flensburg-84_1_I-1-1/DEU_Flensburg-84_1_I-1-1.net.xml"/>
    </output>

    <processing>
        <geometry.remove.keep-edges.explicit value="true"/>
        <geometry.avoid-overlap value="true"/>
        <offset.disable-normalization value="true"/>
    </processing>

    <junctions>
        <no-turnarounds value="true"/>
        <junctions.internal-link-detail value="20"/>
    </junctions>

    <report>
        <aggregate-warnings value="5"/>
    </report>

    <random_number>
        <seed value="1234"/>
    </random_number>

</configuration>
--><net xmlns:xsi="http://www.w3.org/2001/XMLSchema-instance" version="1.6" junctionCornerDetail="5" junctionLinkDetail="20" limitTurnSpeed="5.50" xsi:noNamespaceSchemaLocation="http://sumo.dlr.de/xsd/net_file.xsd">

    <location netOffset="0.00,0.00" convBoundary="121.39,528.38,348.47,745.30" origBoundary="121.39,528.38,348.47,745.30" projParameter="!"/>

    <type id="highway.bridleway" priority="1" speed="2.78" allow="pedestrian" oneway="1" width="2.00"/>
    <type id="highway.bus_guideway" priority="1" speed="27.78" allow="bus" oneway="1"/>
    <type id="highway.cycleway" priority="1" speed="8.33" allow="bicycle" oneway="0" width="1.00"/>
    <type id="highway.footway" priority="1" speed="2.78" allow="pedestrian" oneway="1" width="2.00"/>
    <type id="highway.ford" priority="1" speed="2.78" allow="army" oneway="0"/>
    <type id="highway.living_street" priority="2" speed="2.78" disallow="tram rail_urban rail rail_electric rail_fast ship" oneway="0"/>
    <type id="highway.motorway" priority="14" speed="39.44" allow="private emergency authority army vip passenger hov taxi bus coach delivery truck trailer motorcycle evehicle custom1 custom2" oneway="1"/>
    <type id="highway.motorway_link" priority="9" speed="22.22" allow="private emergency authority army vip passenger hov taxi bus coach delivery truck trailer motorcycle evehicle custom1 custom2" oneway="1"/>
    <type id="highway.path" priority="1" speed="2.78" allow="pedestrian bicycle" oneway="0" width="2.00"/>
    <type id="highway.pedestrian" priority="1" speed="2.78" allow="pedestrian" oneway="1" width="2.00"/>
    <type id="highway.primary" priority="12" speed="27.78" disallow="pedestrian tram rail_urban rail rail_electric rail_fast ship" oneway="0"/>
    <type id="highway.primary_link" priority="7" speed="22.22" disallow="pedestrian tram rail_urban rail rail_electric rail_fast ship" oneway="0"/>
    <type id="highway.raceway" priority="15" speed="83.33" allow="vip" oneway="0"/>
    <type id="highway.residential" priority="3" speed="13.89" disallow="pedestrian tram rail_urban rail rail_electric rail_fast ship" oneway="0"/>
    <type id="highway.secondary" priority="11" speed="27.78" disallow="pedestrian tram rail_urban rail rail_electric rail_fast ship" oneway="0"/>
    <type id="highway.secondary_link" priority="6" speed="22.22" disallow="pedestrian tram rail_urban rail rail_electric rail_fast ship" oneway="0"/>
    <type id="highway.service" priority="1" speed="5.56" allow="pedestrian delivery bicycle" oneway="0"/>
    <type id="highway.stairs" priority="1" speed="1.39" allow="pedestrian" oneway="1" width="2.00"/>
    <type id="highway.step" priority="1" speed="1.39" allow="pedestrian" oneway="1" width="2.00"/>
    <type id="highway.steps" priority="1" speed="1.39" allow="pedestrian" oneway="1" width="2.00"/>
    <type id="highway.tertiary" priority="10" speed="22.22" disallow="pedestrian tram rail_urban rail rail_electric rail_fast ship" oneway="0"/>
    <type id="highway.tertiary_link" priority="5" speed="22.22" disallow="pedestrian tram rail_urban rail rail_electric rail_fast ship" oneway="0"/>
    <type id="highway.track" priority="1" speed="5.56" allow="pedestrian motorcycle moped bicycle" oneway="0"/>
    <type id="highway.trunk" priority="13" speed="27.78" disallow="pedestrian bicycle tram rail_urban rail rail_electric rail_fast ship" oneway="0"/>
    <type id="highway.trunk_link" priority="8" speed="22.22" disallow="pedestrian bicycle tram rail_urban rail rail_electric rail_fast ship" oneway="0"/>
    <type id="highway.unclassified" priority="4" speed="13.89" disallow="pedestrian tram rail_urban rail rail_electric rail_fast ship" oneway="0"/>
    <type id="highway.unsurfaced" priority="1" speed="8.33" disallow="tram rail_urban rail rail_electric rail_fast ship" oneway="0"/>
    <type id="railway.highspeed" priority="21" speed="69.44" allow="rail_fast" oneway="1"/>
    <type id="railway.light_rail" priority="19" speed="27.78" allow="rail_urban" oneway="1"/>
    <type id="railway.preserved" priority="16" speed="27.78" allow="rail" oneway="1"/>
    <type id="railway.rail" priority="20" speed="44.44" allow="rail" oneway="1"/>
    <type id="railway.subway" priority="18" speed="27.78" allow="rail_urban" oneway="1"/>
    <type id="railway.tram" priority="17" speed="13.89" allow="tram" oneway="1"/>

    <edge id=":49_0" function="internal">
        <lane id=":49_0_0" index="0" disallow="pedestrian tram rail_urban rail rail_electric rail_fast ship" speed="7.67" length="11.38" width="3.49" shape="279.02,713.73 277.44,713.69 275.95,713.82 274.55,714.18 273.74,714.54 273.01,715.01 272.37,715.57 271.54,716.65 270.94,717.93 270.53,719.35"/>
    </edge>
    <edge id=":49_1" function="internal">
        <lane id=":49_1_0" index="0" disallow="pedestrian tram rail_urban rail rail_electric rail_fast ship" speed="36.11" length="16.89" width="3.50" shape="279.02,713.73 272.41,713.05 262.27,711.58"/>
    </edge>
    <edge id=":49_2" function="internal">
        <lane id=":49_2_0" index="0" disallow="pedestrian tram rail_urban rail rail_electric rail_fast ship" speed="8.50" length="16.85" width="3.50" shape="279.02,713.73 277.60,713.56 275.59,713.06 274.20,712.47 272.93,711.64 271.78,710.51 270.94,709.21 270.37,707.78 270.06,706.32 269.96,704.24 270.14,702.20"/>
    </edge>
    <edge id=":49_3" function="internal">
        <lane id=":49_3_0" index="0" disallow="pedestrian tram rail_urban rail rail_electric rail_fast ship" speed="6.99" length="11.01" width="3.50" shape="273.61,702.66 273.48,704.15 273.54,705.58 273.73,706.51 274.07,707.40 274.58,708.20 275.24,708.88 276.04,709.40 276.91,709.78 278.30,710.12 279.24,710.24"/>
    </edge>
    <edge id=":49_4" function="internal">
        <lane id=":49_4_0" index="0" disallow="pedestrian tram rail_urban rail rail_electric rail_fast ship" speed="36.11" length="16.97" width="3.49" shape="273.61,702.66 271.97,712.32 270.53,719.35"/>
    </edge>
    <edge id=":49_5" function="internal">
        <lane id=":49_5_0" index="0" disallow="pedestrian tram rail_urban rail rail_electric rail_fast ship" speed="8.54" length="16.58" width="3.50" shape="273.62,702.66 273.16,704.84 272.45,706.87 271.77,708.14 270.91,709.28 269.84,710.25 268.61,710.99 267.26,711.47 265.84,711.72 263.69,711.74 262.27,711.58"/>
    </edge>
    <edge id=":49_6" function="internal">
        <lane id=":49_6_0" index="0" disallow="pedestrian tram rail_urban rail rail_electric rail_fast ship" speed="7.05" length="10.91" width="3.50" shape="262.82,708.12 263.80,708.24 265.32,708.23 266.20,708.06 267.02,707.77 267.73,707.33 268.37,706.74 268.90,706.02 269.32,705.20 269.83,703.75 270.14,702.20"/>
    </edge>
    <edge id=":49_7" function="internal">
        <lane id=":49_7_0" index="0" disallow="pedestrian tram rail_urban rail rail_electric rail_fast ship" speed="36.11" length="16.56" width="3.50" shape="262.82,708.12 272.83,709.57 279.24,710.24"/>
    </edge>
    <edge id=":49_8" function="internal">
        <lane id=":49_8_0" index="0" disallow="pedestrian tram rail_urban rail rail_electric rail_fast ship" speed="8.25" length="15.69" width="3.49" shape="262.82,708.12 264.77,708.57 266.67,709.33 267.93,710.11 269.04,711.15 269.92,712.42 270.50,713.83 270.80,715.30 270.82,717.36 270.53,719.35"/>
    </edge>
    <edge id=":49_9" function="internal">
        <lane id=":49_9_0" index="0" disallow="pedestrian tram rail_urban rail rail_electric rail_fast ship" speed="6.69" length="9.89" width="3.50" shape="267.11,718.60 267.31,717.26 267.29,715.91 267.12,715.03 266.77,714.19 266.26,713.46 265.60,712.85 264.83,712.38 263.58,711.88 262.27,711.58"/>
    </edge>
    <edge id=":49_10" function="internal">
        <lane id=":49_10_0" index="0" disallow="pedestrian tram rail_urban rail rail_electric rail_fast ship" speed="36.11" length="16.68" width="3.50" shape="267.11,718.60 268.53,711.67 270.14,702.20"/>
    </edge>
    <edge id=":49_11" function="internal">
        <lane id=":49_11_0" index="0" disallow="pedestrian tram rail_urban rail rail_electric rail_fast ship" speed="9.09" length="16.39" width="3.50" shape="267.11,718.60 267.69,716.63 268.56,714.77 269.77,713.13 270.79,712.21 271.93,711.47 273.18,710.91 275.16,710.39 277.20,710.19 279.24,710.24"/>
    </edge>
    <edge id=":50_0" function="internal">
        <lane id=":50_0_0" index="0" disallow="pedestrian tram rail_urban rail rail_electric rail_fast ship" speed="8.11" length="10.90" width="3.50" shape="186.18,576.35 185.16,575.27 184.06,574.47 182.82,573.94 181.49,573.69 180.14,573.73 178.81,573.98 177.11,574.57 176.33,574.90"/>
    </edge>
    <edge id=":50_1" function="internal">
        <lane id=":50_1_0" index="0" disallow="pedestrian tram rail_urban rail rail_electric rail_fast ship" speed="36.11" length="16.62" width="3.50" shape="186.18,576.35 183.79,573.31 180.09,568.13 176.67,562.73"/>
    </edge>
    <edge id=":50_2" function="internal">
        <lane id=":50_2_0" index="0" disallow="pedestrian tram rail_urban rail rail_electric rail_fast ship" speed="36.11" length="16.05" width="3.49" shape="179.67,560.93 182.99,566.17 186.59,571.20 188.85,574.08"/>
    </edge>
    <edge id=":50_3" function="internal">
        <lane id=":50_3_0" index="0" disallow="pedestrian tram rail_urban rail rail_electric rail_fast ship" speed="8.27" length="16.98" width="3.50" shape="179.67,560.93 180.74,562.94 181.55,565.06 181.88,566.53 181.98,568.03 181.77,569.52 181.22,570.92 180.36,572.15 179.27,573.19 177.37,574.42 176.33,574.90"/>
    </edge>
    <edge id=":50_4" function="internal">
        <lane id=":50_4_0" index="0" disallow="pedestrian tram rail_urban rail rail_electric rail_fast ship" speed="6.74" length="10.80" width="3.50" shape="175.04,571.65 175.71,571.33 176.20,571.05 176.67,570.74 177.11,570.39 177.50,569.99 177.83,569.54 178.09,569.05 178.26,568.52 178.35,567.97 178.36,567.41 178.31,566.86 178.21,566.31 178.07,565.77 177.89,565.24 177.69,564.72 177.46,564.21 177.21,563.71 176.95,563.21 176.67,562.73"/>
    </edge>
    <edge id=":50_5" function="internal">
        <lane id=":50_5_0" index="0" disallow="pedestrian tram rail_urban rail rail_electric rail_fast ship" speed="9.47" length="15.27" width="3.49" shape="175.04,571.65 175.83,571.31 178.12,570.53 180.03,570.19 182.02,570.19 184.00,570.61 185.85,571.44 187.46,572.63 188.85,574.08"/>
    </edge>
    <edge id=":51_0" function="internal">
        <lane id=":51_0_0" index="0" disallow="pedestrian tram rail_urban rail rail_electric rail_fast ship" speed="36.11" length="16.43" width="3.50" shape="293.14,647.89 292.27,660.27 291.88,664.27"/>
    </edge>
    <edge id=":51_1" function="internal">
        <lane id=":51_1_0" index="0" disallow="pedestrian tram rail_urban rail rail_electric rail_fast ship" speed="8.74" length="16.22" width="3.50" shape="293.14,647.89 292.88,649.89 292.28,651.88 291.60,653.21 290.69,654.40 289.58,655.41 288.29,656.20 286.33,656.94 284.32,657.31 282.34,657.41"/>
    </edge>
    <edge id=":51_2" function="internal">
        <lane id=":51_2_0" index="0" disallow="pedestrian tram rail_urban rail rail_electric rail_fast ship" speed="7.27" length="10.87" width="3.50" shape="282.35,653.92 283.78,653.84 285.18,653.60 286.50,653.11 287.31,652.63 288.02,652.01 288.61,651.26 289.05,650.43 289.46,649.08 289.65,647.67"/>
    </edge>
    <edge id=":51_3" function="internal">
        <lane id=":51_3_0" index="0" disallow="pedestrian tram rail_urban rail rail_electric rail_fast ship" speed="8.31" length="16.54" width="3.50" shape="282.35,653.92 284.61,654.07 286.82,654.55 288.20,655.13 289.45,655.96 290.48,657.05 291.24,658.35 291.70,659.78 291.94,661.27 291.95,663.52 291.88,664.27"/>
    </edge>
    <edge id=":51_4" function="internal">
        <lane id=":51_4_0" index="0" disallow="pedestrian tram rail_urban rail rail_electric rail_fast ship" speed="6.78" length="10.60" width="3.50" shape="288.40,663.91 288.45,663.36 288.47,662.80 288.47,662.24 288.44,661.68 288.36,661.13 288.23,660.59 288.06,660.06 287.81,659.56 287.49,659.11 287.09,658.71 286.64,658.38 286.15,658.11 285.64,657.90 285.10,657.74 284.56,657.61 284.01,657.52 283.45,657.46 282.90,657.43 282.34,657.41"/>
    </edge>
    <edge id=":51_5" function="internal">
        <lane id=":51_5_0" index="0" disallow="pedestrian tram rail_urban rail rail_electric rail_fast ship" speed="36.11" length="16.29" width="3.50" shape="288.40,663.91 288.79,659.92 289.65,647.67"/>
    </edge>
    <edge id=":52_0" function="internal">
        <lane id=":52_0_0" index="0" disallow="pedestrian tram rail_urban rail rail_electric rail_fast ship" speed="36.11" length="18.48" width="3.50" shape="260.71,639.90 258.10,635.63 254.40,630.29 250.11,624.79"/>
    </edge>
    <edge id=":52_1" function="internal">
        <lane id=":52_1_0" index="0" disallow="pedestrian tram rail_urban rail rail_electric rail_fast ship" speed="8.06" length="19.65" width="3.50" shape="260.71,639.90 259.47,637.50 258.56,634.98 258.27,633.22 258.27,632.33 258.41,631.45 258.74,630.62 259.22,629.87 259.85,629.24 260.58,628.73 262.22,628.03 263.97,627.64 266.64,627.41 267.52,627.40"/>
    </edge>
    <edge id=":52_2" function="internal">
        <lane id=":52_2_0" index="0" disallow="pedestrian tram rail_urban rail rail_electric rail_fast ship" speed="6.42" length="11.88" width="3.50" shape="267.57,630.90 266.89,630.91 266.26,630.93 265.64,630.98 265.03,631.06 264.42,631.18 263.81,631.34 263.23,631.55 262.70,631.88 262.29,632.34 262.06,632.92 262.03,633.54 262.10,634.16 262.23,634.77 262.42,635.36 262.64,635.94 262.89,636.51 263.16,637.07 263.45,637.62 263.75,638.17"/>
    </edge>
    <edge id=":52_3" function="internal">
        <lane id=":52_3_0" index="0" disallow="pedestrian tram rail_urban rail rail_electric rail_fast ship" speed="13.16" length="19.08" width="3.50" shape="267.57,630.90 264.74,630.80 261.42,630.43 258.63,629.85 255.91,628.93 253.79,627.87 251.82,626.49 250.11,624.79"/>
    </edge>
    <edge id=":52_4" function="internal">
        <lane id=":52_4_0" index="0" disallow="pedestrian tram rail_urban rail rail_electric rail_fast ship" speed="12.07" length="16.00" width="3.50" shape="252.78,622.53 254.16,623.90 255.77,624.98 257.52,625.81 259.83,626.55 262.21,627.02 265.10,627.32 267.52,627.40"/>
    </edge>
    <edge id=":52_5" function="internal">
        <lane id=":52_5_0" index="0" disallow="pedestrian tram rail_urban rail rail_electric rail_fast ship" speed="36.11" length="19.12" width="3.50" shape="252.78,622.53 257.22,628.22 261.04,633.74 263.75,638.17"/>
    </edge>
    <edge id=":53_0" function="internal">
        <lane id=":53_0_0" index="0" disallow="pedestrian tram rail_urban rail rail_electric rail_fast ship" speed="6.81" length="10.70" width="3.50" shape="278.85,657.61 278.00,657.74 276.55,658.15 275.76,658.54 275.08,659.03 274.55,659.64 274.16,660.38 273.91,661.21 273.80,662.13 273.83,663.67 274.09,665.28"/>
    </edge>
    <edge id=":53_1" function="internal">
        <lane id=":53_1_0" index="0" disallow="pedestrian tram rail_urban rail rail_electric rail_fast ship" speed="9.79" length="16.25" width="3.50" shape="278.85,657.60 276.48,657.69 274.54,657.48 272.61,656.98 270.78,656.13 269.13,654.94 267.76,653.47 266.67,651.83 265.84,650.12"/>
    </edge>
    <edge id=":53_2" function="internal">
        <lane id=":53_2_0" index="0" disallow="pedestrian tram rail_urban rail rail_electric rail_fast ship" speed="8.45" length="11.90" width="3.50" shape="269.08,648.78 269.70,650.07 270.48,651.25 271.46,652.29 272.62,653.11 273.92,653.70 275.30,654.05 276.72,654.19 278.64,654.11"/>
    </edge>
    <edge id=":53_3" function="internal">
        <lane id=":53_3_0" index="0" disallow="pedestrian tram rail_urban rail rail_electric rail_fast ship" speed="36.11" length="17.26" width="3.50" shape="269.08,648.78 271.07,654.16 272.74,659.65 274.09,665.28"/>
    </edge>
    <edge id=":53_4" function="internal">
        <lane id=":53_4_0" index="0" disallow="pedestrian tram rail_urban rail rail_electric rail_fast ship" speed="36.11" length="16.58" width="3.50" shape="270.65,665.96 269.37,660.57 267.76,655.28 265.84,650.12"/>
    </edge>
    <edge id=":53_5" function="internal">
        <lane id=":53_5_0" index="0" disallow="pedestrian tram rail_urban rail rail_electric rail_fast ship" speed="8.36" length="16.78" width="3.50" shape="270.65,665.96 270.32,663.78 270.28,661.60 270.48,660.15 270.92,658.77 271.62,657.50 272.59,656.41 273.76,655.56 275.07,654.93 277.17,654.33 278.64,654.11"/>
    </edge>

    <edge id="542" from="51" to="53" priority="3" type="highway.residential" spreadType="center" length="3.50" shape="288.09,657.59 272.81,658.72">
        <lane id="542_0" index="0" disallow="pedestrian tram rail_urban rail rail_electric rail_fast ship" speed="36.11" length="3.50" width="3.50" customShape="1" shape="282.34,657.41 281.83,657.41 278.85,657.60"/>
    </edge>
    <edge id="543" from="53" to="51" priority="3" type="highway.residential" spreadType="center" length="3.73" shape="272.55,655.26 287.83,654.11">
        <lane id="543_0" index="0" disallow="pedestrian tram rail_urban rail rail_electric rail_fast ship" speed="36.11" length="3.73" width="3.50" customShape="1" shape="278.64,654.11 281.79,653.92 282.36,653.92"/>
    </edge>
    <edge id="545" from="48" to="49" priority="3" type="highway.residential" spreadType="center" length="9.09" shape="253.84,706.68 271.01,709.12">
        <lane id="545_0" index="0" disallow="pedestrian tram rail_urban rail rail_electric rail_fast ship" speed="36.11" length="9.09" width="3.50" customShape="1" shape="253.84,706.68 258.31,707.40 262.82,708.12"/>
    </edge>
    <edge id="546" from="49" to="25" priority="3" type="highway.residential" spreadType="center" length="9.13" shape="270.52,712.56 253.26,710.13">
        <lane id="546_0" index="0" disallow="pedestrian tram rail_urban rail rail_electric rail_fast ship" speed="36.11" length="9.13" width="3.50" customShape="1" shape="262.27,711.58 257.76,710.85 253.26,710.13"/>
    </edge>
    <edge id="560" from="49" to="28" priority="3" type="highway.residential" spreadType="center" length="70.01" shape="270.76,709.08 348.47,718.37">
        <lane id="560_0" index="0" disallow="pedestrian tram rail_urban rail rail_electric rail_fast ship" speed="36.11" length="70.01" width="3.50" customShape="1" shape="279.24,710.24 285.26,710.63 303.41,711.32 315.07,711.90 323.20,712.63 330.30,713.63 336.85,714.92 342.81,716.49 348.20,718.26 348.47,718.37"/>
    </edge>
    <edge id="561" from="31" to="49" priority="3" type="highway.residential" spreadType="center" length="70.01" shape="348.16,722.01 270.34,712.55">
        <lane id="561_0" index="0" disallow="pedestrian tram rail_urban rail rail_electric rail_fast ship" speed="36.11" length="70.01" width="3.50" customShape="1" shape="348.16,722.01 347.00,721.55 341.83,719.84 336.07,718.33 329.72,717.08 322.81,716.11 314.83,715.39 303.27,714.82 285.07,714.12 278.97,713.73"/>
    </edge>
    <edge id="563" from="51" to="30" priority="3" type="highway.residential" spreadType="center" length="49.16" shape="286.58,654.78 321.40,612.44">
        <lane id="563_0" index="0" disallow="pedestrian tram rail_urban rail rail_electric rail_fast ship" speed="36.11" length="49.16" width="3.50" customShape="1" shape="289.65,647.67 289.72,646.62 290.06,643.88 290.61,641.67 291.47,639.52 292.82,637.11 294.95,634.05 297.37,631.23 300.39,628.31 304.42,625.03 311.49,619.98 317.58,615.58 321.40,612.44"/>
    </edge>
    <edge id="564" from="38" to="51" priority="3" type="highway.residential" spreadType="center" length="46.39" shape="323.67,615.10 289.28,657.00">
        <lane id="564_0" index="0" disallow="pedestrian tram rail_urban rail rail_electric rail_fast ship" speed="36.11" length="46.39" width="3.50" customShape="1" shape="323.67,615.10 319.72,618.36 313.51,622.84 306.54,627.81 302.72,630.92 299.92,633.63 297.72,636.19 295.79,638.95 294.63,641.01 293.95,642.71 293.51,644.50 293.20,646.90 293.14,647.92"/>
    </edge>
    <edge id="566" from="41" to="51" priority="3" type="highway.residential" spreadType="center" length="34.30" shape="284.64,697.98 286.22,655.71">
        <lane id="566_0" index="0" disallow="pedestrian tram rail_urban rail rail_electric rail_fast ship" speed="36.11" length="34.30" width="3.50" customShape="1" shape="284.64,697.98 286.52,680.93 288.40,663.89"/>
    </edge>
    <edge id="567" from="51" to="27" priority="3" type="highway.residential" spreadType="center" length="34.30" shape="289.71,655.84 288.12,698.36">
        <lane id="567_0" index="0" disallow="pedestrian tram rail_urban rail rail_electric rail_fast ship" speed="36.11" length="34.30" width="3.50" customShape="1" shape="291.88,664.27 290.00,681.32 288.12,698.36"/>
    </edge>
    <edge id="569" from="44" to="52" priority="3" type="highway.residential" spreadType="center" length="70.00" shape="304.76,587.05 261.62,631.86">
        <lane id="569_0" index="0" disallow="pedestrian tram rail_urban rail rail_electric rail_fast ship" speed="36.11" length="70.00" width="3.50" customShape="1" shape="304.76,587.05 305.52,593.40 305.92,598.58 305.91,602.80 305.54,606.51 304.90,609.67 303.92,612.76 302.82,615.28 301.44,617.69 299.81,619.93 297.58,622.36 295.12,624.53 292.05,626.73 288.35,628.89 286.66,629.59 284.92,629.98 280.75,630.40 275.13,630.79 267.51,630.90"/>
    </edge>
    <edge id="570" from="52" to="3" priority="3" type="highway.residential" spreadType="center" length="70.00" shape="259.04,629.51 300.58,581.59">
        <lane id="570_0" index="0" disallow="pedestrian tram rail_urban rail rail_electric rail_fast ship" speed="36.11" length="70.00" width="3.50" customShape="1" shape="267.52,627.40 274.98,627.30 280.42,626.92 284.35,626.53 285.58,626.26 286.75,625.79 290.14,623.80 292.94,621.79 295.13,619.87 297.09,617.73 298.50,615.80 299.69,613.73 300.65,611.54 301.51,608.81 302.08,606.00 302.42,602.63 302.43,598.72 302.04,593.76 300.58,581.59"/>
    </edge>
    <edge id="64" from="50" to="14" priority="3" type="highway.residential" spreadType="center" length="36.06" shape="178.86,570.60 166.45,528.54">
        <lane id="64_0" index="0" disallow="pedestrian tram rail_urban rail rail_electric rail_fast ship" speed="36.11" length="36.06" width="3.50" customShape="1" shape="176.67,562.73 176.41,562.30 173.89,557.73 172.15,553.87 170.12,548.51 168.62,543.50 167.48,538.39 166.80,533.73 166.45,528.54"/>
    </edge>
    <edge id="65" from="46" to="50" priority="3" type="highway.residential" spreadType="center" length="34.36" shape="169.95,528.38 182.21,569.61">
        <lane id="65_0" index="0" disallow="pedestrian tram rail_urban rail rail_electric rail_fast ship" speed="36.11" length="34.36" width="3.50" customShape="1" shape="169.95,528.38 170.28,533.35 170.91,537.75 172.00,542.61 173.43,547.38 175.38,552.53 177.02,556.16 179.43,560.54 179.68,560.95"/>
    </edge>
    <edge id="67" from="52" to="50" priority="3" type="highway.residential" spreadType="center" length="80.83" shape="259.37,632.03 179.46,571.43">
        <lane id="67_0" index="0" disallow="pedestrian tram rail_urban rail rail_electric rail_fast ship" speed="36.11" length="80.83" width="3.50" customShape="1" shape="250.11,624.79 248.80,623.23 246.14,620.36 243.21,617.71 239.30,614.63 234.34,611.21 228.34,607.43 222.55,604.30 215.26,600.39 207.61,595.77 203.24,592.73 198.32,588.88 194.03,585.05 190.39,581.32 186.18,576.35"/>
    </edge>
    <edge id="68" from="50" to="52" priority="3" type="highway.residential" spreadType="center" length="80.85" shape="181.57,568.65 261.48,629.24">
        <lane id="68_0" index="0" disallow="pedestrian tram rail_urban rail rail_electric rail_fast ship" speed="36.11" length="80.85" width="3.49" customShape="1" shape="188.85,574.08 192.98,578.96 196.45,582.51 200.56,586.19 205.32,589.92 209.50,592.83 216.99,597.35 224.19,601.21 230.10,604.41 236.26,608.29 241.38,611.81 245.48,615.04 248.61,617.88 251.44,620.94 252.79,622.54"/>
    </edge>
    <edge id="70" from="53" to="52" priority="3" type="highway.residential" spreadType="center" length="11.50" shape="271.34,657.82 258.82,631.36">
        <lane id="70_0" index="0" disallow="pedestrian tram rail_urban rail rail_electric rail_fast ship" speed="36.11" length="11.50" width="3.50" customShape="1" shape="265.84,650.12 265.44,649.15 263.55,645.09 260.68,639.85"/>
    </edge>
    <edge id="71" from="52" to="53" priority="3" type="highway.residential" spreadType="center" length="11.89" shape="261.98,629.87 274.50,656.32">
        <lane id="71_0" index="0" disallow="pedestrian tram rail_urban rail rail_electric rail_fast ship" speed="36.11" length="11.89" width="3.50" customShape="1" shape="263.75,638.17 266.68,643.51 268.66,647.77 269.08,648.79"/>
    </edge>
    <edge id="73" from="49" to="53" priority="3" type="highway.residential" spreadType="center" length="36.47" shape="268.84,710.74 271.13,656.84">
        <lane id="73_0" index="0" disallow="pedestrian tram rail_urban rail rail_electric rail_fast ship" speed="36.11" length="36.47" width="3.50" customShape="1" shape="270.14,702.20 270.87,696.67 271.42,689.68 271.62,681.70 271.58,673.67 271.22,669.28 270.64,665.87"/>
    </edge>
    <edge id="74" from="53" to="49" priority="3" type="highway.residential" spreadType="center" length="37.58" shape="274.63,656.99 272.33,710.89">
        <lane id="74_0" index="0" disallow="pedestrian tram rail_urban rail rail_electric rail_fast ship" speed="36.11" length="37.58" width="3.50" customShape="1" shape="274.09,665.28 274.69,668.85 275.08,673.53 275.12,681.74 274.91,689.86 274.35,697.04 273.60,702.72"/>
    </edge>
    <edge id="76" from="43" to="49" priority="3" type="highway.residential" spreadType="center" length="26.53" shape="261.44,744.52 268.90,710.36">
        <lane id="76_0" index="0" disallow="pedestrian tram rail_urban rail rail_electric rail_fast ship" speed="36.11" length="26.53" width="3.50" customShape="1" shape="261.44,744.52 264.27,731.57 267.11,718.60"/>
    </edge>
    <edge id="77" from="49" to="34" priority="3" type="highway.residential" spreadType="center" length="26.56" shape="272.31,711.10 264.85,745.30">
        <lane id="77_0" index="0" disallow="pedestrian tram rail_urban rail rail_electric rail_fast ship" speed="36.11" length="26.56" width="3.49" customShape="1" shape="270.53,719.35 267.69,732.32 264.85,745.30"/>
    </edge>
    <edge id="91" from="17" to="50" priority="3" type="highway.residential" spreadType="center" length="55.20" shape="121.39,580.50 180.21,568.32">
        <lane id="91_0" index="0" disallow="pedestrian tram rail_urban rail rail_electric rail_fast ship" speed="36.11" length="55.20" width="3.50" customShape="1" shape="121.39,580.50 124.75,579.60 137.20,575.80 145.00,573.56 150.99,572.21 156.07,571.41 160.76,571.02 163.11,571.19 169.23,572.54 171.01,572.68 172.28,572.57 173.55,572.25 175.04,571.65"/>
    </edge>
    <edge id="92" from="50" to="21" priority="3" type="highway.residential" spreadType="center" length="55.62" shape="180.92,571.74 122.28,583.88">
        <lane id="92_0" index="0" disallow="pedestrian tram rail_urban rail rail_electric rail_fast ship" speed="36.11" length="55.62" width="3.50" customShape="1" shape="176.33,574.90 174.57,575.59 172.80,576.02 170.99,576.17 168.67,575.99 162.62,574.66 160.83,574.51 156.49,574.88 151.65,575.64 145.88,576.95 138.21,579.15 125.70,582.96 122.28,583.88"/>
    </edge>

    <junction id="14" type="dead_end" x="166.45" y="528.54" incLanes="64_0" intLanes="" shape="164.71,528.66 168.20,528.43" rightOfWay="edgePriority"/>
    <junction id="17" type="dead_end" x="121.39" y="580.50" incLanes="" intLanes="" shape="121.84,582.18 120.94,578.81" rightOfWay="edgePriority"/>
    <junction id="21" type="dead_end" x="122.28" y="583.88" incLanes="92_0" intLanes="" shape="122.73,585.57 121.82,582.19" rightOfWay="edgePriority"/>
    <junction id="25" type="dead_end" x="253.26" y="710.13" incLanes="546_0" intLanes="" shape="252.98,711.85 253.54,708.40" rightOfWay="edgePriority"/>
    <junction id="27" type="dead_end" x="288.12" y="698.36" incLanes="567_0" intLanes="" shape="289.86,698.55 286.38,698.17" rightOfWay="edgePriority"/>
    <junction id="28" type="dead_end" x="348.47" y="718.37" incLanes="560_0" intLanes="" shape="349.12,716.74 347.82,719.99" rightOfWay="edgePriority"/>
    <junction id="3" type="dead_end" x="300.58" y="581.59" incLanes="570_0" intLanes="" shape="298.84,581.80 302.32,581.39" rightOfWay="edgePriority"/>