<!-- generated on Tue Feb  9 22:16:19 2021 by Eclipse SUMO netconvert Version 1.8.0
<configuration xmlns:xsi="http://www.w3.org/2001/XMLSchema-instance" xsi:noNamespaceSchemaLocation="http://sumo.dlr.de/xsd/netconvertConfiguration.xsd">

    <input>
        <node-files value="./converted_scenarios/scenario-factory/DEU_Muehlhausen-5_1_I-1-1/DEU_Muehlhausen-5_1_I-1-1.nod.xml"/>
        <edge-files value="./converted_scenarios/scenario-factory/DEU_Muehlhausen-5_1_I-1-1/DEU_Muehlhausen-5_1_I-1-1.edg.xml"/>
        <connection-files value="./converted_scenarios/scenario-factory/DEU_Muehlhausen-5_1_I-1-1/DEU_Muehlhausen-5_1_I-1-1.con.xml"/>
        <tllogic-files value="./converted_scenarios/scenario-factory/DEU_Muehlhausen-5_1_I-1-1/DEU_Muehlhausen-5_1_I-1-1.tll.xml"/>
        <type-files value="/home/zen/commonroad-interactive-benchmarks/install/commonroad-map-tool/crmapconverter/sumo_map/templates/DEU.typ.xml"/>
    </input>

    <output>
        <output-file value="./converted_scenarios/scenario-factory/DEU_Muehlhausen-5_1_I-1-1/DEU_Muehlhausen-5_1_I-1-1.net.xml"/>
    </output>

    <processing>
        <geometry.remove.keep-edges.explicit value="true"/>
        <geometry.avoid-overlap value="true"/>
        <offset.disable-normalization value="true"/>
    </processing>

    <junctions>
        <no-turnarounds value="true"/>
        <junctions.internal-link-detail value="20"/>
    </junctions>

    <report>
        <aggregate-warnings value="5"/>
    </report>

    <random_number>
        <seed value="1234"/>
    </random_number>

</configuration>
--><net xmlns:xsi="http://www.w3.org/2001/XMLSchema-instance" version="1.6" junctionCornerDetail="5" junctionLinkDetail="20" limitTurnSpeed="5.50" xsi:noNamespaceSchemaLocation="http://sumo.dlr.de/xsd/net_file.xsd">

    <location netOffset="0.00,0.00" convBoundary="-456.30,-51.99,-186.99,164.75" origBoundary="-456.30,-51.99,-186.99,164.75" projParameter="!"/>

    <type id="highway.bridleway" priority="1" speed="2.78" allow="pedestrian" oneway="1" width="2.00"/>
    <type id="highway.bus_guideway" priority="1" speed="27.78" allow="bus" oneway="1"/>
    <type id="highway.cycleway" priority="1" speed="8.33" allow="bicycle" oneway="0" width="1.00"/>
    <type id="highway.footway" priority="1" speed="2.78" allow="pedestrian" oneway="1" width="2.00"/>
    <type id="highway.ford" priority="1" speed="2.78" allow="army" oneway="0"/>
    <type id="highway.living_street" priority="2" speed="2.78" disallow="tram rail_urban rail rail_electric rail_fast ship" oneway="0"/>
    <type id="highway.motorway" priority="14" speed="39.44" allow="private emergency authority army vip passenger hov taxi bus coach delivery truck trailer motorcycle evehicle custom1 custom2" oneway="1"/>
    <type id="highway.motorway_link" priority="9" speed="22.22" allow="private emergency authority army vip passenger hov taxi bus coach delivery truck trailer motorcycle evehicle custom1 custom2" oneway="1"/>
    <type id="highway.path" priority="1" speed="2.78" allow="pedestrian bicycle" oneway="0" width="2.00"/>
    <type id="highway.pedestrian" priority="1" speed="2.78" allow="pedestrian" oneway="1" width="2.00"/>
    <type id="highway.primary" priority="12" speed="27.78" disallow="pedestrian tram rail_urban rail rail_electric rail_fast ship" oneway="0"/>
    <type id="highway.primary_link" priority="7" speed="22.22" disallow="pedestrian tram rail_urban rail rail_electric rail_fast ship" oneway="0"/>
    <type id="highway.raceway" priority="15" speed="83.33" allow="vip" oneway="0"/>
    <type id="highway.residential" priority="3" speed="13.89" disallow="pedestrian tram rail_urban rail rail_electric rail_fast ship" oneway="0"/>
    <type id="highway.secondary" priority="11" speed="27.78" disallow="pedestrian tram rail_urban rail rail_electric rail_fast ship" oneway="0"/>
    <type id="highway.secondary_link" priority="6" speed="22.22" disallow="pedestrian tram rail_urban rail rail_electric rail_fast ship" oneway="0"/>
    <type id="highway.service" priority="1" speed="5.56" allow="pedestrian delivery bicycle" oneway="0"/>
    <type id="highway.stairs" priority="1" speed="1.39" allow="pedestrian" oneway="1" width="2.00"/>
    <type id="highway.step" priority="1" speed="1.39" allow="pedestrian" oneway="1" width="2.00"/>
    <type id="highway.steps" priority="1" speed="1.39" allow="pedestrian" oneway="1" width="2.00"/>
    <type id="highway.tertiary" priority="10" speed="22.22" disallow="pedestrian tram rail_urban rail rail_electric rail_fast ship" oneway="0"/>
    <type id="highway.tertiary_link" priority="5" speed="22.22" disallow="pedestrian tram rail_urban rail rail_electric rail_fast ship" oneway="0"/>
    <type id="highway.track" priority="1" speed="5.56" allow="pedestrian motorcycle moped bicycle" oneway="0"/>
    <type id="highway.trunk" priority="13" speed="27.78" disallow="pedestrian bicycle tram rail_urban rail rail_electric rail_fast ship" oneway="0"/>
    <type id="highway.trunk_link" priority="8" speed="22.22" disallow="pedestrian bicycle tram rail_urban rail rail_electric rail_fast ship" oneway="0"/>
    <type id="highway.unclassified" priority="4" speed="13.89" disallow="pedestrian tram rail_urban rail rail_electric rail_fast ship" oneway="0"/>
    <type id="highway.unsurfaced" priority="1" speed="8.33" disallow="tram rail_urban rail rail_electric rail_fast ship" oneway="0"/>
    <type id="railway.highspeed" priority="21" speed="69.44" allow="rail_fast" oneway="1"/>
    <type id="railway.light_rail" priority="19" speed="27.78" allow="rail_urban" oneway="1"/>
    <type id="railway.preserved" priority="16" speed="27.78" allow="rail" oneway="1"/>
    <type id="railway.rail" priority="20" speed="44.44" allow="rail" oneway="1"/>
    <type id="railway.subway" priority="18" speed="27.78" allow="rail_urban" oneway="1"/>
    <type id="railway.tram" priority="17" speed="13.89" allow="tram" oneway="1"/>

    <edge id=":53_0" function="internal">
        <lane id=":53_0_0" index="0" disallow="pedestrian tram rail_urban rail rail_electric rail_fast ship" speed="10.96" length="24.94" width="3.50" shape="-288.67,-47.33 -289.80,-47.31 -293.24,-47.04 -295.44,-46.66 -297.57,-46.10 -299.60,-45.31 -301.49,-44.26 -302.31,-43.67 -303.11,-42.99 -303.83,-42.25 -304.49,-41.45 -305.08,-40.59 -305.59,-39.67 -306.02,-38.75 -306.70,-36.68 -307.11,-34.55"/>
    </edge>
    <edge id=":53_1" function="internal">
        <lane id=":53_1_0" index="0" disallow="pedestrian tram rail_urban rail rail_electric rail_fast ship" speed="36.11" length="39.02" width="3.50" shape="-288.67,-47.33 -326.67,-46.89 -327.69,-46.87"/>
    </edge>
    <edge id=":53_2" function="internal">
        <lane id=":53_2_0" index="0" disallow="pedestrian tram rail_urban rail rail_electric rail_fast ship" speed="36.11" length="39.05" width="3.50" shape="-327.75,-50.37 -326.72,-50.39 -288.70,-50.83"/>
    </edge>
    <edge id=":53_3" function="internal">
        <lane id=":53_3_0" index="0" disallow="pedestrian tram rail_urban rail rail_electric rail_fast ship" speed="11.02" length="30.50" width="3.50" shape="-327.75,-50.37 -326.43,-50.38 -322.57,-50.21 -319.95,-49.88 -317.33,-49.33 -314.77,-48.48 -313.48,-47.89 -312.25,-47.18 -311.08,-46.33 -310.01,-45.33 -309.07,-44.18 -308.29,-42.92 -307.69,-41.56 -307.28,-40.15 -307.04,-38.73 -306.95,-37.28 -307.11,-34.55"/>
    </edge>
    <edge id=":53_4" function="internal">
        <lane id=":53_4_0" index="0" disallow="pedestrian tram rail_urban rail rail_electric rail_fast ship" speed="9.85" length="24.44" width="3.50" shape="-310.58,-34.95 -310.46,-37.22 -310.55,-38.32 -310.76,-39.41 -311.11,-40.47 -311.60,-41.46 -312.22,-42.37 -312.97,-43.19 -313.82,-43.90 -314.75,-44.51 -315.73,-45.02 -316.76,-45.44 -318.88,-46.08 -321.06,-46.50 -323.26,-46.75 -326.58,-46.88 -327.69,-46.87"/>
    </edge>
    <edge id=":53_5" function="internal">
        <lane id=":53_5_0" index="0" disallow="pedestrian tram rail_urban rail rail_electric rail_fast ship" speed="12.08" length="30.06" width="3.50" shape="-310.59,-34.95 -310.09,-37.57 -309.29,-40.05 -308.76,-41.24 -308.13,-42.39 -307.41,-43.47 -306.60,-44.49 -305.70,-45.44 -304.72,-46.30 -303.67,-47.08 -301.41,-48.38 -298.99,-49.35 -296.47,-50.03 -293.90,-50.49 -290.00,-50.80 -288.70,-50.83"/>
    </edge>
    <edge id=":54_0" function="internal">
        <lane id=":54_0_0" index="0" disallow="pedestrian tram rail_urban rail rail_electric rail_fast ship" speed="12.08" length="30.06" width="3.50" shape="-244.66,-28.52 -245.25,-31.69 -246.12,-34.79 -246.88,-36.80 -247.82,-38.73 -248.96,-40.55 -250.31,-42.22 -251.87,-43.70 -253.62,-44.95 -255.52,-45.93 -257.54,-46.66 -259.64,-47.14 -261.77,-47.41 -263.91,-47.48"/>
    </edge>
    <edge id=":54_1" function="internal">
        <lane id=":54_1_0" index="0" disallow="pedestrian tram rail_urban rail rail_electric rail_fast ship" speed="11.89" length="35.67" width="3.50" shape="-244.66,-28.52 -245.05,-32.62 -245.03,-35.36 -244.72,-38.09 -244.44,-39.43 -244.06,-40.75 -243.57,-42.03 -242.97,-43.26 -242.25,-44.43 -241.41,-45.52 -240.47,-46.51 -239.43,-47.41 -238.30,-48.20 -237.12,-48.88 -235.87,-49.47 -233.28,-50.36 -230.60,-50.95 -227.88,-51.28 -225.14,-51.41"/>
    </edge>
    <edge id=":54_2" function="internal">
        <lane id=":54_2_0" index="0" disallow="pedestrian tram rail_urban rail rail_electric rail_fast ship" speed="10.86" length="29.60" width="3.50" shape="-225.07,-47.91 -227.46,-47.80 -229.81,-47.51 -232.07,-47.02 -234.25,-46.27 -235.23,-45.80 -236.19,-45.25 -237.08,-44.63 -237.90,-43.93 -238.63,-43.15 -239.29,-42.30 -239.85,-41.38 -240.33,-40.40 -240.72,-39.38 -241.03,-38.31 -241.26,-37.23 -241.52,-34.91 -241.54,-32.59 -241.20,-29.02"/>
    </edge>
    <edge id=":54_3" function="internal">
        <lane id=":54_3_0" index="0" disallow="pedestrian tram rail_urban rail rail_electric rail_fast ship" speed="36.11" length="38.84" width="3.50" shape="-225.07,-47.91 -244.50,-47.70 -263.91,-47.48"/>
    </edge>
    <edge id=":54_4" function="internal">
        <lane id=":54_4_0" index="0" disallow="pedestrian tram rail_urban rail rail_electric rail_fast ship" speed="36.11" length="38.79" width="3.50" shape="-263.93,-50.98 -244.54,-51.20 -225.14,-51.41"/>
    </edge>
    <edge id=":54_5" function="internal">
        <lane id=":54_5_0" index="0" disallow="pedestrian tram rail_urban rail rail_electric rail_fast ship" speed="13.03" length="35.13" width="3.50" shape="-263.93,-50.98 -261.46,-50.90 -258.98,-50.60 -256.52,-50.04 -254.12,-49.19 -251.84,-48.03 -249.73,-46.55 -247.84,-44.80 -246.22,-42.83 -244.87,-40.70 -243.76,-38.45 -242.86,-36.13 -241.87,-32.61 -241.20,-29.02"/>
    </edge>
    <edge id=":55_0" function="internal">
        <lane id=":55_0_0" index="0" disallow="pedestrian tram rail_urban rail rail_electric rail_fast ship" speed="9.37" length="19.29" width="3.50" shape="-370.16,-38.97 -370.30,-40.14 -370.65,-41.14 -371.20,-42.05 -371.93,-42.83 -372.77,-43.48 -373.69,-44.01 -374.67,-44.44 -375.68,-44.78 -376.71,-45.06 -378.80,-45.45 -380.92,-45.68 -384.12,-45.82 -386.25,-45.81"/>
    </edge>
    <edge id=":55_1" function="internal">
        <lane id=":55_1_0" index="0" disallow="pedestrian tram rail_urban rail rail_electric rail_fast ship" speed="10.31" length="24.85" width="3.50" shape="-370.16,-38.97 -370.13,-40.46 -369.89,-41.81 -369.44,-43.10 -368.76,-44.30 -367.88,-45.35 -366.85,-46.26 -365.71,-47.03 -364.49,-47.66 -363.22,-48.18 -360.58,-48.96 -357.88,-49.47 -353.78,-49.88 -351.03,-49.99"/>
    </edge>
    <edge id=":55_2" function="internal">
        <lane id=":55_2_0" index="0" disallow="pedestrian tram rail_urban rail rail_electric rail_fast ship" speed="9.04" length="19.12" width="3.50" shape="-350.96,-46.49 -353.33,-46.40 -356.86,-46.08 -359.12,-45.70 -361.33,-45.11 -362.33,-44.75 -363.31,-44.31 -364.19,-43.79 -364.97,-43.20 -365.61,-42.54 -366.10,-41.83 -366.44,-41.04 -366.63,-40.17 -366.67,-39.22"/>
    </edge>
    <edge id=":55_3" function="internal">
        <lane id=":55_3_0" index="0" disallow="pedestrian tram rail_urban rail rail_electric rail_fast ship" speed="36.11" length="35.30" width="3.50" shape="-350.96,-46.49 -368.61,-46.15 -386.25,-45.81"/>
    </edge>
    <edge id=":55_4" function="internal">
        <lane id=":55_4_0" index="0" disallow="pedestrian tram rail_urban rail rail_electric rail_fast ship" speed="36.11" length="35.31" width="3.50" shape="-386.33,-49.31 -368.68,-49.65 -351.03,-49.99"/>
    </edge>
    <edge id=":55_5" function="internal">
        <lane id=":55_5_0" index="0" disallow="pedestrian tram rail_urban rail rail_electric rail_fast ship" speed="10.60" length="24.59" width="3.50" shape="-386.33,-49.31 -383.80,-49.32 -380.03,-49.11 -377.48,-48.76 -374.95,-48.19 -373.66,-47.77 -372.40,-47.24 -371.16,-46.58 -369.99,-45.75 -368.92,-44.75 -368.00,-43.55 -367.30,-42.19 -366.86,-40.74 -366.67,-39.22"/>
    </edge>
    <edge id=":56_0" function="internal">
        <lane id=":56_0_0" index="0" disallow="pedestrian tram rail_urban rail rail_electric rail_fast ship" speed="13.08" length="29.84" width="3.50" shape="-309.61,-4.52 -310.05,-6.61 -310.67,-8.65 -311.49,-10.62 -312.51,-12.48 -313.74,-14.23 -315.16,-15.82 -316.75,-17.24 -318.48,-18.48 -320.32,-19.54 -322.26,-20.44 -325.27,-21.52 -328.37,-22.30 -330.47,-22.68"/>
    </edge>
    <edge id=":56_1" function="internal">
        <lane id=":56_1_0" index="0" disallow="pedestrian tram rail_urban rail rail_electric rail_fast ship" speed="36.11" length="30.38" width="3.49" shape="-309.61,-4.52 -309.79,-5.60 -310.65,-12.01 -311.18,-18.48 -311.32,-23.90 -311.14,-29.34 -310.61,-34.78"/>
    </edge>
    <edge id=":56_2" function="internal">
        <lane id=":56_2_0" index="0" disallow="pedestrian tram rail_urban rail rail_electric rail_fast ship" speed="36.11" length="29.39" width="3.50" shape="-307.14,-34.39 -307.65,-29.08 -307.82,-23.85 -307.68,-18.62 -307.17,-12.36 -306.33,-6.13 -306.17,-5.12"/>
    </edge>
    <edge id=":56_3" function="internal">
        <lane id=":56_3_0" index="0" disallow="pedestrian tram rail_urban rail rail_electric rail_fast ship" speed="11.31" length="29.86" width="3.50" shape="-307.13,-34.39 -307.69,-31.65 -308.13,-30.36 -308.68,-29.13 -309.36,-27.96 -310.17,-26.88 -311.10,-25.89 -312.14,-25.03 -313.27,-24.29 -314.47,-23.67 -315.73,-23.18 -318.35,-22.49 -321.03,-22.15 -323.73,-22.07 -327.78,-22.32 -330.47,-22.68"/>
    </edge>
    <edge id=":56_4" function="internal">
        <lane id=":56_4_0" index="0" disallow="pedestrian tram rail_urban rail rail_electric rail_fast ship" speed="10.14" length="24.12" width="3.49" shape="-329.92,-26.14 -327.59,-25.82 -324.06,-25.58 -321.77,-25.63 -319.53,-25.88 -317.35,-26.40 -316.37,-26.75 -315.42,-27.20 -314.54,-27.73 -313.74,-28.36 -313.02,-29.06 -312.39,-29.85 -311.86,-30.71 -311.41,-31.65 -311.07,-32.60 -310.61,-34.78"/>
    </edge>
    <edge id=":56_5" function="internal">
        <lane id=":56_5_0" index="0" disallow="pedestrian tram rail_urban rail rail_electric rail_fast ship" speed="13.98" length="34.20" width="3.50" shape="-329.92,-26.14 -327.57,-25.70 -324.10,-24.82 -320.71,-23.60 -318.50,-22.56 -316.38,-21.32 -314.38,-19.87 -312.55,-18.20 -310.90,-16.33 -309.48,-14.29 -308.31,-12.11 -307.37,-9.83 -306.66,-7.48 -306.17,-5.12"/>
    </edge>
    <edge id=":57_0" function="internal">
        <lane id=":57_0_0" index="0" disallow="pedestrian tram rail_urban rail rail_electric rail_fast ship" speed="36.11" length="30.85" width="3.49" shape="-367.80,-8.00 -369.41,-27.11 -370.15,-38.76"/>
    </edge>
    <edge id=":57_1" function="internal">
        <lane id=":57_1_0" index="0" disallow="pedestrian tram rail_urban rail rail_electric rail_fast ship" speed="11.63" length="36.90" width="3.50" shape="-367.81,-8.00 -367.99,-12.28 -367.84,-15.11 -367.40,-17.92 -367.04,-19.29 -366.58,-20.63 -366.00,-21.93 -365.30,-23.16 -364.46,-24.30 -363.50,-25.34 -362.42,-26.26 -361.24,-27.04 -359.97,-27.69 -358.65,-28.20 -357.29,-28.59 -354.49,-29.05 -351.66,-29.17 -348.82,-29.02 -346.01,-28.67"/>
    </edge>
    <edge id=":57_2" function="internal">
        <lane id=":57_2_0" index="0" disallow="pedestrian tram rail_urban rail rail_electric rail_fast ship" speed="10.59" length="30.33" width="3.50" shape="-346.55,-25.21 -348.99,-25.52 -351.42,-25.64 -353.80,-25.55 -356.14,-25.16 -357.20,-24.85 -358.24,-24.45 -359.22,-23.95 -360.13,-23.35 -360.95,-22.65 -361.68,-21.86 -362.32,-20.98 -362.87,-20.02 -363.33,-18.99 -363.70,-17.91 -363.98,-16.81 -364.35,-14.44 -364.48,-12.04 -364.32,-8.32"/>
    </edge>
    <edge id=":57_3" function="internal">
        <lane id=":57_3_0" index="0" disallow="pedestrian tram rail_urban rail rail_electric rail_fast ship" speed="12.27" length="29.13" width="3.49" shape="-346.55,-25.21 -351.04,-26.02 -355.50,-27.07 -358.83,-28.09 -362.09,-29.40 -364.23,-30.53 -366.24,-31.90 -367.22,-32.76 -368.11,-33.73 -368.89,-34.82 -369.52,-36.05 -369.95,-37.39 -370.15,-38.76"/>
    </edge>
    <edge id=":57_4" function="internal">
        <lane id=":57_4_0" index="0" disallow="pedestrian tram rail_urban rail rail_electric rail_fast ship" speed="11.22" length="24.45" width="3.50" shape="-366.65,-38.97 -366.50,-37.96 -366.15,-37.01 -365.63,-36.14 -364.97,-35.36 -364.22,-34.67 -363.41,-34.05 -361.66,-33.01 -359.82,-32.15 -356.94,-31.10 -354.00,-30.27 -350.02,-29.37 -346.01,-28.67"/>
    </edge>
    <edge id=":57_5" function="internal">
        <lane id=":57_5_0" index="0" disallow="pedestrian tram rail_urban rail rail_electric rail_fast ship" speed="36.11" length="30.74" width="3.50" shape="-366.65,-38.97 -365.92,-27.34 -364.32,-8.32"/>
    </edge>
    <edge id=":58_0" function="internal">
        <lane id=":58_0_0" index="0" disallow="pedestrian tram rail_urban rail rail_electric rail_fast ship" speed="36.11" length="39.78" width="3.50" shape="-288.34,123.01 -291.61,103.39 -294.88,83.77"/>
    </edge>
    <edge id=":58_1" function="internal">
        <lane id=":58_1_0" index="0" disallow="pedestrian tram rail_urban rail rail_electric rail_fast ship" speed="12.04" length="34.75" width="3.50" shape="-270.18,100.62 -274.13,101.29 -276.80,101.46 -279.47,101.35 -282.10,100.89 -283.38,100.51 -284.63,100.02 -285.82,99.43 -286.96,98.72 -288.02,97.91 -289.00,97.01 -289.91,96.02 -290.72,94.96 -292.10,92.67 -293.19,90.23 -294.02,87.69 -294.88,83.77"/>
    </edge>
    <edge id=":58_2" function="internal">
        <lane id=":58_2_0" index="0" disallow="pedestrian tram rail_urban rail rail_electric rail_fast ship" speed="11.03" length="28.95" width="3.50" shape="-291.42,83.20 -290.68,86.61 -289.97,88.77 -289.06,90.82 -287.91,92.74 -287.26,93.57 -286.54,94.36 -285.76,95.09 -284.92,95.73 -284.02,96.29 -283.07,96.76 -282.07,97.15 -281.07,97.45 -278.87,97.84 -276.64,97.93 -274.38,97.79 -270.94,97.20"/>
    </edge>
    <edge id=":58_3" function="internal">
        <lane id=":58_3_0" index="0" disallow="pedestrian tram rail_urban rail rail_electric rail_fast ship" speed="36.11" length="39.76" width="3.50" shape="-291.42,83.20 -288.15,102.81 -284.89,122.42"/>
    </edge>
    <edge id=":58_4" function="internal">
        <lane id=":58_4_0" index="0" disallow="pedestrian tram rail_urban rail rail_electric rail_fast ship" speed="12.74" length="35.65" width="3.50" shape="-291.42,83.20 -290.99,86.88 -290.93,89.40 -291.10,91.92 -291.55,94.44 -292.31,96.92 -293.42,99.28 -294.88,101.46 -296.63,103.39 -298.62,105.04 -300.78,106.42 -303.05,107.55 -305.40,108.46 -308.96,109.48"/>
    </edge>
    <edge id=":58_5" function="internal">
        <lane id=":58_5_0" index="0" disallow="pedestrian tram rail_urban rail rail_electric rail_fast ship" speed="11.78" length="30.32" width="3.50" shape="-309.76,106.07 -306.63,105.18 -304.61,104.40 -302.67,103.43 -300.85,102.27 -299.18,100.89 -297.72,99.29 -296.52,97.49 -295.60,95.53 -294.96,93.46 -294.59,91.33 -294.44,89.17 -294.50,87.00 -294.88,83.77"/>
    </edge>

    <edge id="4414" from="56" to="57" priority="3" type="highway.residential" spreadType="center" length="16.28" shape="-315.79,-19.51 -360.45,-22.92">
        <lane id="4414_0" index="0" disallow="pedestrian tram rail_urban rail rail_electric rail_fast ship" speed="36.11" length="16.28" width="3.50" customShape="1" shape="-330.47,-22.68 -338.51,-23.94 -346.55,-25.21"/>
    </edge>
    <edge id="4415" from="57" to="56" priority="3" type="highway.residential" spreadType="center" length="16.29" shape="-360.18,-26.41 -315.52,-23.00">
        <lane id="4415_0" index="0" disallow="pedestrian tram rail_urban rail rail_electric rail_fast ship" speed="36.11" length="16.29" width="3.50" customShape="1" shape="-346.01,-28.67 -337.97,-27.40 -329.92,-26.14"/>
    </edge>
    <edge id="4586" from="54" to="39" priority="3" type="highway.residential" spreadType="center" length="70.01" shape="-242.25,-42.82 -231.15,40.26">
        <lane id="4586_0" index="0" disallow="pedestrian tram rail_urban rail rail_electric rail_fast ship" speed="36.11" length="70.01" width="3.50" customShape="1" shape="-241.20,-29.02 -233.99,20.66 -231.15,40.26"/>
    </edge>
    <edge id="4587" from="42" to="54" priority="3" type="highway.residential" spreadType="center" length="70.00" shape="-234.61,40.75 -245.72,-42.36">
        <lane id="4587_0" index="0" disallow="pedestrian tram rail_urban rail rail_electric rail_fast ship" speed="36.11" length="70.00" width="3.50" customShape="1" shape="-234.61,40.75 -237.46,21.16 -244.66,-28.52"/>
    </edge>
    <edge id="4630" from="58" to="46" priority="3" type="highway.residential" spreadType="center" length="25.78" shape="-289.46,104.91 -334.06,115.35">
        <lane id="4630_0" index="0" disallow="pedestrian tram rail_urban rail rail_electric rail_fast ship" speed="36.11" length="25.78" width="3.50" customShape="1" shape="-308.96,109.48 -321.51,112.42 -334.06,115.35"/>
    </edge>
    <edge id="4631" from="50" to="58" priority="3" type="highway.residential" spreadType="center" length="25.78" shape="-334.85,111.95 -290.25,101.51">
        <lane id="4631_0" index="0" disallow="pedestrian tram rail_urban rail rail_electric rail_fast ship" speed="36.11" length="25.78" width="3.50" customShape="1" shape="-334.85,111.95 -322.31,109.01 -309.75,106.07"/>
    </edge>
    <edge id="4633" from="51" to="58" priority="3" type="highway.residential" spreadType="center" length="27.02" shape="-243.81,94.74 -289.60,104.94">
        <lane id="4633_0" index="0" disallow="pedestrian tram rail_urban rail rail_electric rail_fast ship" speed="36.11" length="27.02" width="3.50" customShape="1" shape="-243.81,94.74 -256.99,97.68 -270.18,100.62"/>
    </edge>
    <edge id="4634" from="58" to="47" priority="3" type="highway.residential" spreadType="center" length="27.01" shape="-290.36,101.53 -244.58,91.32">
        <lane id="4634_0" index="0" disallow="pedestrian tram rail_urban rail rail_electric rail_fast ship" speed="36.11" length="27.01" width="3.50" customShape="1" shape="-270.94,97.20 -257.75,94.26 -244.58,91.32"/>
    </edge>
    <edge id="4690" from="56" to="53" priority="3" type="highway.residential" spreadType="center" length="0.23" shape="-317.35,-21.66 -310.08,-44.69">
        <lane id="4690_0" index="0" disallow="pedestrian tram rail_urban rail rail_electric rail_fast ship" speed="36.11" length="0.23" width="3.49" customShape="1" shape="-310.61,-34.78 -310.60,-34.88 -310.58,-35.01"/>
    </edge>
    <edge id="4691" from="53" to="56" priority="3" type="highway.residential" spreadType="center" length="0.25" shape="-306.75,-43.63 -314.03,-20.61">
        <lane id="4691_0" index="0" disallow="pedestrian tram rail_urban rail rail_electric rail_fast ship" speed="36.11" length="0.25" width="3.50" customShape="1" shape="-307.11,-34.55 -307.13,-34.42 -307.15,-34.30"/>
    </edge>
    <edge id="4693" from="58" to="56" priority="3" type="highway.residential" spreadType="center" length="89.54" shape="-291.63,103.60 -317.37,-20.90">
        <lane id="4693_0" index="0" disallow="pedestrian tram rail_urban rail rail_electric rail_fast ship" speed="36.11" length="89.54" width="3.50" customShape="1" shape="-294.88,83.77 -302.24,39.63 -309.62,-4.55"/>
    </edge>
    <edge id="4694" from="56" to="58" priority="3" type="highway.residential" spreadType="center" length="89.54" shape="-313.94,-21.61 -288.20,102.89">
        <lane id="4694_0" index="0" disallow="pedestrian tram rail_urban rail rail_electric rail_fast ship" speed="36.11" length="89.54" width="3.50" customShape="1" shape="-306.17,-5.12 -298.79,39.05 -291.42,83.20"/>
    </edge>
    <edge id="4696" from="52" to="58" priority="3" type="highway.residential" spreadType="center" length="42.32" shape="-281.39,164.75 -291.65,103.46">
        <lane id="4696_0" index="0" disallow="pedestrian tram rail_urban rail rail_electric rail_fast ship" speed="36.11" length="42.32" width="3.50" customShape="1" shape="-281.39,164.75 -284.87,143.85 -288.34,123.00"/>
    </edge>
    <edge id="4697" from="58" to="49" priority="3" type="highway.residential" spreadType="center" length="42.28" shape="-288.20,102.89 -277.95,164.13">
        <lane id="4697_0" index="0" disallow="pedestrian tram rail_urban rail rail_electric rail_fast ship" speed="36.11" length="42.28" width="3.50" customShape="1" shape="-284.89,122.42 -281.42,143.28 -277.95,164.13"/>
    </edge>
    <edge id="4860" from="54" to="40" priority="3" type="highway.residential" spreadType="center" length="38.11" shape="-244.27,-44.28 -187.03,-51.99">
        <lane id="4860_0" index="0" disallow="pedestrian tram rail_urban rail rail_electric rail_fast ship" speed="36.11" length="38.11" width="3.50" customShape="1" shape="-225.14,-51.41 -206.09,-51.70 -187.03,-51.99"/>
    </edge>
    <edge id="4861" from="43" to="54" priority="3" type="highway.residential" spreadType="center" length="38.09" shape="-186.99,-48.49 -243.80,-40.81">
        <lane id="4861_0" index="0" disallow="pedestrian tram rail_urban rail rail_electric rail_fast ship" speed="36.11" length="38.09" width="3.50" customShape="1" shape="-186.99,-48.49 -206.04,-48.20 -225.08,-47.91"/>
    </edge>
    <edge id="4863" from="53" to="54" priority="3" type="highway.residential" spreadType="center" length="24.79" shape="-308.37,-45.91 -243.89,-44.30">
        <lane id="4863_0" index="0" disallow="pedestrian tram rail_urban rail rail_electric rail_fast ship" speed="36.11" length="24.79" width="3.50" customShape="1" shape="-288.70,-50.83 -276.32,-50.90 -263.91,-50.98"/>
    </edge>
    <edge id="4864" from="54" to="53" priority="3" type="highway.residential" spreadType="center" length="24.77" shape="-243.98,-40.80 -308.46,-42.41">
        <lane id="4864_0" index="0" disallow="pedestrian tram rail_urban rail rail_electric rail_fast ship" speed="36.11" length="24.77" width="3.50" customShape="1" shape="-263.91,-47.48 -276.30,-47.40 -288.68,-47.33"/>
    </edge>
    <edge id="4866" from="55" to="53" priority="3" type="highway.residential" spreadType="center" length="23.29" shape="-368.59,-46.73 -308.39,-45.91">
        <lane id="4866_0" index="0" disallow="pedestrian tram rail_urban rail rail_electric rail_fast ship" speed="36.11" length="23.29" width="3.50" customShape="1" shape="-351.03,-49.99 -339.39,-50.18 -327.74,-50.37"/>
    </edge>
    <edge id="4867" from="53" to="55" priority="3" type="highway.residential" spreadType="center" length="23.28" shape="-308.44,-42.41 -368.64,-43.23">
        <lane id="4867_0" index="0" disallow="pedestrian tram rail_urban rail rail_electric rail_fast ship" speed="36.11" length="23.28" width="3.50" customShape="1" shape="-327.69,-46.87 -339.33,-46.68 -350.97,-46.49"/>
    </edge>
    <edge id="4869" from="41" to="55" priority="3" type="highway.residential" spreadType="center" length="70.00" shape="-456.30,-47.76 -368.51,-46.73">
        <lane id="4869_0" index="0" disallow="pedestrian tram rail_urban rail rail_electric rail_fast ship" speed="36.11" length="70.00" width="3.50" customShape="1" shape="-456.30,-47.76 -386.32,-49.31"/>
    </edge>
    <edge id="4870" from="55" to="32" priority="3" type="highway.residential" spreadType="center" length="70.00" shape="-368.55,-43.23 -456.23,-44.25">
        <lane id="4870_0" index="0" disallow="pedestrian tram rail_urban rail rail_electric rail_fast ship" speed="36.11" length="70.00" width="3.50" customShape="1" shape="-386.25,-45.81 -456.23,-44.25"/>
    </edge>
    <edge id="4899" from="57" to="26" priority="3" type="highway.residential" spreadType="center" length="70.00" shape="-358.50,-24.70 -358.05,61.40">
        <lane id="4899_0" index="0" disallow="pedestrian tram rail_urban rail rail_electric rail_fast ship" speed="36.11" length="70.00" width="3.50" customShape="1" shape="-364.32,-8.32 -359.56,44.60 -358.05,61.40"/>
    </edge>
    <edge id="4900" from="36" to="57" priority="3" type="highway.residential" spreadType="center" length="70.00" shape="-361.54,61.69 -362.00,-24.68">
        <lane id="4900_0" index="0" disallow="pedestrian tram rail_urban rail rail_electric rail_fast ship" speed="36.11" length="70.00" width="3.50" customShape="1" shape="-361.54,61.69 -363.05,44.91 -367.81,-8.03"/>
    </edge>
    <edge id="4902" from="55" to="57" priority="3" type="highway.residential" spreadType="center" length="0.28" shape="-366.95,-45.65 -358.58,-25.19">
        <lane id="4902_0" index="0" disallow="pedestrian tram rail_urban rail rail_electric rail_fast ship" speed="36.11" length="0.28" width="3.50" customShape="1" shape="-366.67,-39.23 -366.66,-39.10 -366.65,-38.95"/>
    </edge>
    <edge id="4903" from="57" to="55" priority="3" type="highway.residential" spreadType="center" length="0.21" shape="-361.80,-23.87 -370.18,-44.32">
        <lane id="4903_0" index="0" disallow="pedestrian tram rail_urban rail rail_electric rail_fast ship" speed="36.11" length="0.21" width="3.49" customShape="1" shape="-370.15,-38.76 -370.16,-38.97"/>
    </edge>

    <junction id="26" type="dead_end" x="-358.05" y="61.40" incLanes="4899_0" intLanes="" shape="-356.31,61.25 -359.80,61.56" rightOfWay="edgePriority"/>