<routes>
	<vehicle depart="0.1" departLane="0" departPos="89.44324262628919" departSpeed="0.0" id="31" type="passenger">
		<route edges="4694 4634"/>
	</vehicle>
	<vehicle depart="0.1" departLane="0" departPos="20.659670684080112" departSpeed="1.7813888" id="34" type="passenger">
		<route edges=":58_0 4693"/>
	</vehicle>
	<vehicle depart="0.1" departLane="0" departPos="40.33975509896488" departSpeed="0.55385986" id="36" type="passenger">
		<route edges="4696 4693"/>
	</vehicle>
	<vehicle depart="0.1" departLane="0" departPos="82.15986188849423" departSpeed="0.0024990851" id="312" type="passenger">
		<route edges="4694 4634"/>
	</vehicle>
	<vehicle depart="0.1" departLane="0" departPos="20.859081853819124" departSpeed="4.2527163" id="330" type="passenger">
		<route edges="4633 4693"/>
	</vehicle>
	<vehicle depart="0.1" departLane="0" departPos="12.1139932796308" departSpeed="1.7241259" id="341" type="passenger">
		<route edges="4633 4693"/>
	</vehicle>
	<vehicle depart="0.1" departLane="0" departPos="9.564901276520363" departSpeed="5.6646837" id="361" type="passenger">
		<route edges="4693 4690"/>
	</vehicle>
	<vehicle depart="0.1" departLane="0" departPos="12.5700111758904" departSpeed="5.7381988" id="365" type="passenger">
		<route edges=":58_5 4693"/>
	</vehicle>
	<vehicle depart="0.1" departLane="0" departPos="6.427055498858547" departSpeed="2.7009988" id="371" type="passenger">
		<route edges="4631 4693"/>
	</vehicle>
	<vehicle depart="0.1" departLane="0" departPos="17.687525075986414" departSpeed="5.1060801" id="369" type="truck">
		<route edges="4631 4693"/>
	</vehicle>
</routes>
