<!-- generated on Tue Feb  9 22:00:50 2021 by Eclipse SUMO netconvert Version 1.8.0
<configuration xmlns:xsi="http://www.w3.org/2001/XMLSchema-instance" xsi:noNamespaceSchemaLocation="http://sumo.dlr.de/xsd/netconvertConfiguration.xsd">

    <input>
        <node-files value="./converted_scenarios/scenario-factory/DEU_Guetersloh-4_5_I-1-1/DEU_Guetersloh-4_5_I-1-1.nod.xml"/>
        <edge-files value="./converted_scenarios/scenario-factory/DEU_Guetersloh-4_5_I-1-1/DEU_Guetersloh-4_5_I-1-1.edg.xml"/>
        <connection-files value="./converted_scenarios/scenario-factory/DEU_Guetersloh-4_5_I-1-1/DEU_Guetersloh-4_5_I-1-1.con.xml"/>
        <tllogic-files value="./converted_scenarios/scenario-factory/DEU_Guetersloh-4_5_I-1-1/DEU_Guetersloh-4_5_I-1-1.tll.xml"/>
        <type-files value="/home/zen/commonroad-interactive-benchmarks/install/commonroad-map-tool/crmapconverter/sumo_map/templates/DEU.typ.xml"/>
    </input>

    <output>
        <output-file value="./converted_scenarios/scenario-factory/DEU_Guetersloh-4_5_I-1-1/DEU_Guetersloh-4_5_I-1-1.net.xml"/>
    </output>

    <processing>
        <geometry.remove.keep-edges.explicit value="true"/>
        <geometry.avoid-overlap value="true"/>
        <offset.disable-normalization value="true"/>
    </processing>

    <junctions>
        <no-turnarounds value="true"/>
        <junctions.internal-link-detail value="20"/>
    </junctions>

    <report>
        <aggregate-warnings value="5"/>
    </report>

    <random_number>
        <seed value="1234"/>
    </random_number>

</configuration>
--><net xmlns:xsi="http://www.w3.org/2001/XMLSchema-instance" version="1.6" junctionCornerDetail="5" junctionLinkDetail="20" limitTurnSpeed="5.50" xsi:noNamespaceSchemaLocation="http://sumo.dlr.de/xsd/net_file.xsd">

    <location netOffset="0.00,0.00" convBoundary="-145.34,-264.14,-0.36,-9.14" origBoundary="-145.34,-264.14,-0.36,-9.14" projParameter="!"/>

    <type id="highway.bridleway" priority="1" speed="2.78" allow="pedestrian" oneway="1" width="2.00"/>
    <type id="highway.bus_guideway" priority="1" speed="27.78" allow="bus" oneway="1"/>
    <type id="highway.cycleway" priority="1" speed="8.33" allow="bicycle" oneway="0" width="1.00"/>
    <type id="highway.footway" priority="1" speed="2.78" allow="pedestrian" oneway="1" width="2.00"/>
    <type id="highway.ford" priority="1" speed="2.78" allow="army" oneway="0"/>
    <type id="highway.living_street" priority="2" speed="2.78" disallow="tram rail_urban rail rail_electric rail_fast ship" oneway="0"/>
    <type id="highway.motorway" priority="14" speed="39.44" allow="private emergency authority army vip passenger hov taxi bus coach delivery truck trailer motorcycle evehicle custom1 custom2" oneway="1"/>
    <type id="highway.motorway_link" priority="9" speed="22.22" allow="private emergency authority army vip passenger hov taxi bus coach delivery truck trailer motorcycle evehicle custom1 custom2" oneway="1"/>
    <type id="highway.path" priority="1" speed="2.78" allow="pedestrian bicycle" oneway="0" width="2.00"/>
    <type id="highway.pedestrian" priority="1" speed="2.78" allow="pedestrian" oneway="1" width="2.00"/>
    <type id="highway.primary" priority="12" speed="27.78" disallow="pedestrian tram rail_urban rail rail_electric rail_fast ship" oneway="0"/>
    <type id="highway.primary_link" priority="7" speed="22.22" disallow="pedestrian tram rail_urban rail rail_electric rail_fast ship" oneway="0"/>
    <type id="highway.raceway" priority="15" speed="83.33" allow="vip" oneway="0"/>
    <type id="highway.residential" priority="3" speed="13.89" disallow="pedestrian tram rail_urban rail rail_electric rail_fast ship" oneway="0"/>
    <type id="highway.secondary" priority="11" speed="27.78" disallow="pedestrian tram rail_urban rail rail_electric rail_fast ship" oneway="0"/>
    <type id="highway.secondary_link" priority="6" speed="22.22" disallow="pedestrian tram rail_urban rail rail_electric rail_fast ship" oneway="0"/>
    <type id="highway.service" priority="1" speed="5.56" allow="pedestrian delivery bicycle" oneway="0"/>
    <type id="highway.stairs" priority="1" speed="1.39" allow="pedestrian" oneway="1" width="2.00"/>
    <type id="highway.step" priority="1" speed="1.39" allow="pedestrian" oneway="1" width="2.00"/>
    <type id="highway.steps" priority="1" speed="1.39" allow="pedestrian" oneway="1" width="2.00"/>
    <type id="highway.tertiary" priority="10" speed="22.22" disallow="pedestrian tram rail_urban rail rail_electric rail_fast ship" oneway="0"/>
    <type id="highway.tertiary_link" priority="5" speed="22.22" disallow="pedestrian tram rail_urban rail rail_electric rail_fast ship" oneway="0"/>
    <type id="highway.track" priority="1" speed="5.56" allow="pedestrian motorcycle moped bicycle" oneway="0"/>
    <type id="highway.trunk" priority="13" speed="27.78" disallow="pedestrian bicycle tram rail_urban rail rail_electric rail_fast ship" oneway="0"/>
    <type id="highway.trunk_link" priority="8" speed="22.22" disallow="pedestrian bicycle tram rail_urban rail rail_electric rail_fast ship" oneway="0"/>
    <type id="highway.unclassified" priority="4" speed="13.89" disallow="pedestrian tram rail_urban rail rail_electric rail_fast ship" oneway="0"/>
    <type id="highway.unsurfaced" priority="1" speed="8.33" disallow="tram rail_urban rail rail_electric rail_fast ship" oneway="0"/>
    <type id="railway.highspeed" priority="21" speed="69.44" allow="rail_fast" oneway="1"/>
    <type id="railway.light_rail" priority="19" speed="27.78" allow="rail_urban" oneway="1"/>
    <type id="railway.preserved" priority="16" speed="27.78" allow="rail" oneway="1"/>
    <type id="railway.rail" priority="20" speed="44.44" allow="rail" oneway="1"/>
    <type id="railway.subway" priority="18" speed="27.78" allow="rail_urban" oneway="1"/>
    <type id="railway.tram" priority="17" speed="13.89" allow="tram" oneway="1"/>

    <edge id=":28_0" function="internal">
        <lane id=":28_0_0" index="0" disallow="pedestrian tram rail_urban rail rail_electric rail_fast ship" speed="36.11" length="2.89" width="3.50" shape="-129.43,-210.25 -131.50,-212.26"/>
    </edge>
    <edge id=":35_0" function="internal">
        <lane id=":35_0_0" index="0" disallow="pedestrian tram rail_urban rail rail_electric rail_fast ship" speed="36.11" length="0.10" width="3.50" shape="-131.20,-160.57 -131.20,-160.57"/>
    </edge>
    <edge id=":37_0" function="internal">
        <lane id=":37_0_0" index="0" disallow="pedestrian tram rail_urban rail rail_electric rail_fast ship" speed="36.11" length="20.37" width="3.49" shape="-82.78,-171.73 -92.71,-177.49 -97.29,-180.46 -99.84,-182.76"/>
    </edge>
    <edge id=":37_1" function="internal">
        <lane id=":37_1_0" index="0" disallow="pedestrian tram rail_urban rail rail_electric rail_fast ship" speed="29.24" length="16.73" width="3.50" shape="-95.47,-183.03 -95.04,-183.13 -90.68,-180.35 -81.06,-174.78"/>
    </edge>
    <edge id=":37_2" function="internal">
        <lane id=":37_2_0" index="0" disallow="pedestrian tram rail_urban rail rail_electric rail_fast ship" speed="5.42" length="9.63" width="3.49" shape="-100.64,-176.26 -99.73,-176.40 -98.33,-176.91 -97.72,-177.33 -97.28,-177.93 -97.15,-178.66 -97.30,-179.39 -97.62,-180.06 -98.49,-181.28 -99.84,-182.76"/>
    </edge>
    <edge id=":37_3" function="internal">
        <lane id=":37_3_0" index="0" disallow="pedestrian tram rail_urban rail rail_electric rail_fast ship" speed="27.03" length="20.15" width="3.50" shape="-100.60,-176.65 -94.01,-177.50 -90.92,-177.64 -88.35,-177.48 -85.82,-176.97 -83.87,-176.28 -81.06,-174.78"/>
    </edge>
    <edge id=":38_0" function="internal">
        <lane id=":38_0_0" index="0" disallow="pedestrian tram rail_urban rail rail_electric rail_fast ship" speed="8.20" length="16.00" width="3.50" shape="-53.31,-92.77 -54.18,-92.24 -55.54,-91.06 -56.70,-89.69 -57.66,-88.18 -58.65,-85.99 -59.49,-83.12 -59.99,-80.16 -60.11,-78.97"/>
    </edge>
    <edge id=":38_1" function="internal">
        <lane id=":38_1_0" index="0" disallow="pedestrian tram rail_urban rail rail_electric rail_fast ship" speed="36.11" length="27.89" width="3.50" shape="-52.62,-96.48 -53.43,-96.64 -63.86,-99.07 -71.73,-101.24 -78.03,-103.31 -79.49,-103.85"/>
    </edge>
    <edge id=":38_2" function="internal">
        <lane id=":38_2_0" index="0" disallow="pedestrian tram rail_urban rail rail_electric rail_fast ship" speed="9.41" length="21.17" width="3.50" shape="-52.17,-98.95 -53.45,-100.13 -54.90,-101.98 -56.01,-104.05 -56.77,-106.27 -57.21,-108.58 -57.36,-111.52 -57.15,-114.45 -56.53,-117.92 -56.39,-118.53"/>
    </edge>
    <edge id=":38_3" function="internal">
        <lane id=":38_3_0" index="0" disallow="pedestrian tram rail_urban rail rail_electric rail_fast ship" speed="36.11" length="39.39" width="3.50" shape="-53.00,-117.68 -55.97,-104.54 -57.96,-94.37 -59.28,-86.18 -60.11,-78.97"/>
    </edge>
    <edge id=":38_4" function="internal">
        <lane id=":38_4_0" index="0" disallow="pedestrian tram rail_urban rail rail_electric rail_fast ship" speed="11.96" length="35.43" width="3.50" shape="-53.00,-117.68 -54.15,-113.76 -55.18,-111.24 -56.47,-108.84 -57.23,-107.71 -58.07,-106.64 -59.00,-105.64 -60.01,-104.74 -61.11,-103.93 -62.28,-103.24 -63.52,-102.68 -64.81,-102.25 -66.14,-101.94 -67.49,-101.75 -68.85,-101.67 -71.57,-101.80 -74.26,-102.26 -76.89,-102.95 -79.49,-103.85"/>
    </edge>
    <edge id=":38_5" function="internal">
        <lane id=":38_5_0" index="0" disallow="pedestrian tram rail_urban rail rail_electric rail_fast ship" speed="10.93" length="29.38" width="3.50" shape="-78.24,-107.12 -75.99,-106.34 -73.72,-105.74 -71.45,-105.36 -69.17,-105.24 -68.09,-105.31 -67.01,-105.46 -65.96,-105.70 -64.94,-106.04 -63.98,-106.48 -63.06,-107.01 -62.20,-107.64 -61.40,-108.36 -60.65,-109.16 -59.97,-110.03 -59.36,-110.93 -58.27,-112.96 -57.40,-115.09 -56.39,-118.53"/>
    </edge>
    <edge id=":38_6" function="internal">
        <lane id=":38_6_0" index="0" disallow="pedestrian tram rail_urban rail rail_electric rail_fast ship" speed="14.15" length="36.42" width="3.50" shape="-78.24,-107.12 -74.88,-105.67 -71.69,-103.92 -69.68,-102.55 -67.80,-101.02 -66.08,-99.31 -64.54,-97.43 -63.21,-95.40 -62.11,-93.24 -61.25,-90.97 -60.62,-88.63 -60.21,-86.24 -59.97,-82.61 -60.11,-78.97"/>
    </edge>
    <edge id=":38_7" function="internal">
        <lane id=":38_7_0" index="0" disallow="pedestrian tram rail_urban rail rail_electric rail_fast ship" speed="13.26" length="31.89" width="3.50" shape="-63.60,-79.25 -63.47,-82.51 -63.69,-85.72 -64.04,-87.80 -64.59,-89.83 -65.34,-91.78 -66.28,-93.64 -67.43,-95.38 -68.75,-96.99 -70.25,-98.47 -71.89,-99.80 -73.64,-100.99 -76.48,-102.56 -79.49,-103.85"/>
    </edge>
    <edge id=":38_8" function="internal">
        <lane id=":38_8_0" index="0" disallow="pedestrian tram rail_urban rail rail_electric rail_fast ship" speed="36.11" length="39.97" width="3.50" shape="-63.60,-79.25 -62.75,-86.62 -61.42,-94.93 -59.40,-105.22 -56.39,-118.53"/>
    </edge>
    <edge id=":39_0" function="internal">
        <lane id=":39_0_0" index="0" disallow="pedestrian tram rail_urban rail rail_electric rail_fast ship" speed="36.11" length="39.08" width="3.50" shape="-31.60,-168.15 -40.62,-148.52 -47.82,-132.59"/>
    </edge>
    <edge id=":39_1" function="internal">
        <lane id=":39_1_0" index="0" disallow="pedestrian tram rail_urban rail rail_electric rail_fast ship" speed="11.94" length="34.96" width="3.50" shape="-31.60,-168.15 -33.36,-164.72 -34.80,-162.49 -36.48,-160.41 -38.42,-158.56 -39.55,-157.71 -40.73,-156.98 -41.99,-156.35 -43.30,-155.85 -44.66,-155.48 -46.04,-155.25 -47.43,-155.14 -48.84,-155.16 -51.50,-155.51 -54.08,-156.19 -56.56,-157.13 -60.02,-158.86"/>
    </edge>
    <edge id=":39_2" function="internal">
        <lane id=":39_2_0" index="0" disallow="pedestrian tram rail_urban rail rail_electric rail_fast ship" speed="10.92" length="29.05" width="3.50" shape="-58.30,-161.91 -55.31,-160.41 -53.22,-159.62 -51.06,-159.04 -48.84,-158.76 -47.73,-158.74 -46.61,-158.83 -45.51,-159.01 -44.43,-159.31 -43.39,-159.70 -42.39,-160.20 -41.44,-160.79 -40.54,-161.46 -38.93,-163.00 -37.52,-164.74 -36.31,-166.62 -34.79,-169.61"/>
    </edge>
    <edge id=":39_3" function="internal">
        <lane id=":39_3_0" index="0" disallow="pedestrian tram rail_urban rail rail_electric rail_fast ship" speed="12.90" length="34.93" width="3.50" shape="-58.30,-161.91 -55.02,-159.84 -52.96,-158.27 -51.05,-156.53 -49.32,-154.60 -47.85,-152.47 -46.68,-150.17 -45.86,-147.72 -45.41,-145.17 -45.33,-142.58 -45.57,-140.01 -46.10,-137.47 -46.86,-135.00 -47.82,-132.59"/>
    </edge>
    <edge id=":39_4" function="internal">
        <lane id=":39_4_0" index="0" disallow="pedestrian tram rail_urban rail rail_electric rail_fast ship" speed="11.95" length="29.80" width="3.50" shape="-51.05,-133.93 -50.19,-136.10 -49.53,-138.24 -49.08,-140.41 -48.87,-142.58 -48.95,-144.74 -49.32,-146.84 -50.00,-148.87 -50.98,-150.77 -52.23,-152.55 -53.69,-154.19 -55.34,-155.68 -57.12,-157.04 -60.02,-158.86"/>
    </edge>
    <edge id=":39_5" function="internal">
        <lane id=":39_5_0" index="0" disallow="pedestrian tram rail_urban rail rail_electric rail_fast ship" speed="36.11" length="39.21" width="3.50" shape="-51.05,-133.93 -43.81,-149.95 -34.79,-169.61"/>
    </edge>
    <edge id=":40_0" function="internal">
        <lane id=":40_0_0" index="0" disallow="pedestrian tram rail_urban rail rail_electric rail_fast ship" speed="36.11" length="20.76" width="3.50" shape="-99.97,-182.91 -100.58,-183.45 -115.17,-197.05"/>
    </edge>
    <edge id=":40_1" function="internal">
        <lane id=":40_1_0" index="0" disallow="pedestrian tram rail_urban rail rail_electric rail_fast ship" speed="8.05" length="10.05" width="3.50" shape="-99.97,-182.91 -99.82,-182.89 -100.26,-183.90 -100.37,-184.99 -100.18,-186.08 -99.52,-187.58 -98.25,-189.39 -96.40,-191.42"/>
    </edge>
    <edge id=":40_2" function="internal">
        <lane id=":40_2_0" index="0" disallow="pedestrian tram rail_urban rail rail_electric rail_fast ship" speed="10.34" length="30.09" width="3.50" shape="-112.80,-199.63 -109.88,-197.13 -107.28,-195.26 -105.06,-193.97 -102.71,-192.96 -100.86,-192.46 -98.95,-192.27 -97.04,-192.46 -95.22,-193.07 -93.57,-194.04 -92.12,-195.30 -90.87,-196.76 -89.47,-198.91 -88.58,-200.61"/>
    </edge>
    <edge id=":40_3" function="internal">
        <lane id=":40_3_0" index="0" disallow="pedestrian tram rail_urban rail rail_electric rail_fast ship" speed="36.11" length="23.80" width="3.50" shape="-112.80,-199.63 -98.10,-185.91 -95.60,-183.19"/>
    </edge>

    <edge id="57389" from="40" to="37" priority="3" type="highway.residential" spreadType="center" length="0.21" shape="-101.03,-193.74 -92.80,-178.94">
        <lane id="57389_0" index="0" disallow="pedestrian tram rail_urban rail rail_electric rail_fast ship" speed="36.11" length="0.21" width="3.50" customShape="1" shape="-95.60,-183.19 -95.47,-183.03"/>
    </edge>
    <edge id="57390" from="37" to="40" priority="3" type="highway.residential" spreadType="center" length="0.20" shape="-95.85,-177.25 -104.07,-192.06">
        <lane id="57390_0" index="0" disallow="pedestrian tram rail_urban rail rail_electric rail_fast ship" speed="36.11" length="0.20" width="3.49" customShape="1" shape="-99.84,-182.76 -99.97,-182.91"/>
    </edge>
    <edge id="57392" from="34" to="40" priority="3" type="highway.residential" spreadType="center" length="20.85" shape="-128.09,-213.78 -101.35,-194.09">
        <lane id="57392_0" index="0" disallow="pedestrian tram rail_urban rail rail_electric rail_fast ship" speed="36.11" length="20.85" width="3.50" customShape="1" shape="-128.09,-213.78 -120.45,-206.70 -112.79,-199.62"/>
    </edge>
    <edge id="57393" from="40" to="28" priority="3" type="highway.residential" spreadType="center" length="19.43" shape="-103.42,-191.28 -130.49,-211.23">
        <lane id="57393_0" index="0" disallow="pedestrian tram rail_urban rail rail_electric rail_fast ship" speed="36.11" length="19.43" width="3.50" customShape="1" shape="-115.17,-197.05 -122.83,-204.14 -129.43,-210.25"/>
    </edge>
    <edge id="57755" from="31" to="38" priority="3" type="highway.residential" spreadType="center" length="81.94">
        <lane id="57755_0" index="0" disallow="pedestrian tram rail_urban rail rail_electric rail_fast ship" speed="36.11" length="81.94" width="3.50" customShape="1" shape="-5.79,-53.06 -2.88,-64.47 -2.04,-68.99 -1.73,-72.55 -1.79,-75.62 -2.15,-78.15 -2.80,-80.61 -3.75,-82.98 -4.24,-83.88 -4.98,-84.57 -6.37,-85.22 -12.58,-87.57 -18.43,-89.39 -25.37,-91.13 -35.39,-93.13 -52.66,-96.31"/>
    </edge>
    <edge id="57770" from="38" to="18" priority="3" type="highway.residential" spreadType="center" length="70.00" shape="-59.93,-99.87 -64.98,-9.14">
        <lane id="57770_0" index="0" disallow="pedestrian tram rail_urban rail rail_electric rail_fast ship" speed="36.11" length="70.00" width="3.50" customShape="1" shape="-60.11,-78.97 -61.03,-67.47 -63.54,-28.91 -64.98,-9.14"/>
    </edge>
    <edge id="57771" from="32" to="38" priority="3" type="highway.residential" spreadType="center" length="70.00" shape="-68.47,-9.43 -63.42,-100.07">
        <lane id="57771_0" index="0" disallow="pedestrian tram rail_urban rail rail_electric rail_fast ship" speed="36.11" length="70.00" width="3.50" customShape="1" shape="-68.47,-9.43 -67.04,-29.04 -64.52,-67.71 -63.60,-79.26"/>
    </edge>
    <edge id="57773" from="39" to="38" priority="3" type="highway.residential" spreadType="center" length="15.87" shape="-45.56,-153.78 -59.99,-99.49">
        <lane id="57773_0" index="0" disallow="pedestrian tram rail_urban rail rail_electric rail_fast ship" speed="36.11" length="15.87" width="3.50" customShape="1" shape="-47.82,-132.59 -49.78,-127.89 -51.68,-122.61 -53.02,-117.62"/>
    </edge>
    <edge id="57774" from="38" to="39" priority="3" type="highway.residential" spreadType="center" length="16.37" shape="-63.37,-100.38 -48.94,-154.68">
        <lane id="57774_0" index="0" disallow="pedestrian tram rail_urban rail rail_electric rail_fast ship" speed="36.11" length="16.37" width="3.50" customShape="1" shape="-56.39,-118.53 -55.02,-123.63 -53.05,-129.13 -51.03,-133.97"/>
    </edge>
    <edge id="57776" from="24" to="39" priority="3" type="highway.residential" spreadType="center" length="70.00" shape="-0.36,-230.75 -45.77,-153.26">
        <lane id="57776_0" index="0" disallow="pedestrian tram rail_urban rail rail_electric rail_fast ship" speed="36.11" length="70.00" width="3.50" customShape="1" shape="-0.36,-230.75 -10.43,-211.91 -16.93,-199.48 -23.06,-186.86 -31.61,-168.14"/>
    </edge>
    <edge id="57777" from="39" to="7" priority="3" type="highway.residential" spreadType="center" length="70.00" shape="-48.79,-155.03 -3.54,-232.22">
        <lane id="57777_0" index="0" disallow="pedestrian tram rail_urban rail rail_electric rail_fast ship" speed="36.11" length="70.00" width="3.50" customShape="1" shape="-34.79,-169.61 -26.23,-188.34 -20.07,-201.01 -13.56,-213.49 -3.54,-232.22"/>
    </edge>
    <edge id="58039" from="23" to="38" priority="3" type="highway.residential" spreadType="center" length="16.09" shape="-93.28,-112.84 -61.02,-101.56">
        <lane id="58039_0" index="0" disallow="pedestrian tram rail_urban rail rail_electric rail_fast ship" speed="36.11" length="16.09" width="3.50" customShape="1" shape="-93.28,-112.84 -85.75,-109.97 -78.24,-107.12"/>
    </edge>
    <edge id="58040" from="38" to="19" priority="3" type="highway.residential" spreadType="center" length="16.08" shape="-62.17,-98.26 -94.52,-109.56">
        <lane id="58040_0" index="0" disallow="pedestrian tram rail_urban rail rail_electric rail_fast ship" speed="36.11" length="16.08" width="3.50" customShape="1" shape="-79.49,-103.85 -86.99,-106.70 -94.52,-109.56"/>
    </edge>
    <edge id="58156" from="36" to="35" priority="3" type="highway.residential" spreadType="center" length="70.00">
        <lane id="58156_0" index="0" disallow="pedestrian tram rail_urban rail rail_electric rail_fast ship" speed="36.11" length="70.00" width="3.50" customShape="1" shape="-125.30,-90.96 -125.53,-95.65 -126.64,-114.71 -127.46,-121.69 -130.60,-141.54 -131.30,-148.03 -131.54,-153.55 -131.42,-158.07 -131.20,-160.57"/>
    </edge>
    <edge id="58221" from="35" to="37" priority="3" type="highway.residential" spreadType="center" length="40.20">
        <lane id="58221_0" index="0" disallow="pedestrian tram rail_urban rail rail_electric rail_fast ship" speed="36.11" length="40.20" width="3.50" customShape="1" shape="-131.20,-160.57 -130.66,-164.07 -129.88,-166.92 -128.99,-169.11 -127.82,-171.16 -126.72,-172.56 -125.44,-173.78 -124.00,-174.81 -122.42,-175.61 -120.74,-176.18 -118.42,-176.61 -116.06,-176.74 -113.70,-176.60 -111.56,-176.39 -100.74,-175.30"/>
    </edge>
    <edge id="58490" from="40" to="26" priority="3" type="highway.residential" spreadType="center" length="81.65">
        <lane id="58490_0" index="0" disallow="pedestrian tram rail_urban rail rail_electric rail_fast ship" speed="36.11" length="81.65" width="3.50" customShape="1" shape="-93.51,-190.06 -84.08,-210.25 -80.42,-216.90 -66.18,-241.44 -64.64,-244.05 -63.77,-246.43 -63.04,-249.90 -62.57,-253.92 -61.85,-264.14"/>
    </edge>
    <edge id="58524" from="37" to="39" priority="3" type="highway.residential" spreadType="center" length="26.15" shape="-93.53,-179.65 -46.42,-155.71">
        <lane id="58524_0" index="0" disallow="pedestrian tram rail_urban rail rail_electric rail_fast ship" speed="36.11" length="26.15" width="3.50" customShape="1" shape="-81.06,-174.78 -70.40,-168.75 -58.30,-161.91"/>
    </edge>
    <edge id="58525" from="39" to="37" priority="3" type="highway.residential" spreadType="center" length="26.15" shape="-48.00,-152.59 -95.12,-176.53">
        <lane id="58525_0" index="0" disallow="pedestrian tram rail_urban rail rail_electric rail_fast ship" speed="36.11" length="26.15" width="3.50" customShape="1" shape="-60.02,-158.86 -72.12,-165.70 -82.78,-171.73"/>
    </edge>
    <edge id="59463" from="28" to="33" priority="3" type="highway.residential" spreadType="center" length="20.56">
        <lane id="59463_0" index="0" disallow="pedestrian tram rail_urban rail rail_electric rail_fast ship" speed="36.11" length="20.56" width="3.50" customShape="1" shape="-131.50,-212.26 -133.72,-214.51 -142.09,-224.19 -145.34,-227.45"/>
    </edge>

    <junction id="18" type="dead_end" x="-64.98" y="-9.14" incLanes="57770_0" intLanes="" shape="-63.24,-9.01 -66.72,-9.27" rightOfWay="edgePriority"/>
    <junction id="19" type="dead_end" x="-94.52" y="-109.56" incLanes="58040_0" intLanes="" shape="-95.14,-107.93 -93.90,-111.20" rightOfWay="edgePriority"/>
    <junction id="23" type="dead_end" x="-93.28" y="-112.84" incLanes="" intLanes="" shape="-93.90,-111.20 -92.66,-114.47" rightOfWay="edgePriority"/>
    <junction id="24" type="dead_end" x="-0.36" y="-230.75" incLanes="" intLanes="" shape="-1.90,-231.57 1.19,-229.92" rightOfWay="edgePriority"/>
    <junction id="26" type="dead_end" x="-61.85" y="-264.14" incLanes="58490_0" intLanes="" shape="-63.60,-264.26 -60.11,-264.01" rightOfWay="edgePriority"/>
    <junction id="28" type="priority" x="-130.49" y="-211.23" incLanes="57393_0" intLanes=":28_0_0" shape="-130.61,-208.96 -128.24,-211.53 -130.26,-213.49 -132.75,-211.03" rightOfWay="edgePriority">
        <request index="0" response="0" foes="0" cont="0"/>
    </junction>
    <junction id="31" type="dead_end" x="-5.79" y="-53.06" incLanes="" intLanes="" shape="-4.10,-52.63 -7.49,-53.49" rightOfWay="edgePriority"/>
    <junction id="32" type="dead_end" x="-68.47" y="-9.43" incLanes="" intLanes="" shape="-66.72,-9.30 -70.21,-9.56" rightOfWay="edgePriority"/>
    <junction id="33" type="dead_end" x="-145.34" y="-227.45" incLanes="59463_0" intLanes="" shape="-146.58,-226.22 -144.10,-228.68" rightOfWay="edgePriority"/>
    <junction id="34" type="dead_end" x="-128.09" y="-213.78" incLanes="" intLanes="" shape="-129.28,-212.49 -126.90,-215.06" rightOfWay="edgePriority"/>
    <junction id="35" type="priority" x="-131.20" y="-160.57" incLanes="58156_0" intLanes=":35_0_0" shape="-132.95,-160.66 -129.47,-160.36 -132.92,-160.90" rightOfWay="edgePriority">
        <request index="0" response="0" foes="0" cont="0"/>
    </junction>
    <junction id="36" type="dead_end" x="-125.30" y="-90.96" incLanes="" intLanes="" shape="-123.55,-91.04 -127.05,-90.88" rightOfWay="edgePriority"/>
    <junction id="37" type="priority" x="-94.33" y="-178.09" incLanes="58525_0 57389_0 58221_0" intLanes=":37_0_0 :37_1_0 :37_2_0 :37_3_0" shape="-83.65,-170.21 -80.20,-176.30 -96.69,-187.29 -101.94,-182.47 -100.56,-177.04 -100.91,-173.56 -97.13,-173.31 -94.25,-173.26 -91.87,-173.18 -89.58,-172.81 -86.98,-171.90">
        <request index="0" response="0000" foes="1100" cont="0"/>
        <request index="1" response="0000" foes="1000" cont="0"/>
        <request index="2" response="0001" foes="0001" cont="0"/>
        <request index="3" response="0011" foes="0011" cont="0"/>
    </junction>
    <junction id="38" type="priority" x="-61.68" y="-99.94" incLanes="57755_0 57773_0 58039_0 57771_0" intLanes=":38_0_0 :38_1_0 :38_2_0 :38_3_0 :38_4_0 :38_5_0 :38_6_0 :38_7_0 :38_8_0" shape="-52.97,-94.59 -52.34,-98.03 -53.98,-100.48 -54.05,-103.17 -53.64,-106.85 -52.73,-111.52 -51.33,-117.16 -58.08,-118.98 -59.82,-114.25 -62.17,-110.72 -65.12,-108.41 -68.68,-107.31 -72.85,-107.43 -77.62,-108.75 -80.11,-102.21 -75.23,-99.88 -71.31,-96.95 -68.37,-93.44 -66.39,-89.35 -65.38,-84.66 -65.34,-79.39 -58.37,-78.83 -57.85,-83.85 -57.18,-87.92 -56.36,-91.02 -55.38,-93.17 -54.26,-94.36">
        <request index="0" response="000001000" foes="001001000" cont="0"/>
        <request index="1" response="110011000" foes="111011000" cont="0"/>
        <request index="2" response="100111000" foes="100111000" cont="0"/>
        <request index="3" response="000000000" foes="001000111" cont="0"/>
        <request index="4" response="110000000" foes="111000110" cont="0"/>
        <request index="5" response="100000000" foes="100000100" cont="0"/>
        <request index="6" response="100011011" foes="100011011" cont="0"/>
        <request index="7" response="000000000" foes="000010010" cont="0"/>
        <request index="8" response="000000000" foes="001110110" cont="0"/>
    </junction>
    <junction id="39" type="priority" x="-47.26" y="-154.18" incLanes="57776_0 58524_0 57774_0" intLanes=":39_0_0 :39_1_0 :39_2_0 :39_3_0 :39_4_0 :39_5_0" shape="-30.01,-167.43 -36.38,-170.33 -38.86,-165.99 -41.75,-162.92 -45.06,-161.13 -48.77,-160.62 -52.90,-161.39 -57.44,-163.43 -60.89,-157.34 -56.68,-154.46 -53.61,-151.22 -51.67,-147.61 -50.87,-143.64 -51.20,-139.30 -52.66,-134.60 -46.20,-131.91">
        <request index="0" response="000000" foes="001000" cont="0"/>
        <request index="1" response="110000" foes="111000" cont="0"/>
        <request index="2" response="100000" foes="100000" cont="0"/>
        <request index="3" response="100011" foes="100011" cont="0"/>
        <request index="4" response="000000" foes="000010" cont="0"/>
        <request index="5" response="000000" foes="001110" cont="0"/>
    </junction>
    <junction id="40" type="priority" x="-102.46" y="-192.74" incLanes="57390_0 57392_0" intLanes=":40_0_0 :40_1_0 :40_2_0 :40_3_0" shape="-96.91,-176.99 -91.73,-181.22 -91.92,-189.32 -95.09,-190.80 -98.25,-190.46 -100.92,-191.98 -104.13,-194.37 -107.74,-197.41 -111.60,-200.90 -116.36,-195.76">
        <request index="0" response="0000" foes="0000" cont="0"/>
        <request index="1" response="1100" foes="1100" cont="0"/>
        <request index="2" response="0000" foes="0010" cont="0"/>
        <request index="3" response="0000" foes="0010" cont="0"/>
    </junction>
    <junction id="7" type="dead_end" x="-3.54" y="-232.22" incLanes="57777_0" intLanes="" shape="-5.08,-233.04 -2.00,-231.39" rightOfWay="edgePriority"/>

    <connection from="57389" to="58524" fromLane="0" toLane="0" contPos="-4.00" shape="-96.52,-184.32 -95.04,-183.13 -90.68,-180.35 -82.49,-175.59" via=":37_1_0" dir="s" state="M"/>
    <connection from="57390" to="57393" fromLane="0" toLane="0" contPos="-4.00" shape="-99.15,-182.01 -100.58,-183.45 -115.17,-197.05" via=":40_0_0" dir="s" state="M"/>
    <connection from="57390" to="58490" fromLane="0" toLane="0" contPos="-4.00" shape="-99.15,-182.01 -99.82,-182.89 -100.26,-183.90 -100.37,-184.99 -100.18,-186.08 -99.52,-187.58 -98.25,-189.39 -95.66,-192.23 -91.44,-196.58 -89.71,-198.72 -88.58,-200.61" via=":40_1_0" dir="l" state="m"/>
    <connection from="57392" to="58490" fromLane="0" toLane="0" contPos="-4.00" shape="-112.80,-199.63 -109.88,-197.13 -107.28,-195.26 -105.06,-193.97 -102.71,-192.96 -100.86,-192.46 -98.95,-192.27 -97.04,-192.46 -95.22,-193.07 -93.57,-194.04 -92.12,-195.30 -90.87,-196.76 -89.47,-198.91 -88.58,-200.61" via=":40_2_0" dir="r" state="M"/>
    <connection from="57392" to="57389" fromLane="0" toLane="0" contPos="-4.00" shape="-112.80,-199.63 -98.10,-185.91 -96.60,-184.41" via=":40_3_0" dir="s" state="M"/>
    <connection from="57393" to="59463" fromLane="0" toLane="0" contPos="-4.00" via=":28_0_0" dir="s" state="M"/>
    <connection from="57755" to="57770" fromLane="0" toLane="0" contPos="-4.00" shape="-40.92,-94.15 -43.88,-94.55 -46.88,-94.61 -49.26,-94.32 -50.99,-93.87 -52.65,-93.18 -54.18,-92.24 -55.54,-91.06 -56.70,-89.69 -57.66,-88.18 -58.65,-85.99 -59.49,-83.12 -59.99,-80.16 -60.11,-78.97" via=":38_0_0" dir="r" state="m"/>
    <connection from="57755" to="58040" fromLane="0" toLane="0" contPos="-4.00" shape="-40.92,-94.15 -53.43,-96.64 -63.86,-99.07 -71.73,-101.24 -78.03,-103.31 -79.49,-103.85" via=":38_1_0" dir="s" state="m"/>