<routes>
	<vehicle depart="0.1" departLane="0" departPos="14.340743414983233" departSpeed="0.51016197" id="322" type="bus">
		<route edges=":88_4 14339"/>
	</vehicle>
	<vehicle depart="0.1" departLane="0" departPos="5.709166063783648" departSpeed="0.89122325" id="37" type="passenger">
		<route edges="14705 17531"/>
	</vehicle>
	<vehicle depart="0.1" departLane="0" departPos="8.029757902865885" departSpeed="15.505479" id="310" type="passenger">
		<route edges="14704 14701 14698"/>
	</vehicle>
</routes>
