<routes>
	<vehicle depart="0.1" departLane="0" departPos="3.0490947496450453" departSpeed="0.034731915" id="324" type="bicycle">
		<route edges="103129 102490"/>
	</vehicle>
	<vehicle depart="0.1" departLane="0" departPos="29.101146460681015" departSpeed="0.00014492817" id="33" type="passenger">
		<route edges="103129 102490"/>
	</vehicle>
	<vehicle depart="0.1" departLane="0" departPos="4.63188806416543" departSpeed="0.0" id="38" type="passenger">
		<route edges=":27_2 102625"/>
	</vehicle>
	<vehicle depart="0.1" departLane="0" departPos="16.736371953503543" departSpeed="0.0" id="310" type="passenger">
		<route edges="102490 102720"/>
	</vehicle>
	<vehicle depart="0.1" departLane="0" departPos="16.595513051489434" departSpeed="0.0034035895" id="317" type="passenger">
		<route edges="103129 102490"/>
	</vehicle>
	<vehicle depart="0.1" departLane="0" departPos="9.084563757539897" departSpeed="0.011330636" id="322" type="passenger">
		<route edges="103129 102490"/>
	</vehicle>
	<vehicle depart="0.1" departLane="0" departPos="5.9536138313185845" departSpeed="14.592384" id="328" type="passenger">
		<route edges=":27_0 102489 102330"/>
	</vehicle>
	<vehicle depart="0.1" departLane="0" departPos="11.299161750575966" departSpeed="0.054182468" id="330" type="passenger">
		<route edges="102332 103129"/>
	</vehicle>
	<vehicle depart="0.1" departLane="0" departPos="21.599286427725282" departSpeed="0.00081148197" id="35" type="motorcycle">
		<route edges="103129 102490"/>
	</vehicle>
	<vehicle depart="0.1" departLane="0" departPos="9.355793679830878" departSpeed="1.6625596e-05" id="313" type="truck">
		<route edges="102490 102720"/>
	</vehicle>
</routes>
