<routes>
	<vehicle depart="0.1" departLane="0" departPos="63.28530361686847" departSpeed="1.8144555" id="31" type="passenger">
		<route edges="11533 11298 11337"/>
	</vehicle>
	<vehicle depart="0.1" departLane="0" departPos="18.744254485120805" departSpeed="2.4257198" id="34" type="passenger">
		<route edges=":40_1 11654"/>
	</vehicle>
	<vehicle depart="0.1" departLane="0" departPos="13.38114144517081" departSpeed="17.699955" id="352" type="passenger">
		<route edges="11298 11295 11292"/>
	</vehicle>
	<vehicle depart="0.1" departLane="0" departPos="35.40235288541838" departSpeed="9.8236334" id="363" type="passenger">
		<route edges="11653 11298"/>
	</vehicle>
	<vehicle depart="0.1" departLane="0" departPos="20.456162861598653" departSpeed="7.7398451" id="364" type="passenger">
		<route edges="11653 11298"/>
	</vehicle>
	<vehicle depart="0.1" departLane="0" departPos="32.46691690681382" departSpeed="11.15885" id="357" type="truck">
		<route edges=":40_3 11298 11337"/>
	</vehicle>
</routes>
