<!-- generated on 2020-12-18 16:02:28.214982 by ipykernel_launcher.py v1_2_0+5214-53edc58fcd
-->
<edges>
	<edge from="1" function="normal" id="3431" length="7.746632106922337" numLanes="5" priority="1" speed="36.11111111111111" spreadType="center" to="2">
		<lane allow="moped bicycle pedestrian custom1 trailer evehicle rail_urban ship private truck vip custom2 authority delivery rail_electric taxi tram army hov coach motorcycle passenger bus rail emergency" index="0" length="7.746632106922337" shape="8.844149999999999,20.5732 5.30205,13.5627" speed="36.11111111111111" width="2.841755522559956"/>
		<lane allow="moped bicycle pedestrian custom1 trailer evehicle rail_urban ship private truck vip custom2 authority delivery rail_electric taxi tram army hov coach motorcycle passenger bus rail emergency" index="1" length="7.746632106922337" shape="11.4714,19.2245 7.98855,12.2166" speed="36.11111111111111" width="3.064659380746904"/>
		<lane allow="moped bicycle pedestrian custom1 trailer evehicle rail_urban ship private truck vip custom2 authority delivery rail_electric taxi tram army hov coach motorcycle passenger bus rail emergency" index="2" length="7.746632106922337" shape="14.18245,17.832749999999997 10.7348,10.8581" speed="36.11111111111111" width="3.0301778330652485"/>
		<lane allow="moped bicycle pedestrian custom1 trailer evehicle rail_urban ship private truck vip custom2 authority delivery rail_electric taxi tram army hov coach motorcycle passenger bus rail emergency" index="3" length="7.746632106922337" shape="16.9007,16.4373 13.4693,9.4921" speed="36.11111111111111" width="3.0528378404363363"/>
		<lane allow="moped bicycle pedestrian custom1 trailer evehicle rail_urban ship private truck vip custom2 authority delivery rail_electric taxi tram army hov coach motorcycle passenger bus rail emergency" index="4" length="7.746632106922337" shape="19.625999999999998,15.038250000000001 16.19505,8.0493" speed="36.11111111111111" width="3.0460097258544643"/>
	</edge>
	<edge from="2" function="normal" id="3438" length="8.438893355322131" numLanes="6" priority="1" speed="36.11111111111111" spreadType="center" to="3">
		<lane allow="moped bicycle pedestrian custom1 trailer evehicle rail_urban ship private truck vip custom2 authority delivery rail_electric taxi tram army hov coach motorcycle passenger bus rail emergency" index="0" length="8.438893355322131" shape="5.30205,13.5627 -1.3728,7.28595" speed="36.11111111111111" width="2.943512814648512"/>
		<lane allow="moped bicycle pedestrian custom1 trailer evehicle rail_urban ship private truck vip custom2 authority delivery rail_electric taxi tram army hov coach motorcycle passenger bus rail emergency" index="1" length="8.438893355322131" shape="5.30205,13.5627 1.4685,5.95305" speed="36.11111111111111" width="2.943512814648512"/>
		<lane allow="moped bicycle pedestrian custom1 trailer evehicle rail_urban ship private truck vip custom2 authority delivery rail_electric taxi tram army hov coach motorcycle passenger bus rail emergency" index="2" length="8.438893355322131" shape="7.98855,12.2166 4.21705,4.6215" speed="36.11111111111111" width="3.0546153096584847"/>
		<lane allow="moped bicycle pedestrian custom1 trailer evehicle rail_urban ship private truck vip custom2 authority delivery rail_electric taxi tram army hov coach motorcycle passenger bus rail emergency" index="3" length="8.438893355322131" shape="10.7348,10.8581 6.9481,3.27865" speed="36.11111111111111" width="3.032458014548594"/>
		<lane allow="moped bicycle pedestrian custom1 trailer evehicle rail_urban ship private truck vip custom2 authority delivery rail_electric taxi tram army hov coach motorcycle passenger bus rail emergency" index="4" length="8.438893355322131" shape="13.4693,9.4921 9.667,1.89745" speed="36.11111111111111" width="3.0528378404363363"/>
		<lane allow="moped bicycle pedestrian custom1 trailer evehicle rail_urban ship private truck vip custom2 authority delivery rail_electric taxi tram army hov coach motorcycle passenger bus rail emergency" index="5" length="8.438893355322131" shape="16.19505,8.0493 12.454899999999999,0.48450000000000004" speed="36.11111111111111" width="3.115279160845782"/>
	</edge>
	<edge from="3" function="normal" id="3450" length="24.494871241480368" numLanes="6" priority="1" speed="36.11111111111111" spreadType="center" to="4">
		<lane allow="moped bicycle pedestrian custom1 trailer evehicle rail_urban ship private truck vip custom2 authority delivery rail_electric taxi tram army hov coach motorcycle passenger bus rail emergency" index="0" length="24.494871241480368" shape="-1.3728,7.28595 -4.5375,1.0519 -8.325800000000001,-6.63525 -12.4115,-14.57985" speed="36.11111111111111" width="3.2241062653082633"/>
		<lane allow="moped bicycle pedestrian custom1 trailer evehicle rail_urban ship private truck vip custom2 authority delivery rail_electric taxi tram army hov coach motorcycle passenger bus rail emergency" index="1" length="24.494871241480368" shape="1.4685,5.95305 -1.539,-0.09854999999999997 -5.36195,-8.0468 -9.465800000000002,-16.18355" speed="36.11111111111111" width="2.8665619215359706"/>
		<lane allow="moped bicycle pedestrian custom1 trailer evehicle rail_urban ship private truck vip custom2 authority delivery rail_electric taxi tram army hov coach motorcycle passenger bus rail emergency" index="2" length="24.494871241480368" shape="4.21705,4.6215 1.19405,-1.42995 -2.65975,-9.377749999999999 -6.823300000000001,-17.5021" speed="36.11111111111111" width="3.004221073756058"/>
		<lane allow="moped bicycle pedestrian custom1 trailer evehicle rail_urban ship private truck vip custom2 authority delivery rail_electric taxi tram army hov coach motorcycle passenger bus rail emergency" index="3" length="24.494871241480368" shape="6.9481,3.27865 3.8617,-2.8796 -0.02299999999999991,-10.827 -4.0386500000000005,-18.8765" speed="36.11111111111111" width="3.0189875720181423"/>
		<lane allow="moped bicycle pedestrian custom1 trailer evehicle rail_urban ship private truck vip custom2 authority delivery rail_electric taxi tram army hov coach motorcycle passenger bus rail emergency" index="4" length="24.494871241480368" shape="9.667,1.89745 6.54855,-4.33725 2.66385,-12.28465 -1.27555,-20.2698" speed="36.11111111111111" width="3.018395509206838"/>
		<lane allow="moped bicycle pedestrian custom1 trailer evehicle rail_urban ship private truck vip custom2 authority delivery rail_electric taxi tram army hov coach motorcycle passenger bus rail emergency" index="5" length="24.494871241480368" shape="12.454899999999999,0.48450000000000004 9.24245,-5.841150000000001 5.35775,-13.78855 1.42025,-21.64295" speed="36.11111111111111" width="3.0323687935341894"/>
	</edge>
	<edge from="4" function="normal" id="3664" length="45.621593371778964" numLanes="2" priority="1" speed="36.11111111111111" spreadType="center" to="5">
		<lane allow="moped bicycle pedestrian custom1 trailer evehicle rail_urban ship private vip custom2 authority delivery rail_electric taxi tram army hov coach motorcycle passenger rail emergency" index="0" length="45.621593371778964" shape="-1.27555,-20.2698 -5.0339,-27.6512 -7.1693,-32.05915 -8.2342,-34.59105 -8.707650000000001,-36.6389 -8.83545,-39.0043 -8.394,-41.791 -7.6589,-44.3572 -6.5924499999999995,-46.29595 -5.1796,-48.442350000000005 -2.0593500000000002,-51.4173 3.9852499999999997,-54.9 12.998,-59.6147" speed="36.11111111111111" width="2.9349357471672195"/>
		<lane allow="moped bicycle pedestrian custom1 trailer evehicle rail_urban ship private vip custom2 authority delivery rail_electric taxi tram army hov coach motorcycle passenger rail emergency" index="1" length="45.621593371778964" shape="1.42025,-21.64295 -1.93115,-28.419150000000002 -3.53905,-32.46455 -4.20285,-34.8558 -4.4792000000000005,-36.63715 -4.6472,-38.66995 -4.417949999999999,-40.7777 -3.7697000000000003,-42.543549999999996 -2.80335,-44.1246 -1.4773500000000002,-45.743849999999995 0.9955,-48.312250000000006 6.2600999999999996,-52.0706 14.54285,-56.5231" speed="36.11111111111111" width="3.0323687935341894"/>
	</edge>
	<edge from="5" function="normal" id="3495" length="15.184501575044738" numLanes="3" priority="1" speed="36.11111111111111" spreadType="center" to="6">
		<lane allow="moped bicycle pedestrian custom1 trailer evehicle rail_urban ship private truck vip custom2 authority delivery rail_electric taxi tram army hov coach motorcycle passenger bus rail emergency" index="0" length="15.184501575044738" shape="11.37495,-62.942800000000005 20.102249999999998,-67.23785 25.01005,-69.65315" speed="36.11111111111111" width="3.8765859644795655"/>
		<lane allow="moped bicycle pedestrian custom1 trailer evehicle rail_urban ship private truck vip custom2 authority delivery rail_electric taxi tram army hov coach motorcycle passenger bus rail emergency" index="1" length="15.184501575044738" shape="12.998,-59.6147 21.72515,-63.908249999999995 26.643749999999997,-66.32804999999999" speed="36.11111111111111" width="3.511789538113012"/>
		<lane allow="moped bicycle pedestrian custom1 trailer evehicle rail_urban ship private truck vip custom2 authority delivery rail_electric taxi tram army hov coach motorcycle passenger bus rail emergency" index="2" length="15.184501575044738" shape="14.54285,-56.5231 23.22165,-60.791700000000006 28.16845,-63.22475" speed="36.11111111111111" width="3.382313814535842"/>
	</edge>
	<edge from="4" function="normal" id="3610" length="13.553882434287969" numLanes="3" priority="1" speed="36.11111111111111" spreadType="center" to="7">
		<lane allow="moped bicycle pedestrian custom1 trailer evehicle rail_urban ship private truck vip custom2 authority delivery rail_electric taxi tram army hov coach motorcycle passenger bus rail emergency" index="0" length="13.553882434287969" shape="-9.465800000000002,-16.18355 -15.502500000000001,-28.35945" speed="36.11111111111111" width="2.8665619215359706"/>
		<lane allow="moped bicycle pedestrian custom1 trailer evehicle rail_urban ship private truck vip custom2 authority delivery rail_electric taxi tram army hov coach motorcycle passenger bus rail emergency" index="1" length="13.553882434287969" shape="-6.823300000000001,-17.5021 -12.77355,-29.6933" speed="36.11111111111111" width="3.0173836033888684"/>
		<lane allow="moped bicycle pedestrian custom1 trailer evehicle rail_urban ship private truck vip custom2 authority delivery rail_electric taxi tram army hov coach motorcycle passenger bus rail emergency" index="2" length="13.553882434287969" shape="-4.0386500000000005,-18.8765 -10.01745,-31.04045" speed="36.11111111111111" width="3.118054550517039"/>
	</edge>
	<edge from="7" function="normal" id="3646" length="16.50963275573512" numLanes="3" priority="1" speed="36.11111111111111" spreadType="center" to="8">
		<lane allow="moped bicycle pedestrian custom1 trailer evehicle rail_urban ship private truck vip custom2 authority delivery rail_electric taxi tram army hov coach motorcycle passenger bus rail emergency" index="0" length="16.50963275573512" shape="-15.502500000000001,-28.35945 -16.9365,-31.251849999999997 -18.56975,-34.5464 -19.97485,-37.380300000000005 -21.36025,-40.1747 -22.83585,-43.150999999999996" speed="36.11111111111111" width="3.0575892938718914"/>
		<lane allow="moped bicycle pedestrian custom1 trailer evehicle rail_urban ship private truck vip custom2 authority delivery rail_electric taxi tram army hov coach motorcycle passenger bus rail emergency" index="1" length="16.50963275573512" shape="-12.77355,-29.6933 -14.2028,-32.6215 -15.81705,-35.929 -17.2081,-38.777100000000004 -18.588,-41.60255 -20.056800000000003,-44.6098" speed="36.11111111111111" width="2.990382731357306"/>
		<lane allow="moped bicycle pedestrian custom1 trailer evehicle rail_urban ship private truck vip custom2 authority delivery rail_electric taxi tram army hov coach motorcycle passenger bus rail emergency" index="2" length="16.50963275573512" shape="-10.01745,-31.04045 -11.46805,-33.991699999999994 -13.0932,-37.2981 -14.4942,-40.1472 -15.8926,-42.99085 -17.37975,-46.01495" speed="36.11111111111111" width="3.056448910091583"/>
	</edge>
	<edge from="8" function="normal" id="3626" length="12.190574110865333" numLanes="3" priority="1" speed="36.11111111111111" spreadType="center" to="9">
		<lane allow="moped bicycle pedestrian custom1 trailer evehicle rail_urban ship private truck vip custom2 authority delivery rail_electric taxi tram army hov coach motorcycle passenger bus rail emergency" index="0" length="12.190574110865333" shape="-22.83585,-43.150999999999996 -28.251150000000003,-54.07275" speed="36.11111111111111" width="3.2869467488841395"/>
		<lane allow="moped bicycle pedestrian custom1 trailer evehicle rail_urban ship private truck vip custom2 authority delivery rail_electric taxi tram army hov coach motorcycle passenger bus rail emergency" index="1" length="12.190574110865333" shape="-20.056800000000003,-44.6098 -25.4075,-55.5654" speed="36.11111111111111" width="2.9693589611227558"/>
		<lane allow="moped bicycle pedestrian custom1 trailer evehicle rail_urban ship private truck vip custom2 authority delivery rail_electric taxi tram army hov coach motorcycle passenger bus rail emergency" index="2" length="12.190574110865333" shape="-17.37975,-46.01495 -22.75945,-56.955349999999996" speed="36.11111111111111" width="3.0119886487169896"/>
	</edge>
	<edge from="9" function="normal" id="3542" length="42.04503365774767" numLanes="3" priority="1" speed="36.11111111111111" spreadType="center" to="10">
		<lane allow="moped bicycle pedestrian custom1 trailer evehicle rail_urban ship private truck vip custom2 authority delivery rail_electric taxi tram army hov coach motorcycle passenger rail emergency" index="0" length="42.04503365774767" shape="-28.251150000000003,-54.07275 -32.41245,-62.611450000000005 -36.4657,-71.54145 -40.237750000000005,-80.25995 -43.8625,-89.50389999999999 -45.18025,-92.71705" speed="36.11111111111111" width="2.8481341330773025"/>
		<lane allow="moped bicycle pedestrian custom1 trailer evehicle rail_urban ship private truck vip custom2 authority delivery rail_electric taxi tram army hov coach motorcycle passenger bus rail emergency" index="1" length="42.04503365774767" shape="-25.4075,-55.5654 -29.6509,-64.1202 -33.733050000000006,-72.9036 -37.4737,-81.5918 -41.127700000000004,-90.71209999999999 -42.473749999999995,-94.05064999999999" speed="36.11111111111111" width="2.9693589611227558"/>
		<lane allow="moped bicycle pedestrian custom1 trailer evehicle rail_urban ship private truck vip custom2 authority delivery rail_electric taxi tram army hov coach motorcycle passenger bus rail emergency" index="2" length="42.04503365774767" shape="-22.75945,-56.955349999999996 -26.98225,-65.6353 -31.032600000000002,-74.35759999999999 -34.80415,-83.0454 -38.299,-91.84475 -39.71169999999999,-95.41159999999999" speed="36.11111111111111" width="2.962201547835665"/>
	</edge>
	<edge from="4" function="normal" id="3604" length="15.83780930439205" numLanes="1" priority="1" speed="36.11111111111111" spreadType="center" to="11">
		<lane allow="moped bicycle pedestrian custom1 trailer evehicle rail_urban ship private vip custom2 authority delivery rail_electric taxi tram army hov coach motorcycle passenger rail emergency" index="0" length="15.83780930439205" shape="-12.4115,-14.57985 -13.45375,-15.853950000000001 -14.7125,-17.4058 -16.1005,-18.80205 -17.9809,-20.03735 -19.6821,-20.62115 -21.478299999999997,-20.818849999999998 -23.4,-20.59935 -25.716,-19.84715" speed="36.11111111111111" width="3.843390931196044"/>
	</edge>
	<edge from="11" function="normal" id="3487" length="21.42834305383199" numLanes="3" priority="1" speed="36.11111111111111" spreadType="center" to="12">
		<lane allow="moped bicycle pedestrian custom1 trailer evehicle rail_urban ship private truck vip custom2 authority delivery rail_electric taxi tram army hov coach motorcycle passenger bus rail emergency" index="0" length="21.42834305383199" shape="-25.716,-19.84715 -34.929500000000004,-15.40775 -43.766400000000004,-10.58905 -44.76275,-10.043849999999999" speed="36.11111111111111" width="4.576431161942676"/>
		<lane allow="moped bicycle pedestrian custom1 trailer evehicle rail_urban ship private truck vip custom2 authority delivery rail_electric taxi tram army hov coach motorcycle passenger bus rail emergency" index="1" length="21.42834305383199" shape="-27.4333,-24.301099999999998 -36.823750000000004,-19.259050000000002 -45.470200000000006,-14.08905 -46.497150000000005,-13.4726" speed="36.11111111111111" width="3.108481309256984"/>
		<lane allow="moped bicycle pedestrian custom1 trailer evehicle rail_urban ship private truck vip custom2 authority delivery rail_electric taxi tram army hov coach motorcycle passenger bus rail emergency" index="2" length="21.42834305383199" shape="-28.569,-27.532200000000003 -38.3507,-22.284550000000003 -46.997150000000005,-17.11455 -48.02675,-16.496450000000003" speed="36.11111111111111" width="3.664585112942525"/>
	</edge>
	<edge from="13" function="normal" id="3479" length="22.651817425696024" numLanes="3" priority="1" speed="36.11111111111111" spreadType="center" to="14">
		<lane allow="moped bicycle pedestrian custom1 trailer evehicle rail_urban ship private truck vip custom2 authority delivery rail_electric taxi tram army hov coach motorcycle passenger bus rail emergency" index="0" length="22.651817425696024" shape="-52.89005,-26.11075 -51.7475,-26.68865 -42.167500000000004,-31.441000000000003 -32.557050000000004,-36.224549999999994" speed="36.11111111111111" width="3.2311980966817857"/>
		<lane allow="moped bicycle pedestrian custom1 trailer evehicle rail_urban ship private truck vip custom2 authority delivery rail_electric taxi tram army hov coach motorcycle passenger rail emergency" index="1" length="22.651817425696024" shape="-51.47855,-23.320349999999998 -50.31675,-23.90805 -40.73675,-28.660400000000003 -31.12625,-33.44395" speed="36.11111111111111" width="3.0229731226062873"/>
		<lane allow="moped bicycle pedestrian custom1 trailer evehicle rail_urban ship private truck vip custom2 authority delivery rail_electric taxi tram army hov coach motorcycle passenger rail emergency" index="2" length="22.651817425696024" shape="-50.106,-20.606949999999998 -48.910399999999996,-21.211750000000002 -39.3304,-25.964100000000002 -29.819499999999998,-30.6847" speed="36.11111111111111" width="3.0586164927953936"/>
	</edge>
	<edge from="14" function="normal" id="3672" length="43.429643178518916" numLanes="1" priority="1" speed="36.11111111111111" spreadType="center" to="15">
		<lane allow="moped bicycle pedestrian custom1 trailer evehicle rail_urban ship private vip custom2 authority delivery rail_electric taxi tram army hov coach motorcycle passenger rail emergency" index="0" length="43.429643178518916" shape="-29.819499999999998,-30.6847 -24.662300000000002,-33.225049999999996 -21.0795,-34.70955 -17.23365,-36.068200000000004 -14.452950000000001,-37.0385 -11.967,-37.535349999999994 -9.73215,-37.747749999999996 -7.39595,-37.63075 -5.75145,-37.49635 -4.642,-37.2401 -3.7022500000000003,-36.6571 -2.783,-35.3069 -1.6273,-33.378550000000004 1.04015,-29.1411 2.6139,-26.089350000000003 4.08565,-22.9772" speed="36.11111111111111" width="2.9171821763475796"/>
	</edge>
	<edge from="15" function="normal" id="3456" length="24.710920579823167" numLanes="3" priority="1" speed="36.11111111111111" spreadType="center" to="16">
		<lane allow="moped bicycle pedestrian custom1 trailer evehicle rail_urban ship private truck vip custom2 authority delivery rail_electric taxi tram army hov coach motorcycle passenger bus rail emergency" index="0" length="24.710920579823167" shape="9.6123,-25.7369 13.2081,-18.5433 17.06145,-10.6262 20.424100000000003,-3.5178000000000003" speed="36.11111111111111" width="3.047668597469219"/>
		<lane allow="moped bicycle pedestrian custom1 trailer evehicle rail_urban ship private truck vip custom2 authority delivery rail_electric taxi tram army hov coach motorcycle passenger bus rail emergency" index="1" length="24.710920579823167" shape="6.78345,-24.34265 10.64355,-16.77575 14.3218,-9.210149999999999 17.76065,-2.1797" speed="36.11111111111111" width="2.9148241130469628"/>
		<lane allow="moped bicycle pedestrian custom1 trailer evehicle rail_urban ship private truck vip custom2 authority delivery rail_electric taxi tram army hov coach motorcycle passenger bus rail emergency" index="2" length="24.710920579823167" shape="4.08565,-22.9772 8.01415,-15.215 11.8026,-7.512449999999999 15.17415,-0.86585" speed="36.11111111111111" width="2.8880043801905835"/>
	</edge>
	<edge from="16" function="normal" id="3462" length="8.466645302154804" numLanes="3" priority="1" speed="36.11111111111111" spreadType="center" to="17">
		<lane allow="moped bicycle pedestrian custom1 trailer evehicle rail_urban ship private truck vip custom2 authority delivery rail_electric taxi tram army hov coach motorcycle passenger bus rail emergency" index="0" length="8.466645302154804" shape="20.424100000000003,-3.5178000000000003 24.3034,4.04495" speed="36.11111111111111" width="3.047668597469219"/>
		<lane allow="moped bicycle pedestrian custom1 trailer evehicle rail_urban ship private truck vip custom2 authority delivery rail_electric taxi tram army hov coach motorcycle passenger bus rail emergency" index="1" length="8.466645302154804" shape="17.76065,-2.1797 21.57875,5.43" speed="36.11111111111111" width="2.9148241130469628"/>
		<lane allow="moped bicycle pedestrian custom1 trailer evehicle rail_urban ship private truck vip custom2 authority delivery rail_electric taxi tram army hov coach motorcycle passenger bus rail emergency" index="2" length="8.466645302154804" shape="15.17415,-0.86585 18.9148,6.72965" speed="36.11111111111111" width="2.8880043801905835"/>
	</edge>
	<edge from="17" function="normal" id="3470" length="7.644506528383635" numLanes="3" priority="1" speed="36.11111111111111" spreadType="center" to="18">
		<lane allow="moped bicycle pedestrian custom1 trailer evehicle rail_urban ship private truck vip custom2 authority delivery rail_electric taxi tram army hov coach motorcycle passenger bus rail emergency" index="0" length="7.644506528383635" shape="24.3034,4.04495 27.6948,10.896" speed="36.11111111111111" width="3.054999162029346"/>
		<lane allow="moped bicycle pedestrian custom1 trailer evehicle rail_urban ship private truck vip custom2 authority delivery rail_electric taxi tram army hov coach motorcycle passenger bus rail emergency" index="1" length="7.644506528383635" shape="21.57875,5.43 24.99425,12.282350000000001" speed="36.11111111111111" width="2.9980111023810427"/>
		<lane allow="moped bicycle pedestrian custom1 trailer evehicle rail_urban ship private truck vip custom2 authority delivery rail_electric taxi tram army hov coach motorcycle passenger bus rail emergency" index="2" length="7.644506528383635" shape="18.9148,6.72965 22.31675,13.6569" speed="36.11111111111111" width="2.9350875710956226"/>
	</edge>
	<edge from="14" function="normal" id="3636" length="10.130444963203738" numLanes="2" priority="1" speed="36.11111111111111" spreadType="center" to="19">
		<lane allow="moped bicycle pedestrian custom1 trailer evehicle rail_urban ship private truck vip custom2 authority delivery rail_electric taxi tram army hov coach motorcycle passenger bus rail emergency" index="0" length="10.130444963203738" shape="-32.557050000000004,-36.224549999999994 -23.545949999999998,-40.90989999999999" speed="36.11111111111111" width="3.232186618993402"/>
		<lane allow="moped bicycle pedestrian custom1 trailer evehicle rail_urban ship private truck vip custom2 authority delivery rail_electric taxi tram army hov coach motorcycle passenger bus rail emergency" index="1" length="10.130444963203738" shape="-31.12625,-33.44395 -22.10155,-38.0462" speed="36.11111111111111" width="3.0254656269738063"/>
	</edge>
	<edge from="19" function="normal" id="3658" length="24.83401336288985" numLanes="2" priority="1" speed="36.11111111111111" spreadType="center" to="20">
		<lane allow="moped bicycle pedestrian custom1 trailer evehicle rail_urban ship private truck vip custom2 authority delivery rail_electric taxi tram army hov coach motorcycle passenger bus rail emergency" index="0" length="24.83401336288985" shape="-23.545949999999998,-40.90989999999999 -20.65015,-42.415800000000004 -17.99465,-43.796549999999996 -15.2777,-45.20925 -12.2894,-46.763149999999996 -9.58775,-48.168049999999994 -6.94305,-49.5432 -4.2275,-50.9552 -1.45575,-52.39645" speed="36.11111111111111" width="3.3089087884074417"/>
		<lane allow="moped bicycle pedestrian custom1 trailer evehicle rail_urban ship private truck vip custom2 authority delivery rail_electric taxi tram army hov coach motorcycle passenger bus rail emergency" index="1" length="24.83401336288985" shape="-22.10155,-38.0462 -19.23355,-39.5088 -16.56255,-40.870850000000004 -13.82425,-42.2672 -10.859649999999998,-43.778949999999995 -8.1492,-45.161199999999994 -5.49925,-46.51245 -2.7648,-47.90675 0.02200000000000002,-49.3279" speed="36.11111111111111" width="3.105783426126164"/>
	</edge>
	<edge from="20" function="normal" id="3676" length="16.155928389455166" numLanes="2" priority="1" speed="36.11111111111111" spreadType="center" to="5">
		<lane allow="moped bicycle pedestrian custom1 trailer evehicle rail_urban ship private truck vip custom2 authority delivery rail_electric taxi tram army hov coach motorcycle passenger bus rail emergency" index="0" length="16.155928389455166" shape="-1.45575,-52.39645 4.56395,-55.402699999999996 12.998,-59.6147" speed="36.11111111111111" width="3.5034549033775226"/>
		<lane allow="moped bicycle pedestrian custom1 trailer evehicle rail_urban ship private truck vip custom2 authority delivery rail_electric taxi tram army hov coach motorcycle passenger bus rail emergency" index="1" length="16.155928389455166" shape="0.02200000000000002,-49.3279 6.04665,-52.313199999999995 14.54285,-56.5231" speed="36.11111111111111" width="3.3082245268421513"/>
	</edge>
	<edge from="14" function="normal" id="3600" length="24.197467511365538" numLanes="1" priority="1" speed="36.11111111111111" spreadType="center" to="9">
		<lane allow="moped bicycle pedestrian custom1 trailer evehicle rail_urban ship private vip custom2 authority delivery rail_electric taxi tram army hov coach motorcycle passenger rail emergency" index="0" length="24.197467511365538" shape="-32.557050000000004,-36.224549999999994 -28.06875,-38.6195 -26.07575,-39.8096 -24.4727,-40.720200000000006 -23.7296,-41.20015 -23.305500000000002,-41.78775 -23.2697,-42.5947 -23.676900000000003,-44.006299999999996 -24.477800000000002,-45.97245 -25.45825,-48.070800000000006 -28.251150000000003,-54.07275" speed="36.11111111111111" width="3.232186618993402"/>
	</edge>
	<edge from="21" function="normal" id="3502" length="11.53901742997741" numLanes="2" priority="1" speed="36.11111111111111" spreadType="center" to="22">
		<lane allow="moped bicycle pedestrian custom1 trailer evehicle rail_urban ship private truck vip custom2 authority delivery rail_electric taxi tram army hov coach motorcycle passenger bus rail emergency" index="0" length="11.53901742997741" shape="32.71195,-53.9775 27.66225,-51.509100000000004 22.31785,-48.89655" speed="36.11111111111111" width="3.607231317783765"/>
		<lane allow="moped bicycle pedestrian custom1 trailer evehicle rail_urban ship private truck vip custom2 authority delivery rail_electric taxi tram army hov coach motorcycle passenger bus rail emergency" index="1" length="11.53901742997741" shape="31.10735,-57.24335 26.13175,-54.8107 20.7409,-52.17525" speed="36.11111111111111" width="3.630791497731595"/>
	</edge>
	<edge from="22" function="normal" id="3528" length="6.575577396130318" numLanes="3" priority="1" speed="36.11111111111111" spreadType="center" to="23">
		<lane allow="moped bicycle pedestrian custom1 trailer evehicle rail_urban ship private truck vip custom2 authority delivery rail_electric taxi tram army hov coach motorcycle passenger bus rail emergency" index="0" length="6.575577396130318" shape="22.31785,-48.89655 17.895,-42.874700000000004" speed="36.11111111111111" width="3.2457372413675167"/>
		<lane allow="moped bicycle pedestrian custom1 trailer evehicle rail_urban ship private truck vip custom2 authority delivery rail_electric taxi tram army hov coach motorcycle passenger bus rail emergency" index="1" length="6.575577396130318" shape="22.31785,-48.89655 16.40585,-45.95655" speed="36.11111111111111" width="3.6024336135451502"/>
		<lane allow="moped bicycle pedestrian custom1 trailer evehicle rail_urban ship private truck vip custom2 authority delivery rail_electric taxi tram army hov coach motorcycle passenger bus rail emergency" index="2" length="6.575577396130318" shape="20.7409,-52.17525 14.85285,-49.24795" speed="36.11111111111111" width="3.6713079753679083"/>
	</edge>
	<edge from="23" function="normal" id="3534" length="6.608363657139339" numLanes="3" priority="1" speed="36.11111111111111" spreadType="center" to="24">
		<lane allow="moped bicycle pedestrian custom1 trailer evehicle rail_urban ship private truck vip custom2 authority delivery rail_electric taxi tram army hov coach motorcycle passenger bus rail emergency" index="0" length="6.608363657139339" shape="17.895,-42.874700000000004 11.91545,-39.98524999999999" speed="36.11111111111111" width="3.190167196245363"/>
		<lane allow="moped bicycle pedestrian custom1 trailer evehicle rail_urban ship private truck vip custom2 authority delivery rail_electric taxi tram army hov coach motorcycle passenger bus rail emergency" index="1" length="6.608363657139339" shape="16.40585,-45.95655 10.4657,-43.011799999999994" speed="36.11111111111111" width="3.5215687697388507"/>