<!-- generated on 2020-12-18 15:55:25.303125 by ipykernel_launcher.py v1_2_0+5214-53edc58fcd
-->
<connections>
	<connection contPos="-4.0" from="23" fromLane="4" keepClear="true" to="20" toLane="5"/>
	<connection contPos="-4.0" from="20" fromLane="5" keepClear="true" to="22" toLane="4"/>
	<connection contPos="-4.0" from="23" fromLane="3" keepClear="true" to="20" toLane="4"/>
	<connection contPos="-4.0" from="20" fromLane="4" keepClear="true" to="22" toLane="3"/>
	<connection contPos="-4.0" from="23" fromLane="2" keepClear="true" to="20" toLane="3"/>
	<connection contPos="-4.0" from="20" fromLane="3" keepClear="true" to="22" toLane="2"/>
	<connection contPos="-4.0" from="23" fromLane="1" keepClear="true" to="20" toLane="2"/>
	<connection contPos="-4.0" from="20" fromLane="2" keepClear="true" to="22" toLane="1"/>
	<connection contPos="-4.0" from="23" fromLane="0" keepClear="true" to="20" toLane="1"/>
	<connection contPos="-4.0" from="20" fromLane="1" keepClear="true" to="22" toLane="0"/>
	<connection contPos="-4.0" from="21" fromLane="0" keepClear="true" to="20" toLane="0"/>
	<connection contPos="-4.0" from="20" fromLane="0" keepClear="true" to="19" toLane="0"/>
</connections>
