<?xml version="1.0" encoding="UTF-8"?>

<!-- generated on Fri Dec 18 15:55:25 2020 by Eclipse SUMO netconvert Version 1.8.0
<configuration xmlns:xsi="http://www.w3.org/2001/XMLSchema-instance" xsi:noNamespaceSchemaLocation="http://sumo.dlr.de/xsd/netconvertConfiguration.xsd">

    <input>
        <node-files value="./converted_scenarios/NGSIM/US101/USA_US101-22_4_I-1-1/nodes.net.xml"/>
        <edge-files value="./converted_scenarios/NGSIM/US101/USA_US101-22_4_I-1-1/edges.net.xml"/>
        <connection-files value="./converted_scenarios/NGSIM/US101/USA_US101-22_4_I-1-1/_connections.net.xml"/>
        <tllogic-files value="./converted_scenarios/NGSIM/US101/USA_US101-22_4_I-1-1/_tll.net.xml"/>
    </input>

    <output>
        <output-file value="./converted_scenarios/NGSIM/US101/USA_US101-22_4_I-1-1/USA_US101-22_4_I-1-1.net.xml"/>
    </output>

    <processing>
        <plain.extend-edge-shape value="true"/>
        <geometry.remove.keep-edges.explicit value="true"/>
        <geometry.avoid-overlap value="true"/>
        <offset.disable-normalization value="true"/>
    </processing>

    <junctions>
        <no-turnarounds value="true"/>
        <junctions.internal-link-detail value="20"/>
    </junctions>

    <report>
        <aggregate-warnings value="5"/>
    </report>

    <random_number>
        <seed value="1234"/>
    </random_number>

</configuration>
-->

<net version="1.6" junctionCornerDetail="5" junctionLinkDetail="20" limitTurnSpeed="5.50" xmlns:xsi="http://www.w3.org/2001/XMLSchema-instance" xsi:noNamespaceSchemaLocation="http://sumo.dlr.de/xsd/net_file.xsd">

    <location netOffset="0.00,0.00" convBoundary="-31.19,-172.93,204.45,35.54" origBoundary="-31.19,-172.93,208.93,40.58" projParameter="!"/>

    <edge id=":2_0" function="internal">
        <lane id=":2_0_0" index="0" disallow="bus truck rail_fast" speed="36.11" length="5.26" width="3.68" shape="11.04,-9.08 15.01,-12.53"/>
    </edge>
    <edge id=":2_1" function="internal">
        <lane id=":2_1_0" index="0" disallow="bus truck rail_fast" speed="36.11" length="5.25" width="3.45" shape="13.50,-6.25 17.44,-9.73"/>
        <lane id=":2_1_1" index="1" disallow="bus truck rail_fast" speed="36.11" length="5.25" width="3.22" shape="15.79,-3.62 19.69,-7.15"/>
        <lane id=":2_1_2" index="2" disallow="bus rail_fast" speed="36.11" length="5.25" width="3.05" shape="17.98,-1.10 21.90,-4.60"/>
        <lane id=":2_1_3" index="3" disallow="bus truck rail_fast" speed="36.11" length="5.25" width="3.27" shape="20.17,1.42 24.15,-2.01"/>
        <lane id=":2_1_4" index="4" disallow="bus truck rail_fast" speed="36.11" length="5.25" width="3.48" shape="22.39,3.97 26.41,0.58"/>
    </edge>
    <edge id=":3_0" function="internal">
        <lane id=":3_0_0" index="0" disallow="bus truck rail_fast" speed="36.11" length="13.53" width="3.96" shape="161.20,-140.41 171.34,-149.37"/>
    </edge>
    <edge id=":3_1" function="internal">
        <lane id=":3_1_0" index="0" disallow="bus truck rail_fast" speed="36.11" length="13.54" width="3.51" shape="163.67,-137.64 173.85,-146.57"/>
        <lane id=":3_1_1" index="1" disallow="bus truck rail_fast" speed="36.11" length="13.54" width="3.29" shape="165.92,-135.11 176.11,-144.03"/>
        <lane id=":3_1_2" index="2" disallow="bus truck rail_fast" speed="36.11" length="13.54" width="3.09" shape="168.15,-132.61 178.33,-141.53"/>
        <lane id=":3_1_3" index="3" disallow="bus truck rail_fast" speed="36.11" length="13.54" width="3.36" shape="170.38,-130.10 180.57,-139.00"/>
        <lane id=":3_1_4" index="4" disallow="bus truck rail_fast" speed="36.11" length="13.54" width="3.48" shape="172.64,-127.57 182.85,-136.44"/>
    </edge>

    <edge id="19" from="3" to="6" priority="1" spreadType="center" length="33.94">
        <lane id="19_0" index="0" disallow="rail_fast" speed="36.11" length="33.94" width="3.96" customShape="1" shape="171.34,-149.37 177.35,-154.79 190.32,-166.66 196.88,-172.93"/>
    </edge>
    <edge id="20" from="2" to="3" priority="1" spreadType="center" length="212.34">
        <lane id="20_0" index="0" disallow="bus truck rail_fast" speed="36.11" length="212.34" width="3.68" acceleration="1" customShape="1" shape="15.01,-12.53 17.73,-14.88 18.45,-15.52 21.15,-17.90 21.88,-18.55 24.59,-20.94 25.32,-21.58 27.99,-23.90 28.71,-24.54 29.44,-25.17 31.44,-26.92 32.16,-27.56 34.85,-29.92 35.57,-30.57 38.32,-32.97 39.04,-33.61 41.62,-35.84 42.34,-36.49 45.06,-38.82 45.78,-39.46 48.62,-41.98 49.34,-42.62 52.00,-44.97 52.73,-45.62 55.54,-48.04 56.26,-48.69 58.89,-50.99 59.62,-51.64 62.32,-54.01 62.97,-54.58 63.05,-54.66 65.88,-57.04 66.60,-57.68 69.22,-60.04 69.94,-60.68 72.61,-63.00 73.34,-63.64 76.13,-66.09 76.85,-66.74 79.36,-68.90 80.09,-69.55 82.86,-71.97 83.59,-72.62 86.28,-74.88 87.01,-75.52 89.75,-77.98 90.47,-78.62 91.13,-79.19 93.21,-81.00 93.93,-81.64 96.58,-83.93 97.31,-84.57 100.00,-86.89 100.72,-87.54 105.23,-91.45 105.95,-92.09 108.82,-94.55 109.55,-95.19 112.43,-97.67 113.15,-98.32 115.97,-100.80 116.70,-101.44 119.37,-103.76 120.09,-104.40 122.67,-106.62 122.90,-106.82 123.60,-107.48 124.10,-107.94 126.41,-109.99 127.13,-110.64 129.99,-113.19 130.71,-113.84 133.56,-116.37 134.28,-117.02 137.03,-119.44 137.75,-120.09 139.64,-121.72 140.48,-122.45 142.19,-123.99 148.43,-129.28 151.02,-131.49 151.74,-132.13 154.56,-134.57 155.29,-135.21 155.94,-135.77 157.99,-137.56 158.71,-138.21 161.20,-140.41"/>
        <lane id="20_1" index="1" disallow="bus truck rail_fast" speed="36.11" length="212.34" width="3.45" customShape="1" shape="17.44,-9.73 17.53,-9.81 18.17,-10.38 20.02,-11.91 20.67,-12.47 20.79,-12.56 21.38,-13.06 21.56,-13.22 23.65,-15.11 24.37,-15.78 24.47,-15.86 27.03,-18.12 27.71,-18.72 30.44,-21.09 31.10,-21.68 31.64,-22.15 33.90,-24.19 34.54,-24.78 40.70,-30.07 41.38,-30.66 41.48,-30.75 42.38,-31.52 44.12,-33.07 44.83,-33.73 45.35,-34.18 47.50,-36.02 48.15,-36.60 51.04,-39.13 51.73,-39.74 53.39,-41.21 54.50,-42.22 55.21,-42.88 56.36,-43.90 57.96,-45.26 58.60,-45.83 61.30,-48.17 61.97,-48.76 64.36,-50.83 64.77,-51.19 65.50,-51.84 67.44,-53.47 68.33,-54.22 69.00,-54.82 71.60,-57.16 72.34,-57.82 75.07,-60.19 75.21,-60.32 75.72,-60.77 78.27,-63.01 78.60,-63.30 79.32,-63.95 81.82,-66.12 82.51,-66.75 85.30,-69.22 86.02,-69.87 86.97,-70.67 88.69,-72.11 89.35,-72.70 89.81,-73.11 92.06,-75.10 92.79,-75.75 92.87,-75.82 95.61,-78.18 96.26,-78.75 96.36,-78.83 97.78,-80.05 99.03,-81.12 99.68,-81.71 99.77,-81.78 100.78,-82.65 102.46,-84.11 103.18,-84.76 107.66,-88.69 108.38,-89.33 108.46,-89.40 111.24,-91.77 111.35,-91.87 111.80,-92.27 111.91,-92.36 114.81,-94.78 115.13,-95.07 115.22,-95.14 115.54,-95.42 118.27,-97.81 118.46,-97.98 119.18,-98.63 121.84,-100.96 122.56,-101.61 123.69,-102.59 125.41,-104.08 126.07,-104.67 126.65,-105.17 128.92,-107.17 129.61,-107.80 132.50,-110.38 133.19,-111.00 135.71,-113.23 136.04,-113.52 136.72,-114.12 138.70,-115.85 139.55,-116.58 140.20,-117.16 140.30,-117.24 143.09,-119.61 143.74,-120.19 146.37,-122.50 146.50,-122.62 147.21,-123.25 147.30,-123.33 149.47,-125.18 150.18,-125.78 150.85,-126.39 153.47,-128.66 154.14,-129.26 156.99,-131.77 157.14,-131.90 157.64,-132.35 160.21,-134.58 160.46,-134.79 161.14,-135.41 163.67,-137.64"/>
        <lane id="20_2" index="2" disallow="bus truck rail_fast" speed="36.11" length="212.34" width="3.22" customShape="1" shape="19.69,-7.15 20.27,-7.67 20.44,-7.80 23.81,-10.57 26.33,-12.81 26.44,-12.91 26.81,-13.25 29.43,-15.61 33.89,-19.46 36.76,-22.02 36.88,-22.12 37.52,-22.67 37.59,-22.74 40.49,-25.30 44.68,-28.85 47.52,-31.40 47.62,-31.48 48.62,-32.35 51.57,-35.00 55.68,-38.53 58.54,-41.07 58.65,-41.17 59.77,-42.12 62.72,-44.77 66.69,-48.24 69.66,-50.85 70.79,-51.85 73.76,-54.44 77.58,-57.77 80.58,-60.38 81.68,-61.36 84.65,-63.97 89.18,-67.98 92.19,-70.61 92.78,-71.12 95.78,-73.70 100.07,-77.39 103.06,-79.98 110.70,-86.70 113.73,-89.33 115.27,-90.63 117.58,-92.58 118.25,-93.17 120.58,-95.22 125.93,-100.01 128.91,-102.60 136.77,-109.61 137.93,-110.63 139.77,-112.23 140.88,-113.18 148.44,-119.59 148.77,-119.87 151.47,-122.22 151.80,-122.51 159.11,-129.10 159.44,-129.39 162.10,-131.70 162.46,-132.02 165.92,-135.11"/>
        <lane id="20_3" index="3" disallow="bus rail_fast" speed="36.11" length="212.34" width="3.05" customShape="1" shape="21.90,-4.60 23.55,-6.02 26.51,-8.65 28.65,-10.45 31.49,-12.97 31.60,-13.07 34.62,-15.64 37.58,-18.27 39.72,-20.12 42.58,-22.71 42.67,-22.78 45.73,-25.44 48.69,-28.08 50.73,-29.80 53.59,-32.32 53.72,-32.43 56.86,-35.07 59.82,-37.71 61.98,-39.57 64.84,-42.14 68.09,-45.00 71.02,-47.67 72.90,-49.33 75.93,-51.95 79.15,-54.74 82.15,-57.35 83.92,-58.91 86.90,-61.53 90.09,-64.35 93.08,-66.96 94.96,-68.63 97.93,-71.25 101.33,-74.24 104.32,-76.83 112.39,-83.79 115.40,-86.40 117.37,-88.10 120.36,-90.68 123.66,-93.57 126.65,-96.21 128.17,-97.55 131.15,-100.17 134.66,-103.29 137.61,-105.89 139.00,-107.13 141.96,-109.75 145.45,-112.77 148.47,-115.34 150.62,-117.16 153.61,-119.75 157.15,-122.92 160.11,-125.56 161.20,-126.54 164.27,-129.20 168.00,-132.48 168.15,-132.61"/>
        <lane id="20_4" index="4" disallow="bus truck rail_fast" speed="36.11" length="212.34" width="3.27" customShape="1" shape="24.15,-2.01 25.63,-3.29 25.82,-3.46 28.50,-5.96 28.68,-6.12 36.82,-13.06 36.99,-13.21 39.77,-15.80 39.94,-15.95 47.94,-22.83 50.80,-25.49 59.05,-32.54 59.17,-32.65 61.99,-35.27 62.12,-35.39 70.27,-42.38 70.38,-42.49 73.12,-45.05 81.09,-51.96 81.37,-52.21 84.08,-54.56 84.37,-54.81 92.15,-61.68 92.27,-61.79 95.18,-64.32 95.31,-64.43 103.42,-71.67 103.50,-71.74 106.43,-74.29 114.56,-81.32 114.70,-81.44 117.55,-83.92 117.70,-84.05 125.82,-91.04 125.92,-91.13 128.80,-93.63 128.93,-93.74 136.89,-100.81 139.87,-103.40 147.57,-110.23 147.81,-110.44 150.59,-112.85 150.81,-113.05 159.19,-120.24 159.46,-120.47 162.20,-122.86 162.48,-123.10 170.12,-129.86 170.26,-129.99 170.38,-130.10"/>
        <lane id="20_5" index="5" disallow="bus truck rail_fast" speed="36.11" length="212.34" width="3.48" customShape="1" shape="26.41,0.58 27.89,-0.67 28.12,-0.87 28.25,-0.99 30.86,-3.42 31.21,-3.73 39.28,-10.66 39.52,-10.87 39.63,-10.97 42.24,-13.40 42.60,-13.72 50.24,-20.15 50.47,-20.36 50.60,-20.47 53.21,-22.90 53.54,-23.21 61.44,-30.14 61.70,-30.37 61.77,-30.44 64.38,-32.87 64.74,-33.19 72.51,-39.77 72.74,-39.98 72.86,-40.09 75.47,-42.52 75.81,-42.83 83.33,-49.38 83.72,-49.72 86.32,-51.98 86.70,-52.31 94.47,-59.10 94.86,-59.44 97.46,-61.70 97.80,-62.00 105.74,-69.07 106.11,-69.40 108.71,-71.66 109.10,-72.00 116.96,-78.84 117.35,-79.18 119.95,-81.44 120.34,-81.78 128.04,-88.46 128.43,-88.80 131.03,-91.06 131.38,-91.37 139.15,-98.27 139.52,-98.60 142.12,-100.86 142.50,-101.19 150.09,-107.84 150.47,-108.18 153.07,-110.44 153.48,-110.79 161.49,-117.61 161.87,-117.93 164.50,-120.21 164.81,-120.49 172.36,-127.33 172.64,-127.57"/>
    </edge>
    <edge id="21" from="5" to="2" priority="1" spreadType="center" length="56.59">
        <lane id="21_0" index="0" disallow="rail_fast" speed="36.11" length="56.59" width="3.64" customShape="1" shape="-31.19,26.30 -25.45,21.63 -23.80,20.26 -15.25,13.16 -3.40,3.37 -3.08,3.10 2.78,-1.88 6.24,-4.88 11.04,-9.08"/>
    </edge>
    <edge id="22" from="3" to="4" priority="1" spreadType="center" length="33.77">
        <lane id="22_0" index="0" disallow="rail_fast" speed="36.11" length="33.77" width="3.51" customShape="1" shape="173.85,-146.57 179.17,-151.21 182.16,-153.82 190.29,-160.95 193.27,-163.56 199.95,-169.43"/>
        <lane id="22_1" index="1" disallow="bus truck rail_fast" speed="36.11" length="33.77" width="3.29" customShape="1" shape="176.11,-144.03 181.41,-148.58 181.52,-148.68 184.44,-151.22 184.52,-151.29 192.52,-158.30 195.52,-160.91 202.24,-166.82"/>
        <lane id="22_2" index="2" disallow="bus truck rail_fast" speed="36.11" length="33.77" width="3.09" customShape="1" shape="178.33,-141.53 179.25,-142.33 182.26,-144.91 183.75,-146.23 186.71,-148.86 190.35,-152.10 193.33,-154.69 194.60,-155.79 197.62,-158.37 201.32,-161.54 204.36,-164.20 204.46,-164.28"/>
        <lane id="22_3" index="3" disallow="bus truck rail_fast" speed="36.11" length="33.77" width="3.36" customShape="1" shape="180.57,-139.00 181.43,-139.75 181.55,-139.86 184.44,-142.37 192.27,-149.44 192.44,-149.59 195.31,-152.08 195.44,-152.20 203.56,-159.06 203.68,-159.17 206.56,-161.67 206.68,-161.77"/>
        <lane id="22_4" index="4" disallow="bus truck rail_fast" speed="36.11" length="33.77" width="3.48" customShape="1" shape="182.85,-136.44 183.80,-137.27 184.19,-137.61 186.79,-139.87 187.12,-140.16 194.61,-146.88 194.98,-147.20 197.58,-149.46 197.99,-149.81 205.94,-156.59 206.32,-156.92 208.94,-159.20"/>
    </edge>
    <edge id="23" from="1" to="2" priority="1" spreadType="center" length="56.14">
        <lane id="23_0" index="0" disallow="bus truck rail_fast" speed="36.11" length="56.14" width="3.57" customShape="1" shape="-27.36,30.49 -25.46,28.73 -17.65,21.61 -17.07,21.07 -14.71,18.90 -7.40,12.29 -6.60,11.55 -3.68,8.84 -0.62,6.09 4.19,1.92 7.14,-0.72 8.69,-2.06 13.50,-6.25"/>
        <lane id="23_1" index="1" disallow="bus rail_fast" speed="36.11" length="56.14" width="3.25" customShape="1" shape="-25.00,33.08 -23.10,31.33 -17.45,26.20 -15.24,24.18 -14.55,23.54 -12.38,21.55 -6.24,16.03 -4.17,14.13 -3.35,13.36 -1.31,11.51 4.51,6.39 6.55,4.56 7.40,3.76 9.40,1.96 15.51,-3.37 15.79,-3.62"/>
        <lane id="23_2" index="2" disallow="rail_fast" speed="36.11" length="56.14" width="3.19" customShape="1" shape="-22.73,35.55 -20.37,33.41 -17.46,30.72 -15.21,28.68 -12.31,26.01 -9.58,23.55 -6.66,20.88 -4.01,18.51 -1.11,15.86 1.45,13.57 4.38,10.90 6.64,8.93 9.57,6.33 12.34,3.94 15.27,1.29 17.71,-0.85 17.98,-1.10"/>
        <lane id="23_3" index="3" disallow="bus rail_fast" speed="36.11" length="56.14" width="3.21" customShape="1" shape="-20.47,38.02 -18.36,36.11 -18.10,35.87 -15.48,33.43 -15.22,33.19 -7.51,26.16 -7.34,26.00 -4.63,23.47 -4.50,23.35 3.51,16.18 3.69,16.02 6.39,13.50 6.51,13.39 14.55,6.47 14.63,6.40 17.48,3.74 17.60,3.63 20.17,1.42"/>
        <lane id="23_4" index="4" disallow="rail_fast" speed="36.11" length="56.14" width="3.48" customShape="1" shape="-18.13,40.58 -16.05,38.67 -15.76,38.40 -13.13,35.95 -12.83,35.68 -5.21,28.68 -4.92,28.41 -2.30,25.97 -1.98,25.68 5.80,18.74 6.09,18.47 8.73,16.01 9.06,15.71 16.91,8.85 17.21,8.59 19.86,6.12 20.22,5.80 22.39,3.97"/>
    </edge>

    <junction id="1" type="dead_end" x="-22.74" y="35.54" incLanes="" intLanes="" shape="-16.96,41.86 -28.57,29.17"/>
    <junction id="2" type="priority" x="19.11" y="-2.11" incLanes="21_0 23_0 23_1 23_2 23_3 23_4" intLanes=":2_0_0 :2_1_0 :2_1_1 :2_1_2 :2_1_3 :2_1_4" shape="27.55,1.90 13.81,-13.92 9.84,-10.45 12.24,-7.70 12.33,-7.60 23.53,5.28">
        <request index="0" response="000000" foes="000000" cont="0"/>
        <request index="1" response="000000" foes="000000" cont="0"/>
        <request index="2" response="000000" foes="000000" cont="0"/>
        <request index="3" response="000000" foes="000000" cont="0"/>
        <request index="4" response="000000" foes="000000" cont="0"/>
        <request index="5" response="000000" foes="000000" cont="0"/>
    </junction>
    <junction id="3" type="priority" x="177.79" y="-143.36" incLanes="20_0 20_1 20_2 20_3 20_4 20_5" intLanes=":3_0_0 :3_1_0 :3_1_1 :3_1_2 :3_1_3 :3_1_4" shape="184.00,-135.14 172.69,-147.88 170.01,-150.84 159.97,-141.78 173.79,-126.27">
        <request index="0" response="000000" foes="000000" cont="0"/>
        <request index="1" response="000000" foes="000000" cont="0"/>
        <request index="2" response="000000" foes="000000" cont="0"/>
        <request index="3" response="000000" foes="000000" cont="0"/>
        <request index="4" response="000000" foes="000000" cont="0"/>
        <request index="5" response="000000" foes="000000" cont="0"/>
    </junction>
    <junction id="4" type="dead_end" x="204.45" y="-164.30" incLanes="22_0 22_1 22_2 22_3 22_4" intLanes="" shape="198.78,-170.74 210.09,-157.89"/>
    <junction id="5" type="dead_end" x="-31.19" y="26.30" incLanes="" intLanes="" shape="-30.05,27.71 -32.34,24.89"/>
    <junction id="6" type="dead_end" x="196.88" y="-172.93" incLanes="19_0" intLanes="" shape="195.51,-174.36 198.25,-171.49"/>

    <connection from="20" to="19" fromLane="0" toLane="0" contPos="-4.00" via=":3_0_0" dir="R" state="M"/>
    <connection from="20" to="22" fromLane="1" toLane="0" contPos="-4.00" via=":3_1_0" dir="s" state="M"/>
    <connection from="20" to="22" fromLane="2" toLane="1" contPos="-4.00" via=":3_1_1" dir="s" state="M"/>
    <connection from="20" to="22" fromLane="3" toLane="2" contPos="-4.00" via=":3_1_2" dir="s" state="M"/>
    <connection from="20" to="22" fromLane="4" toLane="3" contPos="-4.00" via=":3_1_3" dir="s" state="M"/>
    <connection from="20" to="22" fromLane="5" toLane="4" contPos="-4.00" via=":3_1_4" dir="s" state="M"/>
    <connection from="21" to="20" fromLane="0" toLane="0" contPos="-4.00" via=":2_0_0" dir="s" state="M"/>
    <connection from="23" to="20" fromLane="0" toLane="1" contPos="-4.00" via=":2_1_0" dir="s" state="M"/>
    <connection from="23" to="20" fromLane="1" toLane="2" contPos="-4.00" via=":2_1_1" dir="s" state="M"/>
    <connection from="23" to="20" fromLane="2" toLane="3" contPos="-4.00" via=":2_1_2" dir="s" state="M"/>
    <connection from="23" to="20" fromLane="3" toLane="4" contPos="-4.00" via=":2_1_3" dir="s" state="M"/>
    <connection from="23" to="20" fromLane="4" toLane="5" contPos="-4.00" via=":2_1_4" dir="s" state="M"/>

    <connection from=":2_0" to="20" fromLane="0" toLane="0" dir="s" state="M"/>
    <connection from=":2_1" to="20" fromLane="0" toLane="1" dir="s" state="M"/>
    <connection from=":2_1" to="20" fromLane="1" toLane="2" dir="s" state="M"/>
    <connection from=":2_1" to="20" fromLane="2" toLane="3" dir="s" state="M"/>
    <connection from=":2_1" to="20" fromLane="3" toLane="4" dir="s" state="M"/>
    <connection from=":2_1" to="20" fromLane="4" toLane="5" dir="s" state="M"/>
    <connection from=":3_0" to="19" fromLane="0" toLane="0" dir="R" state="M"/>
    <connection from=":3_1" to="22" fromLane="0" toLane="0" dir="s" state="M"/>
    <connection from=":3_1" to="22" fromLane="1" toLane="1" dir="s" state="M"/>
    <connection from=":3_1" to="22" fromLane="2" toLane="2" dir="s" state="M"/>
    <connection from=":3_1" to="22" fromLane="3" toLane="3" dir="s" state="M"/>
    <connection from=":3_1" to="22" fromLane="4" toLane="4" dir="s" state="M"/>

</net>
