<routes>
	<vehicle depart="0.1" departLane="4" departPos="30.099985093376613" departSpeed="17.2456" id="605" type="passenger">
		<route edges="22"/>
	</vehicle>
	<vehicle depart="0.1" departLane="4" departPos="13.425748225763446" departSpeed="16.764" id="610" type="passenger">
		<route edges="22"/>
	</vehicle>
	<vehicle depart="0.1" departLane="1" departPos="0" departSpeed="15.2126" id="611" type="passenger">
		<route edges="22"/>
	</vehicle>
	<vehicle depart="0.1" departLane="2" departPos="198.12989816726557" departSpeed="15.1943" id="612" type="passenger">
		<route edges="20 22 22"/>
	</vehicle>
	<vehicle depart="0.1" departLane="5" departPos="201.90635252487627" departSpeed="15.2583" id="615" type="passenger">
		<route edges="20 22"/>
	</vehicle>
	<vehicle depart="0.1" departLane="3" departPos="206.30121549600838" departSpeed="16.7579" id="616" type="passenger">
		<route edges="20 22"/>
	</vehicle>
	<vehicle depart="0.1" departLane="1" departPos="193.7605707172858" departSpeed="19.4615" id="617" type="passenger">
		<route edges="20 22"/>
	</vehicle>
	<vehicle depart="0.1" departLane="3" departPos="3.3618917191476534" departSpeed="19.1262" id="618" type="passenger">
		<route edges="22"/>
	</vehicle>
	<vehicle depart="0.1" departLane="4" departPos="195.8937210423964" departSpeed="20.1351" id="619" type="passenger">
		<route edges="20 22"/>
	</vehicle>
	<vehicle depart="0.1" departLane="1" departPos="167.1096355850442" departSpeed="14.35" id="622" type="passenger">
		<route edges="20 22"/>
	</vehicle>
	<vehicle depart="0.1" departLane="3" departPos="178.10519131107623" departSpeed="16.1879" id="623" type="passenger">
		<route edges="20 22"/>
	</vehicle>
	<vehicle depart="0.1" departLane="5" departPos="182.93675199144838" departSpeed="15.237" id="624" type="passenger">
		<route edges="20 22"/>
	</vehicle>
	<vehicle depart="0.1" departLane="4" departPos="164.60667705782538" departSpeed="16.4226" id="629" type="passenger">
		<route edges="20 22"/>
	</vehicle>
	<vehicle depart="0.1" departLane="3" departPos="159.1560135175802" departSpeed="15.24" id="630" type="passenger">
		<route edges="20 22"/>
	</vehicle>
	<vehicle depart="0.1" departLane="1" departPos="143.202925959375" departSpeed="12.381" id="631" type="passenger">
		<route edges="20 22"/>
	</vehicle>
	<vehicle depart="0.1" departLane="2" departPos="143.55818482276456" departSpeed="14.7828" id="632" type="passenger">
		<route edges="20 22 22 22 22"/>
	</vehicle>
	<vehicle depart="0.1" departLane="1" departPos="122.27170494008864" departSpeed="13.7312" id="633" type="passenger">
		<route edges="20 22"/>
	</vehicle>
	<vehicle depart="0.1" departLane="3" departPos="138.42655068006437" departSpeed="15.2339" id="635" type="passenger">
		<route edges="20 22"/>
	</vehicle>
	<vehicle depart="0.1" departLane="4" departPos="131.72862443597572" departSpeed="16.764" id="636" type="passenger">
		<route edges="20 22"/>
	</vehicle>
	<vehicle depart="0.1" departLane="2" departPos="119.93956362713267" departSpeed="15.6332" id="639" type="passenger">
		<route edges="20 22"/>
	</vehicle>
	<vehicle depart="0.1" departLane="1" departPos="102.1103712036559" departSpeed="13.719" id="641" type="passenger">
		<route edges="20 22"/>
	</vehicle>
	<vehicle depart="0.1" departLane="5" departPos="102.34658860824402" departSpeed="16.9316" id="643" type="passenger">
		<route edges="20 22"/>
	</vehicle>
	<vehicle depart="0.1" departLane="2" departPos="92.39010314590666" departSpeed="16.1087" id="645" type="passenger">
		<route edges="20 20 20 22"/>
	</vehicle>
	<vehicle depart="0.1" departLane="3" departPos="108.99805098128768" departSpeed="15.1211" id="646" type="passenger">
		<route edges="20 22"/>
	</vehicle>
	<vehicle depart="0.1" departLane="4" departPos="72.60868304049514" departSpeed="15.24" id="648" type="passenger">
		<route edges="20 22"/>
	</vehicle>
	<vehicle depart="0.1" departLane="3" departPos="75.4748693258052" departSpeed="13.7038" id="649" type="passenger">
		<route edges="20 22"/>
	</vehicle>
	<vehicle depart="0.1" departLane="2" departPos="74.998463316726" departSpeed="13.6916" id="650" type="passenger">
		<route edges="20 22"/>
	</vehicle>
	<vehicle depart="0.1" departLane="1" departPos="67.3359122809494" departSpeed="13.4021" id="652" type="passenger">
		<route edges="20 22"/>
	</vehicle>
	<vehicle depart="0.1" departLane="5" departPos="75.35797808953059" departSpeed="18.285" id="653" type="passenger">
		<route edges="20 22"/>
	</vehicle>
	<vehicle depart="0.1" departLane="0" departPos="48.542370274489855" departSpeed="15.7947" id="656" type="passenger">
		<route edges="20 19"/>
	</vehicle>
	<vehicle depart="0.1" departLane="2" departPos="51.96884256656431" departSpeed="14.8346" id="658" type="passenger">
		<route edges="20 22"/>
	</vehicle>
	<vehicle depart="0.1" departLane="3" departPos="46.4684686924382" departSpeed="14.1" id="659" type="passenger">
		<route edges="20 22"/>
	</vehicle>
	<vehicle depart="0.1" departLane="4" departPos="49.65763737827354" departSpeed="14.8438" id="660" type="passenger">
		<route edges="20 22"/>
	</vehicle>
	<vehicle depart="0.1" departLane="5" departPos="41.97698427412036" departSpeed="17.4986" id="661" type="passenger">
		<route edges="20 22"/>
	</vehicle>
	<vehicle depart="0.1" departLane="2" departPos="26.05676212221628" departSpeed="14.8102" id="665" type="passenger">
		<route edges="20 22"/>
	</vehicle>
	<vehicle depart="0.1" departLane="3" departPos="25.12488962716585" departSpeed="15.5235" id="667" type="passenger">
		<route edges="20 22"/>
	</vehicle>
	<vehicle depart="0.1" departLane="0" departPos="32.01510492620625" departSpeed="13.7038" id="668" type="passenger">
		<route edges="20 20 22"/>
	</vehicle>
	<vehicle depart="0.1" departLane="4" departPos="33.64875362092772" departSpeed="13.716" id="669" type="passenger">
		<route edges="20 22"/>
	</vehicle>
	<vehicle depart="0.1" departLane="4" departPos="9.725253798833725" departSpeed="15.2156" id="671" type="passenger">
		<route edges="20 22"/>
	</vehicle>
	<vehicle depart="0.1" departLane="5" departPos="0" departSpeed="15.237" id="672" type="passenger">
		<route edges="20 22"/>
	</vehicle>
	<vehicle depart="0.1" departLane="3" departPos="56.22103303280831" departSpeed="15.0023" id="675" type="passenger">
		<route edges="23 20 20 22"/>
	</vehicle>
	<vehicle depart="0.1" departLane="4" departPos="45.56266513819906" departSpeed="15.2187" id="676" type="passenger">
		<route edges="23 20 22"/>
	</vehicle>
	<vehicle depart="0.1" departLane="1" departPos="43.55197642709882" departSpeed="14.7737" id="680" type="passenger">
		<route edges="23 20 22"/>
	</vehicle>
	<vehicle depart="0.1" departLane="4" departPos="27.141610839454003" departSpeed="13.7069" id="681" type="passenger">
		<route edges="23 20 22"/>
	</vehicle>
	<vehicle depart="0.1" departLane="3" departPos="34.348169208676595" departSpeed="12.2712" id="682" type="passenger">
		<route edges="23 20 20 22"/>
	</vehicle>
	<vehicle depart="0.1" departLane="2" departPos="23.15674515107292" departSpeed="13.399" id="683" type="passenger">
		<route edges="23 20 22"/>
	</vehicle>
	<vehicle depart="0.1" departLane="4" departPos="10.77089632479541" departSpeed="12.7955" id="687" type="passenger">
		<route edges="23 20 22"/>
	</vehicle>
	<vehicle depart="0.1" departLane="0" departPos="33.79923789208997" departSpeed="12.1798" id="689" type="passenger">
		<route edges="23 20 20 19"/>
	</vehicle>
	<vehicle depart="0.1" departLane="1" departPos="0" departSpeed="12.8016" id="690" type="passenger">
		<route edges="23 20 22"/>
	</vehicle>
	<vehicle depart="0.1" departLane="3" departPos="15.05630732400093" departSpeed="12.5212" id="691" type="passenger">
		<route edges="23 20 22"/>
	</vehicle>
	<vehicle depart="0.1" departLane="0" departPos="0" departSpeed="10.223" id="699" type="passenger">
		<route edges="23 20 20 19"/>
	</vehicle>
	<vehicle depart="0.1" departLane="0" departPos="0" departSpeed="10.5461" id="703" type="passenger">
		<route edges="23 20 22"/>
	</vehicle>
</routes>
