<routes>
	<vehicle depart="0.1" departLane="0" departPos="30.46649400628183" departSpeed="1.1969594" id="315" type="bicycle">
		<route edges="12157 12183"/>
	</vehicle>
	<vehicle depart="0.1" departLane="0" departPos="25.217770829393643" departSpeed="7.5528668" id="317" type="bicycle">
		<route edges=":9_1 12183"/>
	</vehicle>
	<vehicle depart="0.1" departLane="0" departPos="63.93933418172247" departSpeed="1.0296018" id="38" type="passenger">
		<route edges="12157 12183"/>
	</vehicle>
	<vehicle depart="0.1" departLane="0" departPos="55.47828321091332" departSpeed="0.88368633" id="312" type="passenger">
		<route edges="12157 12183"/>
	</vehicle>
	<vehicle depart="0.1" departLane="0" departPos="47.976557221936346" departSpeed="0.76489115" id="313" type="passenger">
		<route edges="12157 12183"/>
	</vehicle>
	<vehicle depart="0.1" departLane="0" departPos="39.68682008249589" departSpeed="1.092373" id="314" type="passenger">
		<route edges="12157 12183"/>
	</vehicle>
	<vehicle depart="0.1" departLane="0" departPos="25.675559334196052" departSpeed="1.3841647" id="318" type="passenger">
		<route edges="12157 12183"/>
	</vehicle>
	<vehicle depart="0.1" departLane="0" departPos="34.946501974889294" departSpeed="17.07355" id="320" type="passenger">
		<route edges=":9_2 12158"/>
	</vehicle>
	<vehicle depart="0.1" departLane="0" departPos="8.847933836196187" departSpeed="0.93994915" id="321" type="passenger">
		<route edges="12157 12183"/>
	</vehicle>
	<vehicle depart="0.1" departLane="0" departPos="3.75" departSpeed="2.2065604" id="37" type="truck">
		<route edges=":9_0 12183"/>
	</vehicle>
</routes>
