<routes>
	<vehicle depart="0.1" departLane="0" departPos="16.6451676546878" departSpeed="5.3703324" id="313" type="bicycle">
		<route edges=":13_2 22290"/>
	</vehicle>
	<vehicle depart="0.1" departLane="1" departPos="66.22823672331053" departSpeed="0.23522148" id="34" type="passenger">
		<route edges="22288 21992"/>
	</vehicle>
	<vehicle depart="0.1" departLane="1" departPos="57.89527144463956" departSpeed="0.27609704" id="35" type="passenger">
		<route edges="22288 21992"/>
	</vehicle>
	<vehicle depart="0.1" departLane="1" departPos="39.44428873494668" departSpeed="0.91360939" id="316" type="passenger">
		<route edges="22288 21992"/>
	</vehicle>
	<vehicle depart="0.1" departLane="0" departPos="32.156248318769585" departSpeed="5.9101226" id="323" type="passenger">
		<route edges=":13_4 21992"/>
	</vehicle>
	<vehicle depart="0.1" departLane="0" departPos="40.97704736433675" departSpeed="12.462655" id="324" type="passenger">
		<route edges=":13_5 22290"/>
	</vehicle>
	<vehicle depart="0.1" departLane="0" departPos="18.799842837751598" departSpeed="5.8037865" id="327" type="passenger">
		<route edges=":13_5 22290"/>
	</vehicle>
	<vehicle depart="0.1" departLane="0" departPos="2.5" departSpeed="0.77133342" id="332" type="passenger">
		<route edges="22026 21992"/>
	</vehicle>
	<vehicle depart="0.1" departLane="1" departPos="44.76054174130863" departSpeed="1.8116645" id="39" type="motorcycle">
		<route edges="22288 21992"/>
	</vehicle>
	<vehicle depart="0.1" departLane="0" departPos="5.363673725945722" departSpeed="5.6110368" id="329" type="motorcycle">
		<route edges=":13_5 22290"/>
	</vehicle>
</routes>
