<!-- generated on Tue Feb  9 22:02:53 2021 by Eclipse SUMO netconvert Version 1.8.0
<configuration xmlns:xsi="http://www.w3.org/2001/XMLSchema-instance" xsi:noNamespaceSchemaLocation="http://sumo.dlr.de/xsd/netconvertConfiguration.xsd">

    <input>
        <node-files value="./converted_scenarios/scenario-factory/DEU_BadEssen-1_5_I-1-1/DEU_BadEssen-1_5_I-1-1.nod.xml"/>
        <edge-files value="./converted_scenarios/scenario-factory/DEU_BadEssen-1_5_I-1-1/DEU_BadEssen-1_5_I-1-1.edg.xml"/>
        <connection-files value="./converted_scenarios/scenario-factory/DEU_BadEssen-1_5_I-1-1/DEU_BadEssen-1_5_I-1-1.con.xml"/>
        <tllogic-files value="./converted_scenarios/scenario-factory/DEU_BadEssen-1_5_I-1-1/DEU_BadEssen-1_5_I-1-1.tll.xml"/>
        <type-files value="/home/zen/commonroad-interactive-benchmarks/install/commonroad-map-tool/crmapconverter/sumo_map/templates/DEU.typ.xml"/>
    </input>

    <output>
        <output-file value="./converted_scenarios/scenario-factory/DEU_BadEssen-1_5_I-1-1/DEU_BadEssen-1_5_I-1-1.net.xml"/>
    </output>

    <processing>
        <geometry.remove.keep-edges.explicit value="true"/>
        <geometry.avoid-overlap value="true"/>
        <offset.disable-normalization value="true"/>
    </processing>

    <junctions>
        <no-turnarounds value="true"/>
        <junctions.internal-link-detail value="20"/>
    </junctions>

    <report>
        <aggregate-warnings value="5"/>
    </report>

    <random_number>
        <seed value="1234"/>
    </random_number>

</configuration>
--><net xmlns:xsi="http://www.w3.org/2001/XMLSchema-instance" version="1.6" junctionCornerDetail="5" junctionLinkDetail="20" limitTurnSpeed="5.50" xsi:noNamespaceSchemaLocation="http://sumo.dlr.de/xsd/net_file.xsd">

    <location netOffset="0.00,0.00" convBoundary="-491.56,900.54,-375.30,984.46" origBoundary="-492.07,900.54,-374.94,984.46" projParameter="!"/>

    <type id="highway.bridleway" priority="1" speed="2.78" allow="pedestrian" oneway="1" width="2.00"/>
    <type id="highway.bus_guideway" priority="1" speed="27.78" allow="bus" oneway="1"/>
    <type id="highway.cycleway" priority="1" speed="8.33" allow="bicycle" oneway="0" width="1.00"/>
    <type id="highway.footway" priority="1" speed="2.78" allow="pedestrian" oneway="1" width="2.00"/>
    <type id="highway.ford" priority="1" speed="2.78" allow="army" oneway="0"/>
    <type id="highway.living_street" priority="2" speed="2.78" disallow="tram rail_urban rail rail_electric rail_fast ship" oneway="0"/>
    <type id="highway.motorway" priority="14" speed="39.44" allow="private emergency authority army vip passenger hov taxi bus coach delivery truck trailer motorcycle evehicle custom1 custom2" oneway="1"/>
    <type id="highway.motorway_link" priority="9" speed="22.22" allow="private emergency authority army vip passenger hov taxi bus coach delivery truck trailer motorcycle evehicle custom1 custom2" oneway="1"/>
    <type id="highway.path" priority="1" speed="2.78" allow="pedestrian bicycle" oneway="0" width="2.00"/>
    <type id="highway.pedestrian" priority="1" speed="2.78" allow="pedestrian" oneway="1" width="2.00"/>
    <type id="highway.primary" priority="12" speed="27.78" disallow="pedestrian tram rail_urban rail rail_electric rail_fast ship" oneway="0"/>
    <type id="highway.primary_link" priority="7" speed="22.22" disallow="pedestrian tram rail_urban rail rail_electric rail_fast ship" oneway="0"/>
    <type id="highway.raceway" priority="15" speed="83.33" allow="vip" oneway="0"/>
    <type id="highway.residential" priority="3" speed="13.89" disallow="pedestrian tram rail_urban rail rail_electric rail_fast ship" oneway="0"/>
    <type id="highway.secondary" priority="11" speed="27.78" disallow="pedestrian tram rail_urban rail rail_electric rail_fast ship" oneway="0"/>
    <type id="highway.secondary_link" priority="6" speed="22.22" disallow="pedestrian tram rail_urban rail rail_electric rail_fast ship" oneway="0"/>
    <type id="highway.service" priority="1" speed="5.56" allow="pedestrian delivery bicycle" oneway="0"/>
    <type id="highway.stairs" priority="1" speed="1.39" allow="pedestrian" oneway="1" width="2.00"/>
    <type id="highway.step" priority="1" speed="1.39" allow="pedestrian" oneway="1" width="2.00"/>
    <type id="highway.steps" priority="1" speed="1.39" allow="pedestrian" oneway="1" width="2.00"/>
    <type id="highway.tertiary" priority="10" speed="22.22" disallow="pedestrian tram rail_urban rail rail_electric rail_fast ship" oneway="0"/>
    <type id="highway.tertiary_link" priority="5" speed="22.22" disallow="pedestrian tram rail_urban rail rail_electric rail_fast ship" oneway="0"/>
    <type id="highway.track" priority="1" speed="5.56" allow="pedestrian motorcycle moped bicycle" oneway="0"/>
    <type id="highway.trunk" priority="13" speed="27.78" disallow="pedestrian bicycle tram rail_urban rail rail_electric rail_fast ship" oneway="0"/>
    <type id="highway.trunk_link" priority="8" speed="22.22" disallow="pedestrian bicycle tram rail_urban rail rail_electric rail_fast ship" oneway="0"/>
    <type id="highway.unclassified" priority="4" speed="13.89" disallow="pedestrian tram rail_urban rail rail_electric rail_fast ship" oneway="0"/>
    <type id="highway.unsurfaced" priority="1" speed="8.33" disallow="tram rail_urban rail rail_electric rail_fast ship" oneway="0"/>
    <type id="railway.highspeed" priority="21" speed="69.44" allow="rail_fast" oneway="1"/>
    <type id="railway.light_rail" priority="19" speed="27.78" allow="rail_urban" oneway="1"/>
    <type id="railway.preserved" priority="16" speed="27.78" allow="rail" oneway="1"/>
    <type id="railway.rail" priority="20" speed="44.44" allow="rail" oneway="1"/>
    <type id="railway.subway" priority="18" speed="27.78" allow="rail_urban" oneway="1"/>
    <type id="railway.tram" priority="17" speed="13.89" allow="tram" oneway="1"/>

    <edge id=":13_0" function="internal">
        <lane id=":13_0_0" index="0" disallow="pedestrian tram rail_urban rail rail_electric rail_fast ship" speed="36.11" length="4.04" width="3.50" shape="-443.96,974.54 -447.90,975.45"/>
    </edge>
    <edge id=":13_1" function="internal">
        <lane id=":13_1_0" index="0" disallow="pedestrian tram rail_urban rail rail_electric rail_fast ship" speed="11.87" length="35.66" width="3.50" shape="-444.67,971.12 -448.74,971.81 -451.47,972.04 -454.21,972.02 -456.93,971.69 -458.26,971.39 -459.57,970.98 -460.84,970.46 -462.05,969.83 -463.20,969.07 -464.26,968.21 -465.23,967.24 -466.10,966.18 -466.87,965.05 -467.54,963.85 -468.61,961.33 -469.36,958.70 -469.85,956.00 -470.02,954.62"/>
    </edge>
    <edge id=":13_2" function="internal">
        <lane id=":13_2_0" index="0" disallow="pedestrian tram rail_urban rail rail_electric rail_fast ship" speed="10.86" length="29.64" width="3.50" shape="-466.54,954.28 -466.40,955.44 -465.97,957.77 -465.33,959.98 -464.43,962.09 -463.89,963.03 -463.27,963.93 -462.58,964.76 -461.81,965.52 -460.97,966.19 -460.06,966.77 -459.10,967.27 -458.08,967.67 -457.02,967.99 -455.95,968.23 -453.65,968.50 -451.32,968.51 -448.98,968.31 -445.39,967.69"/>
    </edge>
    <edge id=":13_3" function="internal">
        <lane id=":13_3_0" index="0" disallow="pedestrian tram rail_urban rail rail_electric rail_fast ship" speed="21.50" length="34.61" width="3.50" shape="-466.53,954.36 -466.60,955.28 -466.89,956.42 -467.39,957.77 -468.06,959.30 -468.90,960.97 -469.86,962.76 -470.94,964.64 -472.10,966.59 -473.33,968.57 -474.59,970.56 -475.87,972.53 -477.14,974.44 -478.38,976.28 -479.56,978.02 -480.66,979.62 -481.66,981.05 -482.53,982.30 -483.25,983.33 -483.79,984.11"/>
    </edge>
    <edge id=":13_4" function="internal">
        <lane id=":13_4_0" index="0" disallow="pedestrian tram rail_urban rail rail_electric rail_fast ship" speed="13.36" length="34.39" width="3.50" shape="-488.75,978.93 -481.70,976.62 -479.19,975.37 -476.85,973.82 -475.15,972.35 -473.66,970.67 -472.40,968.81 -471.41,966.80 -470.67,964.68 -470.09,961.93 -469.85,959.13 -469.92,955.76 -470.02,954.62"/>
    </edge>
    <edge id=":13_5" function="internal">
        <lane id=":13_5_0" index="0" disallow="pedestrian tram rail_urban rail rail_electric rail_fast ship" speed="36.11" length="44.81" width="3.50" shape="-487.72,982.28 -477.58,979.02 -468.55,975.52 -458.60,971.62 -452.32,969.50 -446.92,968.03 -445.39,967.69"/>
    </edge>

    <edge id="21991" from="8" to="13" priority="3" type="highway.residential" spreadType="center" length="70.08" shape="-428.98,901.63 -460.75,965.91">
        <lane id="21991_0" index="0" disallow="pedestrian tram rail_urban rail rail_electric rail_fast ship" speed="36.11" length="70.08" width="3.50" customShape="1" shape="-428.98,901.63 -435.90,905.45 -444.87,910.79 -448.21,912.94 -450.96,915.07 -455.31,919.15 -458.04,922.03 -460.22,924.74 -462.13,927.64 -463.28,929.85 -463.93,931.72 -465.13,937.56 -466.36,943.40 -466.79,946.85 -466.87,949.83 -466.53,954.36"/>
    </edge>
    <edge id="21992" from="13" to="3" priority="3" type="highway.residential" spreadType="center" length="70.00" shape="-463.91,964.40 -434.22,900.54">
        <lane id="21992_0" index="0" disallow="pedestrian tram rail_urban rail rail_electric rail_fast ship" speed="36.11" length="70.00" width="3.50" customShape="1" shape="-470.02,954.62 -470.36,949.98 -470.29,946.77 -469.85,943.10 -468.61,937.09 -467.37,931.07 -466.68,928.93 -465.47,926.45 -463.50,923.31 -461.23,920.39 -458.41,917.31 -453.95,913.05 -451.07,910.70 -447.60,908.37 -438.45,902.88 -434.22,900.54"/>
    </edge>
    <edge id="22026" from="9" to="13" priority="3" type="highway.residential" spreadType="center" length="3.47" shape="-491.56,981.61 -464.02,962.05">
        <lane id="22026_0" index="0" disallow="pedestrian tram rail_urban rail rail_electric rail_fast ship" speed="36.11" length="3.47" width="3.50" customShape="1" shape="-492.07,979.93 -488.75,978.93"/>
        <lane id="22026_1" index="1" disallow="pedestrian tram rail_urban rail rail_electric rail_fast ship" speed="36.11" length="3.49" width="3.50" customShape="1" shape="-491.06,983.28 -487.72,982.28"/>
    </edge>
    <edge id="22288" from="10" to="13" priority="3" type="highway.residential" spreadType="center" length="69.85" shape="-375.30,961.33 -462.15,968.59">
        <lane id="22288_0" index="0" disallow="pedestrian tram rail_urban rail rail_electric rail_fast ship" speed="36.11" length="69.85" width="3.50" customShape="1" shape="-375.09,963.06 -377.25,963.32 -397.13,965.92 -411.99,968.22 -425.30,970.65 -443.96,974.54"/>
        <lane id="22288_1" index="1" disallow="pedestrian tram rail_urban rail rail_electric rail_fast ship" speed="36.11" length="70.17" width="3.50" customShape="1" shape="-375.50,959.59 -377.74,959.85 -397.69,962.46 -412.62,964.77 -426.00,967.22 -444.68,971.12"/>
    </edge>
    <edge id="22290" from="13" to="6" priority="3" type="highway.residential" spreadType="center" length="70.00" shape="-462.48,963.35 -376.38,956.17">
        <lane id="22290_0" index="0" disallow="pedestrian tram rail_urban rail rail_electric rail_fast ship" speed="36.11" length="70.00" width="3.50" customShape="1" shape="-445.39,967.69 -426.65,963.78 -413.23,961.33 -398.25,959.01 -378.24,956.39 -376.38,956.17"/>
    </edge>
    <edge id="22986" from="13" to="14" priority="3" type="highway.residential" spreadType="center" length="0.20" shape="-461.10,966.37 -482.84,984.46">
        <lane id="22986_0" index="0" disallow="pedestrian tram rail_urban rail rail_electric rail_fast ship" speed="36.11" length="0.20" width="3.50" customShape="1" shape="-483.79,984.11 -483.90,984.28"/>
    </edge>
    <edge id="23443" from="13" to="14" priority="3" type="highway.residential" spreadType="center" length="36.09">
        <lane id="23443_0" index="0" disallow="pedestrian tram rail_urban rail rail_electric rail_fast ship" speed="36.11" length="36.09" width="3.50" customShape="1" shape="-447.90,975.45 -458.81,977.95 -472.10,981.38 -482.84,984.46"/>
    </edge>

    <junction id="10" type="dead_end" x="-375.30" y="961.33" incLanes="" intLanes="" shape="-375.71,957.85 -374.88,964.80" rightOfWay="edgePriority"/>
    <junction id="13" type="priority" x="-462.30" y="965.09" incLanes="22288_0 22288_1 21991_0 22026_0 22026_1" intLanes=":13_0_0 :13_1_0 :13_2_0 :13_3_0 :13_4_0 :13_5_0" shape="-443.60,976.26 -445.75,965.98 -451.25,966.69 -455.82,966.33 -459.46,964.91 -462.17,962.42 -463.94,958.86 -464.79,954.24 -471.77,954.75 -471.91,960.06 -473.16,964.74 -475.52,968.81 -478.99,972.25 -483.57,975.06 -489.26,977.26 -487.21,983.95 -487.14,984.16 -481.71,985.91 -472.41,982.56 -464.28,979.61 -456.31,976.72 -450.36,974.54 -448.29,973.74 -447.51,977.15">
        <request index="0" response="000000" foes="000000" cont="0"/>
        <request index="1" response="110000" foes="111000" cont="0"/>
        <request index="2" response="100000" foes="100000" cont="0"/>
        <request index="3" response="100010" foes="100010" cont="0"/>
        <request index="4" response="000000" foes="000010" cont="0"/>
        <request index="5" response="000000" foes="001110" cont="0"/>
    </junction>
    <junction id="14" type="dead_end" x="-482.84" y="984.46" incLanes="22986_0 23443_0" intLanes="" shape="-482.24,986.10 -483.44,982.82 -482.36,986.14 -483.32,982.78"/>
    <junction id="3" type="dead_end" x="-434.22" y="900.54" incLanes="21992_0" intLanes="" shape="-435.07,899.01 -433.37,902.07" rightOfWay="edgePriority"/>
    <junction id="6" type="dead_end" x="-376.38" y="956.17" incLanes="22290_0" intLanes="" shape="-376.59,954.43 -376.17,957.91" rightOfWay="edgePriority"/>
    <junction id="8" type="dead_end" x="-428.98" y="901.63" incLanes="" intLanes="" shape="-429.82,900.10 -428.13,903.16" rightOfWay="edgePriority"/>
    <junction id="9" type="dead_end" x="-491.56" y="981.61" incLanes="" intLanes="" shape="-490.55,984.96 -492.57,978.26" rightOfWay="edgePriority"/>

    <connection from="21991" to="22290" fromLane="0" toLane="0" contPos="-4.00" shape="-466.54,954.28 -466.40,955.44 -465.97,957.77 -465.33,959.98 -464.43,962.09 -463.89,963.03 -463.27,963.93 -462.58,964.76 -461.81,965.52 -460.97,966.19 -460.06,966.77 -459.10,967.27 -458.08,967.67 -457.02,967.99 -455.95,968.23 -453.65,968.50 -451.32,968.51 -448.98,968.31 -445.39,967.69" via=":13_2_0" dir="r" state="m"/>
    <connection from="21991" to="22986" fromLane="0" toLane="0" contPos="-4.00" via=":13_3_0" dir="s" state="m"/>
    <connection from="22026" to="21992" fromLane="0" toLane="0" contPos="-4.00" shape="-484.89,977.77 -481.70,976.62 -479.19,975.37 -476.85,973.82 -475.15,972.35 -473.66,970.67 -472.40,968.81 -471.41,966.80 -470.67,964.68 -470.09,961.93 -469.85,959.13 -469.92,955.76 -470.02,954.62" via=":13_4_0" dir="s" state="M"/>
    <connection from="22026" to="22290" fromLane="1" toLane="0" contPos="-4.00" shape="-483.86,981.11 -477.58,979.02 -468.55,975.52 -458.60,971.62 -452.32,969.50 -446.92,968.03 -445.39,967.69" via=":13_5_0" dir="L" state="M"/>
    <connection from="22288" to="23443" fromLane="0" toLane="0" contPos="-4.00" via=":13_0_0" dir="s" state="M"/>
    <connection from="22288" to="21992" fromLane="1" toLane="0" contPos="-4.00" shape="-444.67,971.12 -448.74,971.81 -451.47,972.04 -454.21,972.02 -456.93,971.69 -458.26,971.39 -459.57,970.98 -460.84,970.46 -462.05,969.83 -463.20,969.07 -464.26,968.21 -465.23,967.24 -466.10,966.18 -466.87,965.05 -467.54,963.85 -468.61,961.33 -469.36,958.70 -469.85,956.00 -470.02,954.62" via=":13_1_0" dir="l" state="m"/>

    <connection from=":13_0" to="23443" fromLane="0" toLane="0" dir="s" state="M"/>
    <connection from=":13_1" to="21992" fromLane="0" toLane="0" dir="l" state="M"/>
    <connection from=":13_2" to="22290" fromLane="0" toLane="0" dir="r" state="M"/>
    <connection from=":13_3" to="22986" fromLane="0" toLane="0" dir="s" state="M"/>
    <connection from=":13_4" to="21992" fromLane="0" toLane="0" dir="s" state="M"/>
    <connection from=":13_5" to="22290" fromLane="0" toLane="0" dir="L" state="M"/>

</net>