<routes>
	<vehicle depart="0.1" departLane="0" departPos="7.196590755051246" departSpeed="7.740769" id="31" type="passenger">
		<route edges=":44_5 12993 12133"/>
	</vehicle>
	<vehicle depart="0.1" departLane="0" departPos="4.798240569954576" departSpeed="5.5278579" id="33" type="passenger">
		<route edges="12994 13066 12179"/>
	</vehicle>
	<vehicle depart="0.1" departLane="0" departPos="23.395233018593505" departSpeed="0.010407154" id="312" type="passenger">
		<route edges=":49_3 12922"/>
	</vehicle>
	<vehicle depart="0.1" departLane="0" departPos="16.0616041381477" departSpeed="11.082907" id="315" type="passenger">
		<route edges=":48_9 12133"/>
	</vehicle>
	<vehicle depart="0.1" departLane="0" departPos="14.148680618395328" departSpeed="1.6794574" id="319" type="passenger">
		<route edges=":49_3 12922"/>
	</vehicle>
	<vehicle depart="0.1" departLane="0" departPos="8.89039309206637" departSpeed="6.052641" id="326" type="passenger">
		<route edges="12993 12129"/>
	</vehicle>
	<vehicle depart="0.1" departLane="0" departPos="16.693094869742495" departSpeed="0.75140484" id="331" type="passenger">
		<route edges=":44_0 13066"/>
	</vehicle>
	<vehicle depart="0.1" departLane="0" departPos="36.778692767524284" departSpeed="2.81599" id="334" type="passenger">
		<route edges="13022 12921 12918"/>
	</vehicle>
	<vehicle depart="0.1" departLane="0" departPos="23.585134961473596" departSpeed="0.0" id="345" type="passenger">
		<route edges=":49_2 12922"/>
	</vehicle>
	<vehicle depart="0.1" departLane="0" departPos="38.627665009102266" departSpeed="1.20062" id="322" type="motorcycle">
		<route edges=":44_3 13066 12179"/>
	</vehicle>
</routes>
