<routes>
	<vehicle depart="0.1" departLane="0" departPos="69.68430479743601" departSpeed="0.0" id="310" type="bicycle">
		<route edges="231 685"/>
	</vehicle>
	<vehicle depart="0.1" departLane="0" departPos="17.110679175916523" departSpeed="6.0864834" id="312" type="bicycle">
		<route edges=":45_0 693 638 733"/>
	</vehicle>
	<vehicle depart="0.1" departLane="0" departPos="51.164791122307925" departSpeed="0.96817259" id="343" type="bicycle">
		<route edges="231 685"/>
	</vehicle>
	<vehicle depart="0.1" departLane="0" departPos="65.2296872460933" departSpeed="0.22760862" id="339" type="bus">
		<route edges="231 685"/>
	</vehicle>
	<vehicle depart="0.1" departLane="0" departPos="109.72166920497855" departSpeed="11.241941" id="347" type="bus">
		<route edges="637 695"/>
	</vehicle>
	<vehicle depart="0.1" departLane="0" departPos="19.801332421491406" departSpeed="10.175262" id="360" type="bus">
		<route edges="697 746"/>
	</vehicle>
	<vehicle depart="0.1" departLane="0" departPos="14.473530712686777" departSpeed="8.8829242" id="365" type="bus">
		<route edges="230"/>
	</vehicle>
	<vehicle depart="0.1" departLane="0" departPos="62.67409897935711" departSpeed="0.0" id="35" type="passenger">
		<route edges="745 693"/>
	</vehicle>
	<vehicle depart="0.1" departLane="0" departPos="55.57131741479567" departSpeed="0.0" id="37" type="passenger">
		<route edges="745 693"/>
	</vehicle>
	<vehicle depart="0.1" departLane="0" departPos="69.48499592170855" departSpeed="0.0" id="317" type="passenger">
		<route edges="745 693"/>
	</vehicle>
	<vehicle depart="0.1" departLane="0" departPos="157.5675626802267" departSpeed="0.0" id="319" type="passenger">
		<route edges="637 695"/>
	</vehicle>
	<vehicle depart="0.1" departLane="0" departPos="5.123723173876977" departSpeed="17.211118" id="320" type="passenger">
		<route edges="699 1798"/>
	</vehicle>
	<vehicle depart="0.1" departLane="0" departPos="20.680319505211145" departSpeed="12.144753" id="321" type="passenger">
		<route edges="746"/>
	</vehicle>
	<vehicle depart="0.1" departLane="0" departPos="150.40360232338216" departSpeed="0.016954309" id="323" type="passenger">
		<route edges="637 695"/>
	</vehicle>
	<vehicle depart="0.1" departLane="0" departPos="48.468330269284216" departSpeed="0.0" id="324" type="passenger">
		<route edges="745 693"/>
	</vehicle>
	<vehicle depart="0.1" departLane="0" departPos="4.592855948" departSpeed="15.935754" id="325" type="passenger">
		<route edges=":45_5 699 1798"/>
	</vehicle>
	<vehicle depart="0.1" departLane="0" departPos="2.5" departSpeed="10.553247" id="326" type="passenger">
		<route edges="693 689 230"/>
	</vehicle>
	<vehicle depart="0.1" departLane="0" departPos="41.76554618381154" departSpeed="0.0" id="327" type="passenger">
		<route edges="745 693"/>
	</vehicle>
	<vehicle depart="0.1" departLane="0" departPos="34.91821810756473" departSpeed="7.7012083e-05" id="329" type="passenger">
		<route edges="745 693"/>
	</vehicle>
	<vehicle depart="0.1" departLane="0" departPos="13.705871341760098" departSpeed="8.438295" id="331" type="passenger">
		<route edges="691 695 699 1798"/>
	</vehicle>
	<vehicle depart="0.1" departLane="0" departPos="9.209352733383955" departSpeed="8.8996955" id="332" type="passenger">
		<route edges=":45_0 693 689 230"/>
	</vehicle>
	<vehicle depart="0.1" departLane="0" departPos="27.670497438075955" departSpeed="0.00040952884" id="335" type="passenger">
		<route edges="745 693"/>
	</vehicle>
	<vehicle depart="0.1" departLane="0" departPos="85.0703239437819" departSpeed="6.0093981" id="336" type="passenger">
		<route edges="697 693 638 733"/>
	</vehicle>
	<vehicle depart="0.1" departLane="0" departPos="25.45144639131347" departSpeed="0.0019602638" id="341" type="passenger">
		<route edges="887 637"/>
	</vehicle>
	<vehicle depart="0.1" departLane="0" departPos="72.40215342050405" departSpeed="5.973511" id="342" type="passenger">
		<route edges="697 693 689"/>
	</vehicle>
	<vehicle depart="0.1" departLane="0" departPos="20.42215252418824" departSpeed="0.0016383557" id="344" type="passenger">
		<route edges="745 693"/>
	</vehicle>
	<vehicle depart="0.1" departLane="0" departPos="49.541449403399824" departSpeed="0.9652856" id="350" type="passenger">
		<route edges="231 685"/>
	</vehicle>
	<vehicle depart="0.1" departLane="0" departPos="82.69831939951109" departSpeed="11.694962" id="351" type="passenger">
		<route edges="637 695"/>
	</vehicle>
	<vehicle depart="0.1" departLane="0" departPos="13.42329355158753" departSpeed="0.0055739087" id="352" type="passenger">
		<route edges="745 693"/>
	</vehicle>
	<vehicle depart="0.1" departLane="0" departPos="46.49238337855517" departSpeed="6.6364987" id="353" type="passenger">
		<route edges="697 693"/>
	</vehicle>
	<vehicle depart="0.1" departLane="0" departPos="40.262543288992326" departSpeed="1.7246417" id="354" type="passenger">
		<route edges="231 685"/>
	</vehicle>
	<vehicle depart="0.1" departLane="0" departPos="13.766369642100813" departSpeed="0.02157548" id="356" type="passenger">
		<route edges="887 637"/>
	</vehicle>
	<vehicle depart="0.1" departLane="0" departPos="55.576199663753044" departSpeed="14.085723" id="359" type="passenger">
		<route edges="637 695"/>
	</vehicle>
	<vehicle depart="0.1" departLane="0" departPos="30.8992661001574" departSpeed="2.3055905" id="361" type="passenger">
		<route edges="231 685"/>
	</vehicle>
	<vehicle depart="0.1" departLane="0" departPos="51.65934977879639" departSpeed="9.8771034" id="362" type="passenger">
		<route edges=":41_0 697 746"/>
	</vehicle>
	<vehicle depart="0.1" departLane="0" departPos="15.97861541582711" departSpeed="13.057368" id="363" type="passenger">
		<route edges="888"/>
	</vehicle>
	<vehicle depart="0.1" departLane="0" departPos="6.558276391585934" departSpeed="0.01635595" id="364" type="passenger">
		<route edges="745 693"/>
	</vehicle>
	<vehicle depart="0.1" departLane="0" departPos="36.178283289618236" departSpeed="9.255476" id="366" type="passenger">
		<route edges=":41_0 697 746"/>
	</vehicle>
	<vehicle depart="0.1" departLane="0" departPos="6.232487212542193" departSpeed="0.052425714" id="368" type="passenger">
		<route edges="887 637"/>
	</vehicle>
	<vehicle depart="0.1" departLane="0" departPos="21.100737506781527" departSpeed="2.7883914" id="369" type="passenger">
		<route edges="231 685"/>
	</vehicle>
	<vehicle depart="0.1" departLane="0" departPos="22.044766851233458" departSpeed="8.4551832" id="370" type="passenger">
		<route edges=":41_0 697 746"/>
	</vehicle>
	<vehicle depart="0.1" departLane="0" departPos="11.586550094262169" departSpeed="2.700268" id="373" type="passenger">
		<route edges="231 685"/>
	</vehicle>
	<vehicle depart="0.1" departLane="0" departPos="4.677891156057795" departSpeed="7.0447973" id="374" type="passenger">
		<route edges=":41_0 697 746"/>
	</vehicle>
	<vehicle depart="0.1" departLane="0" departPos="18.78220434687653" departSpeed="15.163177" id="376" type="passenger">
		<route edges="687 230"/>
	</vehicle>
	<vehicle depart="0.1" departLane="0" departPos="12.679150731736526" departSpeed="3.621227" id="377" type="passenger">
		<route edges="240 697 746"/>
	</vehicle>
	<vehicle depart="0.1" departLane="0" departPos="9.535678661063468" departSpeed="11.324014" id="379" type="passenger">
		<route edges="687 691 695 699"/>
	</vehicle>
	<vehicle depart="0.1" departLane="0" departPos="29.796216858612098" departSpeed="0.00042544538" id="333" type="motorcycle">
		<route edges="887 637"/>
	</vehicle>
	<vehicle depart="0.1" departLane="0" departPos="141.53316723863034" departSpeed="1.6735826" id="334" type="motorcycle">
		<route edges="637 695"/>
	</vehicle>
	<vehicle depart="0.1" departLane="0" departPos="58.600716639711194" departSpeed="6.2562939" id="348" type="motorcycle">
		<route edges="697 693 689"/>
	</vehicle>
	<vehicle depart="0.1" departLane="0" departPos="18.55856383311877" departSpeed="0.0071345962" id="349" type="motorcycle">
		<route edges="887 637"/>
	</vehicle>
	<vehicle depart="0.1" departLane="0" departPos="39.539232087308775" departSpeed="6.5215161e-05" id="328" type="truck">
		<route edges="887 637"/>
	</vehicle>
	<vehicle depart="0.1" departLane="0" departPos="49.167366177881625" departSpeed="11.297104" id="358" type="truck">
		<route edges="230"/>
	</vehicle>
</routes>
