<!-- generated on Tue Feb  9 22:15:56 2021 by Eclipse SUMO netconvert Version 1.8.0
<configuration xmlns:xsi="http://www.w3.org/2001/XMLSchema-instance" xsi:noNamespaceSchemaLocation="http://sumo.dlr.de/xsd/netconvertConfiguration.xsd">

    <input>
        <node-files value="./converted_scenarios/scenario-factory/BEL_Nivelles-16_4_I-1-1/BEL_Nivelles-16_4_I-1-1.nod.xml"/>
        <edge-files value="./converted_scenarios/scenario-factory/BEL_Nivelles-16_4_I-1-1/BEL_Nivelles-16_4_I-1-1.edg.xml"/>
        <connection-files value="./converted_scenarios/scenario-factory/BEL_Nivelles-16_4_I-1-1/BEL_Nivelles-16_4_I-1-1.con.xml"/>
        <tllogic-files value="./converted_scenarios/scenario-factory/BEL_Nivelles-16_4_I-1-1/BEL_Nivelles-16_4_I-1-1.tll.xml"/>
        <type-files value="/home/zen/commonroad-interactive-benchmarks/install/commonroad-map-tool/crmapconverter/sumo_map/templates/DEU.typ.xml"/>
    </input>

    <output>
        <output-file value="./converted_scenarios/scenario-factory/BEL_Nivelles-16_4_I-1-1/BEL_Nivelles-16_4_I-1-1.net.xml"/>
    </output>

    <processing>
        <geometry.remove.keep-edges.explicit value="true"/>
        <geometry.avoid-overlap value="true"/>
        <offset.disable-normalization value="true"/>
    </processing>

    <junctions>
        <no-turnarounds value="true"/>
        <junctions.internal-link-detail value="20"/>
    </junctions>

    <report>
        <aggregate-warnings value="5"/>
    </report>

    <random_number>
        <seed value="1234"/>
    </random_number>

</configuration>
--><net xmlns:xsi="http://www.w3.org/2001/XMLSchema-instance" version="1.6" junctionCornerDetail="5" junctionLinkDetail="20" limitTurnSpeed="5.50" xsi:noNamespaceSchemaLocation="http://sumo.dlr.de/xsd/net_file.xsd">

    <location netOffset="0.00,0.00" convBoundary="-539.11,-557.92,-446.17,-369.05" origBoundary="-543.79,-560.31,-442.94,-366.37" projParameter="!"/>

    <type id="highway.bridleway" priority="1" speed="2.78" allow="pedestrian" oneway="1" width="2.00"/>
    <type id="highway.bus_guideway" priority="1" speed="27.78" allow="bus" oneway="1"/>
    <type id="highway.cycleway" priority="1" speed="8.33" allow="bicycle" oneway="0" width="1.00"/>
    <type id="highway.footway" priority="1" speed="2.78" allow="pedestrian" oneway="1" width="2.00"/>
    <type id="highway.ford" priority="1" speed="2.78" allow="army" oneway="0"/>
    <type id="highway.living_street" priority="2" speed="2.78" disallow="tram rail_urban rail rail_electric rail_fast ship" oneway="0"/>
    <type id="highway.motorway" priority="14" speed="39.44" allow="private emergency authority army vip passenger hov taxi bus coach delivery truck trailer motorcycle evehicle custom1 custom2" oneway="1"/>
    <type id="highway.motorway_link" priority="9" speed="22.22" allow="private emergency authority army vip passenger hov taxi bus coach delivery truck trailer motorcycle evehicle custom1 custom2" oneway="1"/>
    <type id="highway.path" priority="1" speed="2.78" allow="pedestrian bicycle" oneway="0" width="2.00"/>
    <type id="highway.pedestrian" priority="1" speed="2.78" allow="pedestrian" oneway="1" width="2.00"/>
    <type id="highway.primary" priority="12" speed="27.78" disallow="pedestrian tram rail_urban rail rail_electric rail_fast ship" oneway="0"/>
    <type id="highway.primary_link" priority="7" speed="22.22" disallow="pedestrian tram rail_urban rail rail_electric rail_fast ship" oneway="0"/>
    <type id="highway.raceway" priority="15" speed="83.33" allow="vip" oneway="0"/>
    <type id="highway.residential" priority="3" speed="13.89" disallow="pedestrian tram rail_urban rail rail_electric rail_fast ship" oneway="0"/>
    <type id="highway.secondary" priority="11" speed="27.78" disallow="pedestrian tram rail_urban rail rail_electric rail_fast ship" oneway="0"/>
    <type id="highway.secondary_link" priority="6" speed="22.22" disallow="pedestrian tram rail_urban rail rail_electric rail_fast ship" oneway="0"/>
    <type id="highway.service" priority="1" speed="5.56" allow="pedestrian delivery bicycle" oneway="0"/>
    <type id="highway.stairs" priority="1" speed="1.39" allow="pedestrian" oneway="1" width="2.00"/>
    <type id="highway.step" priority="1" speed="1.39" allow="pedestrian" oneway="1" width="2.00"/>
    <type id="highway.steps" priority="1" speed="1.39" allow="pedestrian" oneway="1" width="2.00"/>
    <type id="highway.tertiary" priority="10" speed="22.22" disallow="pedestrian tram rail_urban rail rail_electric rail_fast ship" oneway="0"/>
    <type id="highway.tertiary_link" priority="5" speed="22.22" disallow="pedestrian tram rail_urban rail rail_electric rail_fast ship" oneway="0"/>
    <type id="highway.track" priority="1" speed="5.56" allow="pedestrian motorcycle moped bicycle" oneway="0"/>
    <type id="highway.trunk" priority="13" speed="27.78" disallow="pedestrian bicycle tram rail_urban rail rail_electric rail_fast ship" oneway="0"/>
    <type id="highway.trunk_link" priority="8" speed="22.22" disallow="pedestrian bicycle tram rail_urban rail rail_electric rail_fast ship" oneway="0"/>
    <type id="highway.unclassified" priority="4" speed="13.89" disallow="pedestrian tram rail_urban rail rail_electric rail_fast ship" oneway="0"/>
    <type id="highway.unsurfaced" priority="1" speed="8.33" disallow="tram rail_urban rail rail_electric rail_fast ship" oneway="0"/>
    <type id="railway.highspeed" priority="21" speed="69.44" allow="rail_fast" oneway="1"/>
    <type id="railway.light_rail" priority="19" speed="27.78" allow="rail_urban" oneway="1"/>
    <type id="railway.preserved" priority="16" speed="27.78" allow="rail" oneway="1"/>
    <type id="railway.rail" priority="20" speed="44.44" allow="rail" oneway="1"/>
    <type id="railway.subway" priority="18" speed="27.78" allow="rail_urban" oneway="1"/>
    <type id="railway.tram" priority="17" speed="13.89" allow="tram" oneway="1"/>

    <edge id=":7_0" function="internal">
        <lane id=":7_0_0" index="0" disallow="pedestrian tram rail_urban rail rail_electric rail_fast ship" speed="36.11" length="8.21" width="3.50" shape="-497.23,-486.91 -494.78,-479.07"/>
        <lane id=":7_0_1" index="1" disallow="pedestrian tram rail_urban rail rail_electric rail_fast ship" speed="36.11" length="8.04" width="3.50" shape="-499.38,-485.80 -497.09,-481.21 -495.84,-478.58"/>
        <lane id=":7_0_2" index="2" disallow="pedestrian tram rail_urban rail rail_electric rail_fast ship" speed="36.11" length="7.89" width="3.50" shape="-502.50,-484.21 -500.24,-479.69 -499.03,-477.13"/>
        <lane id=":7_0_3" index="3" disallow="pedestrian tram rail_urban rail rail_electric rail_fast ship" speed="36.11" length="7.73" width="3.50" shape="-505.61,-482.61 -503.39,-478.17 -502.21,-475.67"/>
    </edge>
    <edge id=":8_0" function="internal">
        <lane id=":8_0_0" index="0" disallow="pedestrian tram rail_urban rail rail_electric rail_fast ship" speed="36.11" length="7.84" width="3.50" shape="-460.89,-402.75 -457.49,-395.69"/>
    </edge>
    <edge id=":8_1" function="internal">
        <lane id=":8_1_0" index="0" disallow="pedestrian tram rail_urban rail rail_electric rail_fast ship" speed="36.11" length="7.85" width="3.50" shape="-460.89,-402.75 -457.66,-395.60"/>
        <lane id=":8_1_1" index="1" disallow="pedestrian tram rail_urban rail rail_electric rail_fast ship" speed="36.11" length="7.88" width="3.50" shape="-464.08,-401.29 -460.83,-394.11"/>
        <lane id=":8_1_2" index="2" disallow="pedestrian tram rail_urban rail rail_electric rail_fast ship" speed="36.11" length="8.12" width="3.50" shape="-467.26,-399.83 -463.92,-392.43"/>
    </edge>

    <edge id="10090" from="6" to="7" priority="3" type="highway.residential" spreadType="center" length="82.14">
        <lane id="10090_0" index="0" disallow="pedestrian tram rail_urban rail rail_electric rail_fast ship" speed="36.11" length="82.49" width="3.50" customShape="1" shape="-534.52,-560.47 -528.54,-549.69 -518.34,-530.60 -496.14,-487.46"/>
        <lane id="10090_1" index="1" disallow="pedestrian tram rail_urban rail rail_electric rail_fast ship" speed="36.11" length="82.37" width="3.50" customShape="1" shape="-537.58,-558.77 -531.63,-548.05 -521.44,-528.97 -499.25,-485.87"/>
        <lane id="10090_2" index="2" disallow="pedestrian tram rail_urban rail rail_electric rail_fast ship" speed="36.11" length="82.31" width="3.50" customShape="1" shape="-540.67,-557.12 -534.73,-546.41 -524.54,-527.35 -502.37,-484.27"/>
        <lane id="10090_3" index="3" disallow="pedestrian tram rail_urban rail rail_electric rail_fast ship" speed="36.11" length="82.14" width="3.50" customShape="1" shape="-543.71,-555.37 -537.82,-544.76 -527.65,-525.74 -505.48,-482.68"/>
    </edge>
    <edge id="10101" from="7" to="8" priority="3" type="highway.residential" spreadType="center" length="83.50">
        <lane id="10101_0" index="0" disallow="pedestrian tram rail_urban rail rail_electric rail_fast ship" speed="36.11" length="83.50" width="3.50" customShape="1" shape="-495.71,-478.64 -474.92,-433.32 -460.89,-402.75"/>
        <lane id="10101_1" index="1" disallow="pedestrian tram rail_urban rail rail_electric rail_fast ship" speed="36.11" length="83.50" width="3.50" customShape="1" shape="-498.89,-477.19 -478.10,-431.86 -464.08,-401.29"/>
        <lane id="10101_2" index="2" disallow="pedestrian tram rail_urban rail rail_electric rail_fast ship" speed="36.11" length="83.51" width="3.50" customShape="1" shape="-502.08,-475.73 -481.28,-430.40 -467.26,-399.83"/>
    </edge>
    <edge id="10850" from="8" to="9" priority="3" type="highway.residential" spreadType="center" length="29.05">
        <lane id="10850_0" index="0" disallow="pedestrian tram rail_urban rail rail_electric rail_fast ship" speed="36.11" length="29.05" width="3.50" customShape="1" shape="-457.49,-395.69 -456.97,-394.67 -453.57,-388.96 -447.57,-379.47 -444.85,-374.56 -443.01,-370.54"/>
    </edge>
    <edge id="10851" from="8" to="9" priority="3" type="highway.residential" spreadType="center" length="28.42">
        <lane id="10851_0" index="0" disallow="pedestrian tram rail_urban rail rail_electric rail_fast ship" speed="36.11" length="28.83" width="3.50" customShape="1" shape="-457.66,-395.60 -452.13,-383.18 -446.21,-369.14"/>
        <lane id="10851_1" index="1" disallow="pedestrian tram rail_urban rail rail_electric rail_fast ship" speed="36.11" length="28.77" width="3.50" customShape="1" shape="-460.83,-394.11 -455.35,-381.80 -449.41,-367.71"/>
        <lane id="10851_2" index="2" disallow="pedestrian tram rail_urban rail rail_electric rail_fast ship" speed="36.11" length="28.42" width="3.50" customShape="1" shape="-463.92,-392.43 -458.57,-380.42 -452.63,-366.35"/>
    </edge>

    <junction id="6" type="dead_end" x="-539.11" y="-557.92" incLanes="" intLanes="" shape="-545.24,-554.52 -532.99,-561.32" rightOfWay="edgePriority"/>
    <junction id="7" type="priority" x="-497.76" y="-482.18" incLanes="10090_0 10090_1 10090_2 10090_3" intLanes=":7_0_0 :7_0_1 :7_0_2 :7_0_3" shape="-503.67,-475.00 -494.12,-479.37 -494.61,-482.60 -494.28,-483.85 -493.97,-485.10 -493.97,-486.51 -494.58,-488.26 -507.04,-481.88">
        <request index="0" response="0010" foes="0010" cont="0"/>
        <request index="1" response="0000" foes="0001" cont="0"/>
        <request index="2" response="0000" foes="0000" cont="0"/>
        <request index="3" response="0000" foes="0000" cont="0"/>
    </junction>
    <junction id="8" type="priority" x="-462.46" y="-397.76" incLanes="10101_0 10101_1 10101_2" intLanes=":8_0_0 :8_1_0 :8_1_1 :8_1_2" shape="-465.48,-391.64 -455.93,-396.48 -459.30,-403.48 -468.85,-399.11">
        <request index="0" response="0000" foes="0000" cont="0"/>
        <request index="1" response="0000" foes="0000" cont="0"/>
        <request index="2" response="0000" foes="0000" cont="0"/>
        <request index="3" response="0000" foes="0000" cont="0"/>
    </junction>
    <junction id="9" type="dead_end" x="-446.17" y="-369.05" incLanes="10850_0 10851_0 10851_1 10851_2" intLanes="" shape="-441.40,-371.24 -444.58,-369.78 -454.23,-365.65"/>

    <connection from="10090" to="10101" fromLane="0" toLane="0" contPos="-4.00" shape="-501.77,-498.40 -499.85,-494.27 -497.90,-489.04 -493.35,-474.50 -491.38,-469.28 -490.56,-467.41" via=":7_0_0" dir="s" state="m"/>
    <connection from="10090" to="10101" fromLane="1" toLane="0" contPos="-4.00" shape="-504.89,-496.83 -497.09,-481.21 -490.56,-467.41" via=":7_0_1" dir="s" state="M"/>
    <connection from="10090" to="10101" fromLane="2" toLane="1" contPos="-4.00" shape="-508.00,-495.22 -500.24,-479.69 -493.74,-465.96" via=":7_0_2" dir="s" state="M"/>
    <connection from="10090" to="10101" fromLane="3" toLane="2" contPos="-4.00" shape="-511.12,-493.62 -503.39,-478.17 -496.92,-464.50" via=":7_0_3" dir="s" state="M"/>
    <connection from="10101" to="10850" fromLane="0" toLane="0" contPos="-4.00" via=":8_0_0" dir="s" state="M"/>
    <connection from="10101" to="10851" fromLane="0" toLane="0" contPos="-4.00" via=":8_1_0" dir="s" state="M"/>
    <connection from="10101" to="10851" fromLane="1" toLane="1" contPos="-4.00" via=":8_1_1" dir="s" state="M"/>
    <connection from="10101" to="10851" fromLane="2" toLane="2" contPos="-4.00" via=":8_1_2" dir="s" state="M"/>

    <connection from=":7_0" to="10101" fromLane="0" toLane="0" dir="s" state="M"/>
    <connection from=":7_0" to="10101" fromLane="1" toLane="0" dir="s" state="M"/>
    <connection from=":7_0" to="10101" fromLane="2" toLane="1" dir="s" state="M"/>
    <connection from=":7_0" to="10101" fromLane="3" toLane="2" dir="s" state="M"/>
    <connection from=":8_0" to="10850" fromLane="0" toLane="0" dir="s" state="M"/>
    <connection from=":8_1" to="10851" fromLane="0" toLane="0" dir="s" state="M"/>
    <connection from=":8_1" to="10851" fromLane="1" toLane="1" dir="s" state="M"/>
    <connection from=":8_1" to="10851" fromLane="2" toLane="2" dir="s" state="M"/>

</net>