<routes>
	<vehicle depart="0.1" departLane="0" departPos="26.109489351466127" departSpeed="8.0214951" id="341" type="bicycle">
		<route edges="10101 10850"/>
	</vehicle>
	<vehicle depart="0.1" departLane="1" departPos="22.69323364869858" departSpeed="8.3121386" id="351" type="passenger">
		<route edges=":7_0 10101 10850"/>
	</vehicle>
	<vehicle depart="0.1" departLane="3" departPos="2.5" departSpeed="16.285045" id="355" type="passenger">
		<route edges=":7_0 10101 10851"/>
	</vehicle>
	<vehicle depart="0.1" departLane="2" departPos="67.56463491530546" departSpeed="13.995213" id="357" type="passenger">
		<route edges="10090 10101 10851"/>
	</vehicle>
	<vehicle depart="0.1" departLane="2" departPos="40.326346534782374" departSpeed="15.456176" id="358" type="passenger">
		<route edges="10090 10101"/>
	</vehicle>
</routes>
