<!-- generated on Wed Feb 10 12:31:54 2021 by Eclipse SUMO netconvert Version 1.8.0
<configuration xmlns:xsi="http://www.w3.org/2001/XMLSchema-instance" xsi:noNamespaceSchemaLocation="http://sumo.dlr.de/xsd/netconvertConfiguration.xsd">

    <input>
        <node-files value="./converted_scenarios/SUMO/DEU_Luckenwalde-1_1_I-1-1/DEU_Luckenwalde-1_1_I-1-1.nod.xml"/>
        <edge-files value="./converted_scenarios/SUMO/DEU_Luckenwalde-1_1_I-1-1/DEU_Luckenwalde-1_1_I-1-1.edg.xml"/>
        <connection-files value="./converted_scenarios/SUMO/DEU_Luckenwalde-1_1_I-1-1/DEU_Luckenwalde-1_1_I-1-1.con.xml"/>
        <tllogic-files value="./converted_scenarios/SUMO/DEU_Luckenwalde-1_1_I-1-1/DEU_Luckenwalde-1_1_I-1-1.tll.xml"/>
        <type-files value="/home/zen/commonroad-interactive-benchmarks/install/commonroad-map-tool/crmapconverter/sumo_map/templates/DEU.typ.xml"/>
    </input>

    <output>
        <output-file value="./converted_scenarios/SUMO/DEU_Luckenwalde-1_1_I-1-1/DEU_Luckenwalde-1_1_I-1-1.net.xml"/>
    </output>

    <processing>
        <geometry.remove.keep-edges.explicit value="true"/>
        <geometry.avoid-overlap value="true"/>
        <offset.disable-normalization value="true"/>
    </processing>

    <junctions>
        <no-turnarounds value="true"/>
        <junctions.internal-link-detail value="20"/>
    </junctions>

    <report>
        <aggregate-warnings value="5"/>
    </report>

    <random_number>
        <seed value="1234"/>
    </random_number>

</configuration>
--><net xmlns:xsi="http://www.w3.org/2001/XMLSchema-instance" version="1.6" junctionCornerDetail="5" junctionLinkDetail="20" limitTurnSpeed="5.50" xsi:noNamespaceSchemaLocation="http://sumo.dlr.de/xsd/net_file.xsd">

    <location netOffset="0.00,0.00" convBoundary="-494.91,-182.53,-340.24,-57.84" origBoundary="-494.91,-182.53,-340.24,-57.84" projParameter="!"/>

    <type id="highway.bridleway" priority="1" speed="2.78" allow="pedestrian" oneway="1" width="2.00"/>
    <type id="highway.bus_guideway" priority="1" speed="27.78" allow="bus" oneway="1"/>
    <type id="highway.cycleway" priority="1" speed="8.33" allow="bicycle" oneway="0" width="1.00"/>
    <type id="highway.footway" priority="1" speed="2.78" allow="pedestrian" oneway="1" width="2.00"/>
    <type id="highway.ford" priority="1" speed="2.78" allow="army" oneway="0"/>
    <type id="highway.living_street" priority="2" speed="2.78" disallow="tram rail_urban rail rail_electric rail_fast ship" oneway="0"/>
    <type id="highway.motorway" priority="14" speed="39.44" allow="private emergency authority army vip passenger hov taxi bus coach delivery truck trailer motorcycle evehicle custom1 custom2" oneway="1"/>
    <type id="highway.motorway_link" priority="9" speed="22.22" allow="private emergency authority army vip passenger hov taxi bus coach delivery truck trailer motorcycle evehicle custom1 custom2" oneway="1"/>
    <type id="highway.path" priority="1" speed="2.78" allow="pedestrian bicycle" oneway="0" width="2.00"/>
    <type id="highway.pedestrian" priority="1" speed="2.78" allow="pedestrian" oneway="1" width="2.00"/>
    <type id="highway.primary" priority="12" speed="27.78" disallow="pedestrian tram rail_urban rail rail_electric rail_fast ship" oneway="0"/>
    <type id="highway.primary_link" priority="7" speed="22.22" disallow="pedestrian tram rail_urban rail rail_electric rail_fast ship" oneway="0"/>
    <type id="highway.raceway" priority="15" speed="83.33" allow="vip" oneway="0"/>
    <type id="highway.residential" priority="3" speed="13.89" disallow="pedestrian tram rail_urban rail rail_electric rail_fast ship" oneway="0"/>
    <type id="highway.secondary" priority="11" speed="27.78" disallow="pedestrian tram rail_urban rail rail_electric rail_fast ship" oneway="0"/>
    <type id="highway.secondary_link" priority="6" speed="22.22" disallow="pedestrian tram rail_urban rail rail_electric rail_fast ship" oneway="0"/>
    <type id="highway.service" priority="1" speed="5.56" allow="pedestrian delivery bicycle" oneway="0"/>
    <type id="highway.stairs" priority="1" speed="1.39" allow="pedestrian" oneway="1" width="2.00"/>
    <type id="highway.step" priority="1" speed="1.39" allow="pedestrian" oneway="1" width="2.00"/>
    <type id="highway.steps" priority="1" speed="1.39" allow="pedestrian" oneway="1" width="2.00"/>
    <type id="highway.tertiary" priority="10" speed="22.22" disallow="pedestrian tram rail_urban rail rail_electric rail_fast ship" oneway="0"/>
    <type id="highway.tertiary_link" priority="5" speed="22.22" disallow="pedestrian tram rail_urban rail rail_electric rail_fast ship" oneway="0"/>
    <type id="highway.track" priority="1" speed="5.56" allow="pedestrian motorcycle moped bicycle" oneway="0"/>
    <type id="highway.trunk" priority="13" speed="27.78" disallow="pedestrian bicycle tram rail_urban rail rail_electric rail_fast ship" oneway="0"/>
    <type id="highway.trunk_link" priority="8" speed="22.22" disallow="pedestrian bicycle tram rail_urban rail rail_electric rail_fast ship" oneway="0"/>
    <type id="highway.unclassified" priority="4" speed="13.89" disallow="pedestrian tram rail_urban rail rail_electric rail_fast ship" oneway="0"/>
    <type id="highway.unsurfaced" priority="1" speed="8.33" disallow="tram rail_urban rail rail_electric rail_fast ship" oneway="0"/>
    <type id="railway.highspeed" priority="21" speed="69.44" allow="rail_fast" oneway="1"/>
    <type id="railway.light_rail" priority="19" speed="27.78" allow="rail_urban" oneway="1"/>
    <type id="railway.preserved" priority="16" speed="27.78" allow="rail" oneway="1"/>
    <type id="railway.rail" priority="20" speed="44.44" allow="rail" oneway="1"/>
    <type id="railway.subway" priority="18" speed="27.78" allow="rail_urban" oneway="1"/>
    <type id="railway.tram" priority="17" speed="13.89" allow="tram" oneway="1"/>

    <edge id=":15_0" function="internal">
        <lane id=":15_0_0" index="0" disallow="pedestrian tram rail_urban rail rail_electric rail_fast ship" speed="36.11" length="3.00" width="3.50" shape="-378.88,-129.86 -376.55,-127.97"/>
    </edge>
    <edge id=":25_0" function="internal">
        <lane id=":25_0_0" index="0" disallow="pedestrian tram rail_urban rail rail_electric rail_fast ship" speed="36.11" length="2.98" width="3.50" shape="-369.71,-122.70 -367.33,-120.90"/>
    </edge>
    <edge id=":30_0" function="internal">
        <lane id=":30_0_0" index="0" disallow="pedestrian tram rail_urban rail rail_electric rail_fast ship" speed="36.11" length="0.29" width="3.50" shape="-370.51,-118.91 -370.74,-119.08"/>
    </edge>
    <edge id=":31_0" function="internal">
        <lane id=":31_0_0" index="0" disallow="pedestrian tram rail_urban rail rail_electric rail_fast ship" speed="36.11" length="2.99" width="3.50" shape="-378.75,-125.25 -381.08,-127.13"/>
    </edge>
    <edge id=":37_0" function="internal">
        <lane id=":37_0_0" index="0" disallow="pedestrian tram rail_urban rail rail_electric rail_fast ship" speed="9.15" length="12.40" width="3.50" shape="-384.30,-129.74 -385.45,-130.50 -386.72,-131.03 -388.07,-131.31 -389.45,-131.35 -390.83,-131.20 -392.61,-130.75 -394.34,-130.10 -395.98,-129.32"/>
    </edge>
    <edge id=":37_1" function="internal">
        <lane id=":37_1_0" index="0" disallow="pedestrian tram rail_urban rail rail_electric rail_fast ship" speed="36.11" length="16.87" width="3.50" shape="-384.30,-129.74 -391.30,-135.67 -397.00,-140.84"/>
    </edge>
    <edge id=":37_2" function="internal">
        <lane id=":37_2_0" index="0" disallow="pedestrian tram rail_urban rail rail_electric rail_fast ship" speed="36.11" length="16.59" width="3.50" shape="-394.62,-143.40 -389.00,-138.31 -382.13,-132.48"/>
    </edge>
    <edge id=":37_3" function="internal">
        <lane id=":37_3_0" index="0" disallow="pedestrian tram rail_urban rail rail_electric rail_fast ship" speed="7.90" length="17.62" width="3.50" shape="-394.62,-143.40 -393.59,-142.37 -392.22,-140.69 -391.41,-139.33 -390.84,-137.82 -390.67,-136.93 -390.64,-135.99 -390.75,-135.07 -391.00,-134.20 -391.37,-133.38 -391.88,-132.60 -392.93,-131.43 -394.14,-130.45 -395.98,-129.32"/>
    </edge>
    <edge id=":37_4" function="internal">
        <lane id=":37_4_0" index="0" disallow="pedestrian tram rail_urban rail rail_electric rail_fast ship" speed="6.26" length="10.52" width="3.50" shape="-397.49,-132.48 -397.12,-132.70 -396.64,-133.00 -396.19,-133.33 -395.75,-133.68 -395.36,-134.08 -395.01,-134.52 -394.71,-135.00 -394.51,-135.52 -394.40,-136.07 -394.41,-136.63 -394.51,-137.18 -394.68,-137.71 -394.91,-138.22 -395.19,-138.71 -395.50,-139.17 -395.85,-139.62 -396.21,-140.04 -396.60,-140.45 -397.00,-140.84"/>
    </edge>
    <edge id=":37_5" function="internal">
        <lane id=":37_5_0" index="0" disallow="pedestrian tram rail_urban rail rail_electric rail_fast ship" speed="10.42" length="16.31" width="3.50" shape="-397.49,-132.47 -395.55,-133.39 -393.35,-134.18 -391.04,-134.71 -389.19,-134.87 -387.31,-134.75 -385.45,-134.30 -383.70,-133.53 -382.13,-132.48"/>
    </edge>
    <edge id=":38_0" function="internal">
        <lane id=":38_0_0" index="0" disallow="pedestrian tram rail_urban rail rail_electric rail_fast ship" speed="36.11" length="20.54" width="3.50" shape="-429.81,-141.12 -434.59,-150.36 -435.46,-153.30 -436.91,-159.25 -437.21,-160.15"/>
    </edge>
    <edge id=":38_1" function="internal">
        <lane id=":38_1_0" index="0" disallow="pedestrian tram rail_urban rail rail_electric rail_fast ship" speed="9.53" length="19.32" width="3.49" shape="-429.81,-141.12 -434.22,-149.58 -434.58,-151.23 -434.57,-152.36 -434.35,-153.46 -433.65,-155.00 -432.62,-156.34 -430.94,-157.83 -430.77,-157.95"/>
    </edge>
    <edge id=":39_0" function="internal">
        <lane id=":39_0_0" index="0" disallow="pedestrian tram rail_urban rail rail_electric rail_fast ship" speed="9.33" length="14.27" width="3.50" shape="-413.87,-113.76 -415.04,-115.28 -416.38,-116.64 -417.51,-117.51 -418.74,-118.23 -420.07,-118.77 -421.46,-119.10 -422.89,-119.23 -424.79,-119.10 -426.15,-118.83"/>
    </edge>
    <edge id=":39_1" function="internal">
        <lane id=":39_1_0" index="0" disallow="pedestrian tram rail_urban rail rail_electric rail_fast ship" speed="36.11" length="18.89" width="3.50" shape="-413.87,-113.75 -418.34,-120.60 -422.49,-127.63 -423.72,-129.86"/>
    </edge>
    <edge id=":39_2" function="internal">
        <lane id=":39_2_0" index="0" disallow="pedestrian tram rail_urban rail rail_electric rail_fast ship" speed="8.22" length="17.95" width="3.50" shape="-413.87,-113.75 -415.14,-115.86 -415.81,-117.34 -416.28,-118.90 -416.42,-120.52 -416.35,-121.33 -416.17,-122.12 -415.87,-122.87 -415.46,-123.58 -414.97,-124.23 -413.78,-125.34 -412.42,-126.23 -410.21,-127.26 -409.41,-127.55"/>
    </edge>
    <edge id=":39_3" function="internal">
        <lane id=":39_3_0" index="0" disallow="pedestrian tram rail_urban rail rail_electric rail_fast ship" speed="6.66" length="11.32" width="3.50" shape="-408.25,-124.25 -408.84,-124.03 -409.39,-123.80 -409.93,-123.56 -410.46,-123.28 -410.96,-122.97 -411.44,-122.61 -411.88,-122.21 -412.25,-121.75 -412.54,-121.23 -412.70,-120.66 -412.75,-120.07 -412.70,-119.48 -412.58,-118.90 -412.39,-118.34 -412.16,-117.79 -411.90,-117.25 -411.62,-116.73 -411.31,-116.23 -410.98,-115.73"/>
    </edge>
    <edge id=":39_4" function="internal">
        <lane id=":39_4_0" index="0" disallow="pedestrian tram rail_urban rail rail_electric rail_fast ship" speed="36.11" length="18.71" width="3.50" shape="-408.25,-124.25 -408.83,-124.05 -418.19,-121.04 -426.15,-118.83"/>
    </edge>
    <edge id=":39_5" function="internal">
        <lane id=":39_5_0" index="0" disallow="pedestrian tram rail_urban rail rail_electric rail_fast ship" speed="9.59" length="18.23" width="3.50" shape="-408.25,-124.24 -410.90,-123.52 -412.91,-123.26 -414.93,-123.29 -416.90,-123.69 -418.76,-124.48 -420.42,-125.64 -421.84,-127.07 -423.04,-128.70 -423.72,-129.86"/>
    </edge>
    <edge id=":39_6" function="internal">
        <lane id=":39_6_0" index="0" disallow="pedestrian tram rail_urban rail rail_electric rail_fast ship" speed="8.25" length="13.26" width="3.50" shape="-420.64,-131.53 -420.13,-130.66 -419.23,-129.43 -418.22,-128.40 -417.06,-127.60 -415.79,-127.07 -414.40,-126.80 -412.94,-126.78 -411.46,-126.99 -409.41,-127.55"/>
    </edge>
    <edge id=":39_7" function="internal">
        <lane id=":39_7_0" index="0" disallow="pedestrian tram rail_urban rail rail_electric rail_fast ship" speed="36.11" length="18.53" width="3.50" shape="-420.64,-131.53 -419.45,-129.35 -415.37,-122.45 -410.98,-115.73"/>
    </edge>
    <edge id=":39_8" function="internal">
        <lane id=":39_8_0" index="0" disallow="pedestrian tram rail_urban rail rail_electric rail_fast ship" speed="8.00" length="16.76" width="3.50" shape="-420.64,-131.53 -419.73,-129.56 -419.28,-128.08 -419.04,-126.49 -419.14,-124.84 -419.37,-123.90 -419.73,-123.08 -420.20,-122.33 -420.78,-121.63 -421.43,-121.03 -422.72,-120.16 -424.13,-119.49 -426.15,-118.83"/>
    </edge>
    <edge id=":39_9" function="internal">
        <lane id=":39_9_0" index="0" disallow="pedestrian tram rail_urban rail rail_electric rail_fast ship" speed="6.39" length="10.20" width="3.50" shape="-427.02,-122.22 -426.51,-122.38 -426.00,-122.55 -425.49,-122.74 -425.01,-122.97 -424.54,-123.23 -424.10,-123.54 -423.70,-123.89 -423.33,-124.29 -423.05,-124.74 -422.84,-125.24 -422.72,-125.76 -422.67,-126.29 -422.70,-126.83 -422.78,-127.36 -422.90,-127.88 -423.06,-128.40 -423.25,-128.90 -423.47,-129.39 -423.72,-129.86"/>
    </edge>
    <edge id=":39_10" function="internal">
        <lane id=":39_10_0" index="0" disallow="pedestrian tram rail_urban rail rail_electric rail_fast ship" speed="36.11" length="18.40" width="3.50" shape="-427.02,-122.22 -419.19,-124.39 -409.98,-127.35 -409.41,-127.55"/>
    </edge>
    <edge id=":39_11" function="internal">
        <lane id=":39_11_0" index="0" disallow="pedestrian tram rail_urban rail rail_electric rail_fast ship" speed="10.58" length="18.57" width="3.50" shape="-427.02,-122.22 -425.23,-122.57 -422.80,-122.74 -420.91,-122.58 -419.05,-122.15 -417.28,-121.45 -415.65,-120.50 -414.16,-119.36 -412.45,-117.64 -410.98,-115.73"/>
    </edge>
    <edge id=":40_0" function="internal">
        <lane id=":40_0_0" index="0" disallow="pedestrian tram rail_urban rail rail_electric rail_fast ship" speed="36.11" length="14.22" width="3.50" shape="-416.57,-159.04 -421.44,-163.84 -426.43,-169.28"/>
    </edge>
    <edge id=":40_1" function="internal">
        <lane id=":40_1_0" index="0" disallow="pedestrian tram rail_urban rail rail_electric rail_fast ship" speed="36.11" length="13.86" width="3.50" shape="-423.79,-171.58 -418.92,-166.27 -414.18,-161.60"/>
    </edge>
    <edge id=":40_2" function="internal">
        <lane id=":40_2_0" index="0" disallow="pedestrian tram rail_urban rail rail_electric rail_fast ship" speed="6.59" length="10.27" width="3.50" shape="-426.75,-160.59 -425.50,-161.59 -424.75,-162.53 -424.27,-163.64 -424.18,-164.84 -424.42,-166.03 -425.21,-167.65 -426.43,-169.28"/>
    </edge>
    <edge id=":40_3" function="internal">
        <lane id=":40_3_0" index="0" disallow="pedestrian tram rail_urban rail rail_electric rail_fast ship" speed="8.70" length="13.60" width="3.50" shape="-426.73,-160.57 -424.50,-161.84 -422.46,-162.72 -420.85,-163.19 -419.20,-163.41 -417.53,-163.30 -416.46,-163.01 -414.98,-162.24 -414.18,-161.60"/>
    </edge>

    <edge id="101" from="36" to="39" priority="3" type="highway.residential" spreadType="center" length="20.62" shape="-430.45,-149.66 -415.94,-123.73">
        <lane id="101_0" index="0" disallow="pedestrian tram rail_urban rail rail_electric rail_fast ship" speed="36.11" length="20.62" width="3.50" customShape="1" shape="-430.45,-149.66 -425.55,-140.61 -420.64,-131.52"/>
    </edge>
    <edge id="102" from="39" to="38" priority="3" type="highway.residential" spreadType="center" length="12.80" shape="-419.08,-122.20 -433.61,-155.78">
        <lane id="102_0" index="0" disallow="pedestrian tram rail_urban rail rail_electric rail_fast ship" speed="36.11" length="12.80" width="3.50" customShape="1" shape="-423.72,-129.86 -428.63,-138.95 -429.81,-141.12"/>
    </edge>
    <edge id="104" from="40" to="37" priority="3" type="highway.residential" spreadType="center" length="26.73" shape="-420.39,-165.68 -390.70,-135.93">
        <lane id="104_0" index="0" disallow="pedestrian tram rail_urban rail rail_electric rail_fast ship" speed="36.11" length="26.73" width="3.50" customShape="1" shape="-414.18,-161.60 -404.40,-152.50 -394.61,-143.39"/>
    </edge>
    <edge id="105" from="37" to="40" priority="3" type="highway.residential" spreadType="center" length="26.72" shape="-393.18,-133.46 -422.87,-163.21">
        <lane id="105_0" index="0" disallow="pedestrian tram rail_urban rail rail_electric rail_fast ship" speed="36.11" length="26.72" width="3.50" customShape="1" shape="-397.00,-140.84 -406.78,-149.93 -416.57,-159.04"/>
    </edge>
    <edge id="13" from="39" to="2" priority="3" type="highway.residential" spreadType="center" length="70.00" shape="-416.12,-124.03 -369.26,-59.89">
        <lane id="13_0" index="0" disallow="pedestrian tram rail_urban rail rail_electric rail_fast ship" speed="36.11" length="70.00" width="3.50" customShape="1" shape="-410.98,-115.73 -409.27,-113.24 -400.19,-99.73 -393.58,-88.86 -390.04,-83.42 -385.86,-77.81 -380.60,-71.19 -376.68,-66.76 -372.84,-62.96 -369.26,-59.89"/>
    </edge>
    <edge id="14" from="11" to="39" priority="3" type="highway.residential" spreadType="center" length="69.99" shape="-372.24,-57.84 -418.95,-121.97">
        <lane id="14_0" index="0" disallow="pedestrian tram rail_urban rail rail_electric rail_fast ship" speed="36.11" length="69.99" width="3.50" customShape="1" shape="-372.24,-57.84 -375.21,-60.39 -379.22,-64.36 -383.29,-68.94 -388.64,-75.68 -392.92,-81.43 -396.55,-87.02 -403.13,-97.83 -412.16,-111.27 -413.87,-113.76"/>
    </edge>
    <edge id="153" from="30" to="31" priority="3" type="highway.residential" spreadType="center" length="10.11">
        <lane id="153_0" index="0" disallow="pedestrian tram rail_urban rail rail_electric rail_fast ship" speed="36.11" length="10.11" width="3.50" customShape="1" shape="-370.74,-119.08 -378.75,-125.25"/>
    </edge>
    <edge id="16" from="38" to="40" priority="3" type="highway.residential" spreadType="center" length="4.80">
        <lane id="16_0" index="0" disallow="pedestrian tram rail_urban rail rail_electric rail_fast ship" speed="36.11" length="4.80" width="3.49" customShape="1" shape="-430.79,-157.99 -428.39,-159.52 -426.74,-160.57"/>
    </edge>
    <edge id="18" from="21" to="39" priority="3" type="highway.residential" spreadType="center" length="70.02" shape="-494.91,-105.18 -417.90,-124.67">
        <lane id="18_0" index="0" disallow="pedestrian tram rail_urban rail rail_electric rail_fast ship" speed="36.11" length="70.02" width="3.50" customShape="1" shape="-494.91,-105.18 -427.00,-122.23"/>
    </edge>
    <edge id="185" from="15" to="25" priority="3" type="highway.residential" spreadType="center" length="8.63">
        <lane id="185_0" index="0" disallow="pedestrian tram rail_urban rail rail_electric rail_fast ship" speed="36.11" length="8.63" width="3.50" customShape="1" shape="-376.55,-127.97 -369.71,-122.70"/>
    </edge>
    <edge id="19" from="39" to="5" priority="3" type="highway.residential" spreadType="center" length="70.01" shape="-417.04,-121.28 -494.05,-101.79">
        <lane id="19_0" index="0" disallow="pedestrian tram rail_urban rail rail_electric rail_fast ship" speed="36.11" length="70.01" width="3.50" customShape="1" shape="-426.15,-118.83 -494.05,-101.79"/>
    </edge>
    <edge id="21" from="25" to="26" priority="3" type="highway.residential" spreadType="center" length="33.74">
        <lane id="21_0" index="0" disallow="pedestrian tram rail_urban rail rail_electric rail_fast ship" speed="36.11" length="33.74" width="3.50" customShape="1" shape="-367.33,-120.90 -354.39,-111.30 -340.24,-100.79"/>
    </edge>
    <edge id="22" from="29" to="30" priority="3" type="highway.residential" spreadType="center" length="35.11">
        <lane id="22_0" index="0" disallow="pedestrian tram rail_urban rail rail_electric rail_fast ship" speed="36.11" length="35.11" width="3.50" customShape="1" shape="-342.32,-97.98 -356.48,-108.49 -370.51,-118.91"/>
    </edge>
    <edge id="60" from="37" to="15" priority="3" type="highway.residential" spreadType="center" length="4.17" shape="-391.28,-136.32 -377.71,-128.91">
        <lane id="60_0" index="0" disallow="pedestrian tram rail_urban rail rail_electric rail_fast ship" speed="36.11" length="4.17" width="3.50" customShape="1" shape="-382.13,-132.48 -379.90,-130.68 -378.88,-129.86"/>
    </edge>
    <edge id="61" from="31" to="37" priority="3" type="highway.residential" spreadType="center" length="4.18" shape="-379.91,-126.19 -392.95,-133.27">
        <lane id="61_0" index="0" disallow="pedestrian tram rail_urban rail rail_electric rail_fast ship" speed="36.11" length="4.18" width="3.50" customShape="1" shape="-381.08,-127.13 -382.11,-127.96 -384.33,-129.76"/>
    </edge>
    <edge id="84" from="38" to="34" priority="3" type="highway.residential" spreadType="center" length="17.16">
        <lane id="84_0" index="0" disallow="pedestrian tram rail_urban rail rail_electric rail_fast ship" speed="36.11" length="17.16" width="3.50" customShape="1" shape="-437.20,-160.16 -441.51,-172.05 -442.88,-176.35"/>
    </edge>
    <edge id="95" from="35" to="40" priority="3" type="highway.residential" spreadType="center" length="14.55" shape="-433.37,-182.53 -420.11,-165.35">
        <lane id="95_0" index="0" disallow="pedestrian tram rail_urban rail rail_electric rail_fast ship" speed="36.11" length="14.55" width="3.50" customShape="1" shape="-433.37,-182.53 -428.58,-177.06 -423.79,-171.58"/>
    </edge>
    <edge id="96" from="40" to="23" priority="3" type="highway.residential" spreadType="center" length="14.54" shape="-422.87,-163.21 -436.00,-180.22">
        <lane id="96_0" index="0" disallow="pedestrian tram rail_urban rail rail_electric rail_fast ship" speed="36.11" length="14.54" width="3.50" customShape="1" shape="-426.43,-169.28 -431.22,-174.75 -436.00,-180.22"/>
    </edge>
    <edge id="98" from="39" to="37" priority="3" type="highway.residential" spreadType="center" length="12.91" shape="-418.34,-124.51 -392.67,-136.29">
        <lane id="98_0" index="0" disallow="pedestrian tram rail_urban rail rail_electric rail_fast ship" speed="36.11" length="12.91" width="3.50" customShape="1" shape="-409.41,-127.55 -406.63,-128.53 -401.60,-130.50 -397.49,-132.47"/>
    </edge>
    <edge id="99" from="37" to="39" priority="3" type="highway.residential" spreadType="center" length="13.33" shape="-391.21,-133.11 -416.88,-121.33">
        <lane id="99_0" index="0" disallow="pedestrian tram rail_urban rail rail_electric rail_fast ship" speed="36.11" length="13.33" width="3.50" customShape="1" shape="-395.98,-129.32 -400.21,-127.29 -405.43,-125.24 -408.29,-124.23"/>
    </edge>

    <junction id="11" type="dead_end" x="-372.24" y="-57.84" incLanes="" intLanes="" shape="-371.10,-59.16 -373.38,-56.51" rightOfWay="edgePriority"/>
    <junction id="15" type="priority" x="-377.71" y="-128.91" incLanes="60_0" intLanes=":15_0_0" shape="-377.64,-126.61 -375.45,-129.33 -377.78,-131.21 -379.98,-128.50" rightOfWay="edgePriority">
        <request index="0" response="0" foes="0" cont="0"/>
    </junction>
    <junction id="2" type="dead_end" x="-369.26" y="-59.89" incLanes="13_0" intLanes="" shape="-368.12,-61.22 -370.40,-58.56" rightOfWay="edgePriority"/>
    <junction id="21" type="dead_end" x="-494.91" y="-105.18" incLanes="" intLanes="" shape="-494.49,-103.48 -495.34,-106.88" rightOfWay="edgePriority"/>
    <junction id="23" type="dead_end" x="-436.00" y="-180.22" incLanes="96_0" intLanes="" shape="-437.32,-179.07 -434.69,-181.37" rightOfWay="edgePriority"/>
    <junction id="25" type="priority" x="-368.52" y="-121.79" incLanes="185_0" intLanes=":25_0_0" shape="-368.37,-119.50 -366.28,-122.31 -368.64,-124.09 -370.77,-121.32" rightOfWay="edgePriority">
        <request index="0" response="0" foes="0" cont="0"/>
    </junction>
    <junction id="26" type="dead_end" x="-340.24" y="-100.79" incLanes="21_0" intLanes="" shape="-339.20,-102.20 -341.29,-99.39" rightOfWay="edgePriority"/>
    <junction id="29" type="dead_end" x="-342.32" y="-97.98" incLanes="" intLanes="" shape="-341.28,-99.38 -343.36,-96.57" rightOfWay="edgePriority"/>
    <junction id="30" type="priority" x="-370.62" y="-118.99" incLanes="22_0" intLanes=":30_0_0" shape="-371.55,-117.50 -369.46,-120.31 -369.67,-120.46 -371.80,-117.69" rightOfWay="edgePriority">
        <request index="0" response="0" foes="0" cont="0"/>
    </junction>
    <junction id="31" type="priority" x="-379.91" y="-126.19" incLanes="153_0" intLanes=":31_0_0" shape="-379.84,-123.89 -377.65,-126.61 -379.98,-128.49 -382.18,-125.78" rightOfWay="edgePriority">
        <request index="0" response="0" foes="0" cont="0"/>
    </junction>
    <junction id="34" type="dead_end" x="-442.88" y="-176.35" incLanes="84_0" intLanes="" shape="-444.55,-175.81 -441.21,-176.88" rightOfWay="edgePriority"/>
    <junction id="35" type="dead_end" x="-433.37" y="-182.53" incLanes="" intLanes="" shape="-434.68,-181.37 -432.05,-183.68" rightOfWay="edgePriority"/>
    <junction id="36" type="dead_end" x="-430.45" y="-149.66" incLanes="" intLanes="" shape="-431.99,-148.83 -428.91,-150.50" rightOfWay="edgePriority"/>
    <junction id="37" type="priority" x="-391.94" y="-134.70" incLanes="61_0 104_0 98_0" intLanes=":37_0_0 :37_1_0 :37_2_0 :37_3_0 :37_4_0 :37_5_0" shape="-385.43,-128.41 -381.03,-133.84 -393.43,-144.68 -398.20,-139.56 -396.47,-137.33 -396.26,-136.37 -396.48,-135.50 -397.14,-134.72 -398.24,-134.05 -395.22,-127.74 -393.10,-128.64 -391.17,-129.23 -389.43,-129.50 -387.90,-129.45 -386.56,-129.09">
        <request index="0" response="000000" foes="001000" cont="0"/>
        <request index="1" response="000000" foes="111000" cont="0"/>
        <request index="2" response="000000" foes="100000" cont="0"/>
        <request index="3" response="000011" foes="100011" cont="0"/>
        <request index="4" response="000010" foes="000010" cont="0"/>
        <request index="5" response="001110" foes="001110" cont="0"/>
    </junction>
    <junction id="38" type="priority" x="-433.61" y="-155.78" incLanes="102_0" intLanes=":38_0_0 :38_1_0" shape="-431.34,-140.28 -428.27,-141.95 -430.05,-145.57 -431.22,-148.71 -431.79,-151.38 -431.75,-153.57 -431.10,-155.28 -429.85,-156.51 -431.73,-159.46 -433.36,-158.83 -434.04,-158.91 -434.64,-159.26 -435.14,-159.87 -435.55,-160.75 -438.84,-159.56 -437.40,-155.39 -435.61,-149.69 -434.69,-147.16 -433.36,-144.20">
        <request index="0" response="00" foes="00" cont="0"/>
        <request index="1" response="00" foes="00" cont="0"/>
    </junction>
    <junction id="39" type="priority" x="-417.51" y="-122.97" incLanes="14_0 99_0 101_0 18_0" intLanes=":39_0_0 :39_1_0 :39_2_0 :39_3_0 :39_4_0 :39_5_0 :39_6_0 :39_7_0 :39_8_0 :39_9_0 :39_10_0 :39_11_0" shape="-415.31,-112.77 -409.54,-116.72 -410.61,-119.25 -410.52,-120.29 -409.99,-121.20 -409.04,-121.97 -407.67,-122.60 -409.99,-129.20 -411.97,-128.68 -413.77,-128.58 -415.38,-128.90 -416.81,-129.63 -418.05,-130.79 -419.10,-132.36 -425.26,-129.03 -424.54,-126.68 -424.72,-125.75 -425.26,-124.98 -426.16,-124.37 -427.43,-123.92 -425.73,-117.14 -423.68,-117.46 -421.75,-117.36 -419.96,-116.84 -418.28,-115.90 -416.73,-114.54">
        <request index="0" response="000000000000" foes="000100010000" cont="0"/>
        <request index="1" response="000000000000" foes="111100110000" cont="0"/>
        <request index="2" response="000011000000" foes="110011110000" cont="0"/>
        <request index="3" response="000010000000" foes="100010000000" cont="0"/>
        <request index="4" response="000110000111" foes="100110000111" cont="0"/>
        <request index="5" response="011110000110" foes="011110000110" cont="0"/>
        <request index="6" response="000000000000" foes="010000000100" cont="0"/>
        <request index="7" response="000000000000" foes="110000111100" cont="0"/>
        <request index="8" response="000000000011" foes="110000110011" cont="0"/>
        <request index="9" response="000000000010" foes="000000100010" cont="0"/>
        <request index="10" response="000111000110" foes="000111100110" cont="0"/>
        <request index="11" response="000110011110" foes="000110011110" cont="0"/>
    </junction>
    <junction id="40" type="priority" x="-421.58" y="-164.39" incLanes="105_0 95_0 16_0" intLanes=":40_0_0 :40_1_0 :40_2_0 :40_3_0" shape="-417.76,-157.76 -412.99,-162.88 -415.12,-164.87 -416.68,-166.36 -417.92,-167.62 -419.13,-168.93 -420.56,-170.54 -422.48,-172.73 -427.74,-168.12 -426.21,-165.70 -426.01,-164.64 -426.19,-163.68 -426.74,-162.81 -427.68,-162.05 -425.80,-159.10 -423.17,-160.06 -421.83,-160.02 -420.49,-159.62 -419.13,-158.86">
        <request index="0" response="0000" foes="1100" cont="0"/>
        <request index="1" response="0000" foes="1000" cont="0"/>
        <request index="2" response="0001" foes="0001" cont="0"/>
        <request index="3" response="0011" foes="0011" cont="0"/>
    </junction>
    <junction id="5" type="dead_end" x="-494.05" y="-101.79" incLanes="19_0" intLanes="" shape="-493.62,-100.09 -494.47,-103.49" rightOfWay="edgePriority"/>

    <connection from="101" to="98" fromLane="0" toLane="0" contPos="-4.00" shape="-420.64,-131.52 -420.13,-130.66 -419.23,-129.43 -418.22,-128.40 -417.06,-127.60 -415.79,-127.07 -414.40,-126.80 -412.94,-126.78 -411.46,-126.99 -409.41,-127.55" via=":39_6_0" dir="r" state="M"/>
    <connection from="101" to="13" fromLane="0" toLane="0" contPos="-4.00" shape="-420.64,-131.52 -419.45,-129.35 -415.37,-122.45 -410.98,-115.73" via=":39_7_0" dir="s" state="M"/>