<routes>
	<vehicle depart="0.1" departLane="0" departPos="23.56285031972521" departSpeed="6.9281382" id="315" type="bicycle">
		<route edges="21"/>
	</vehicle>
	<vehicle depart="0.1" departLane="0" departPos="13.943631478313714" departSpeed="0.0" id="325" type="bicycle">
		<route edges="95 104"/>
	</vehicle>
	<vehicle depart="0.1" departLane="0" departPos="56.3969892794893" departSpeed="6.8800456" id="342" type="bicycle">
		<route edges="14 102 16"/>
	</vehicle>
	<vehicle depart="0.1" departLane="0" departPos="21.97835316666179" departSpeed="0.013953625" id="341" type="bus">
		<route edges="18 13"/>
	</vehicle>
	<vehicle depart="0.1" departLane="0" departPos="19.236669675001977" departSpeed="0.0" id="32" type="passenger">
		<route edges="104 99"/>
	</vehicle>
	<vehicle depart="0.1" departLane="0" departPos="13.230086263503471" departSpeed="0.0" id="35" type="passenger">
		<route edges="99 102"/>
	</vehicle>
	<vehicle depart="0.1" departLane="0" departPos="6.10408764674537" departSpeed="0.0" id="36" type="passenger">
		<route edges="99 102"/>
	</vehicle>
	<vehicle depart="0.1" departLane="0" departPos="70.12599111616422" departSpeed="0.0" id="37" type="passenger">
		<route edges="18 13"/>
	</vehicle>
	<vehicle depart="0.1" departLane="0" departPos="26.636200528671925" departSpeed="0.0" id="312" type="passenger">
		<route edges="104 99"/>
	</vehicle>
	<vehicle depart="0.1" departLane="0" departPos="11.837077200996182" departSpeed="0.0" id="313" type="passenger">
		<route edges="104 99"/>
	</vehicle>
	<vehicle depart="0.1" departLane="0" departPos="62.84052528374769" departSpeed="0.0" id="314" type="passenger">
		<route edges="18 13"/>
	</vehicle>
	<vehicle depart="0.1" departLane="0" departPos="9.099080033591758" departSpeed="0.0" id="316" type="passenger">
		<route edges="153 61"/>
	</vehicle>
	<vehicle depart="0.1" departLane="0" departPos="20.52578571145616" departSpeed="0.0" id="317" type="passenger">
		<route edges="101 13"/>
	</vehicle>
	<vehicle depart="0.1" departLane="0" departPos="2.5" departSpeed="0.0" id="318" type="passenger">
		<route edges="104 99"/>
	</vehicle>
	<vehicle depart="0.1" departLane="0" departPos="2.5" departSpeed="0.0" id="320" type="passenger">
		<route edges="153 61"/>
	</vehicle>
	<vehicle depart="0.1" departLane="0" departPos="13.42743364338688" departSpeed="0.0" id="321" type="passenger">
		<route edges="101 19"/>
	</vehicle>
	<vehicle depart="0.1" departLane="0" departPos="6.5890174654340345" departSpeed="0.0" id="326" type="passenger">
		<route edges="101 19"/>
	</vehicle>
	<vehicle depart="0.1" departLane="0" departPos="9.40015494366262" departSpeed="0.084601491" id="328" type="passenger">
		<route edges=":38_1 16"/>
	</vehicle>
	<vehicle depart="0.1" departLane="0" departPos="51.14182564351706" departSpeed="0.0" id="329" type="passenger">
		<route edges="18 13"/>
	</vehicle>
	<vehicle depart="0.1" departLane="0" departPos="43.654174740216" departSpeed="0.00010059023" id="330" type="passenger">
		<route edges="18 13"/>
	</vehicle>
	<vehicle depart="0.1" departLane="0" departPos="18.118076702459348" departSpeed="0.00020612446" id="331" type="passenger">
		<route edges="22 153"/>
	</vehicle>
	<vehicle depart="0.1" departLane="0" departPos="23.16429772051327" departSpeed="0.60499223" id="332" type="passenger">
		<route edges="102 84"/>
	</vehicle>
	<vehicle depart="0.1" departLane="0" departPos="13.942777806888852" departSpeed="0.0" id="333" type="passenger">
		<route edges="95 104"/>
	</vehicle>
	<vehicle depart="0.1" departLane="0" departPos="36.28436226021113" departSpeed="0.00067878955" id="334" type="passenger">
		<route edges="18 13"/>
	</vehicle>
	<vehicle depart="0.1" departLane="0" departPos="28.99545485357458" departSpeed="0.003436157" id="337" type="passenger">
		<route edges="18 13"/>
	</vehicle>
	<vehicle depart="0.1" departLane="0" departPos="7.242413603837842" departSpeed="0.0" id="338" type="passenger">
		<route edges="95 104"/>
	</vehicle>
	<vehicle depart="0.1" departLane="0" departPos="12.289678038755625" departSpeed="0.42005381" id="339" type="passenger">
		<route edges="102 16"/>
	</vehicle>
	<vehicle depart="0.1" departLane="0" departPos="30.695956744413852" departSpeed="14.521655" id="340" type="passenger">
		<route edges="19"/>
	</vehicle>
	<vehicle depart="0.1" departLane="0" departPos="5.935209363416444" departSpeed="0.0031839313" id="343" type="passenger">
		<route edges="22 153"/>
	</vehicle>
	<vehicle depart="0.1" departLane="0" departPos="7.434628410840043" departSpeed="0.039624693" id="345" type="passenger">
		<route edges="18 13"/>
	</vehicle>
	<vehicle depart="0.1" departLane="0" departPos="43.56313917595462" departSpeed="11.690868" id="346" type="passenger">
		<route edges="14 102 16"/>
	</vehicle>
	<vehicle depart="0.1" departLane="0" departPos="24.757321395519984" departSpeed="8.4917576" id="347" type="passenger">
		<route edges="14 98"/>
	</vehicle>
	<vehicle depart="0.1" departLane="0" departPos="11.728339357707855" departSpeed="5.1770036" id="348" type="passenger">
		<route edges="14 98"/>
	</vehicle>
	<vehicle depart="0.1" departLane="0" departPos="3.5820683845017913" departSpeed="0.0" id="33" type="motorcycle">
		<route edges="16 104"/>
	</vehicle>
	<vehicle depart="0.1" departLane="0" departPos="55.7462238508607" departSpeed="0.0" id="324" type="motorcycle">
		<route edges="18 13"/>
	</vehicle>
	<vehicle depart="0.1" departLane="0" departPos="22.491851611660834" departSpeed="3.3041258e-05" id="327" type="motorcycle">
		<route edges="22 153"/>
	</vehicle>
	<vehicle depart="0.1" departLane="0" departPos="10.919388907494168" departSpeed="0.0008936501" id="336" type="motorcycle">
		<route edges="22 153"/>
	</vehicle>
	<vehicle depart="0.1" departLane="0" departPos="3.75" departSpeed="0.0" id="310" type="truck">
		<route edges="61 105"/>
	</vehicle>
	<vehicle depart="0.1" departLane="0" departPos="31.902667657164322" departSpeed="0.0" id="322" type="truck">
		<route edges="22 153"/>
	</vehicle>
</routes>
