<routes>
	<vehicle depart="0.1" departLane="0" departPos="19.0" departSpeed="5.0" id="1" type="bicycle">
		<route edges="8 7 6"/>
	</vehicle>
	<vehicle depart="0.1" departLane="0" departPos="5.0" departSpeed="0.0" id="2" type="passenger">
		<route edges="7"/>
	</vehicle>
	<vehicle depart="0.1" departLane="0" departPos="20.0" departSpeed="0.0" id="3" type="passenger">
		<route edges="7"/>
	</vehicle>
	<vehicle depart="0.1" departLane="0" departPos="10.0" departSpeed="4.0" id="4" type="passenger">
		<route edges="8"/>
	</vehicle>
	<vehicle depart="0.1" departLane="0" departPos="10.0" departSpeed="5.0" id="5" type="passenger">
		<route edges="9"/>
	</vehicle>
</routes>
