<routes>
	<vehicle depart="0.1" departLane="0" departPos="2.5" departSpeed="8.7584261e-10" id="32" type="passenger">
		<route edges=":61_0 45087"/>
	</vehicle>
	<vehicle depart="0.1" departLane="0" departPos="2.5" departSpeed="1.7283584" id="34" type="passenger">
		<route edges="45084 45087"/>
	</vehicle>
	<vehicle depart="0.1" departLane="0" departPos="5.122720934792467" departSpeed="13.808235" id="313" type="passenger">
		<route edges="45083 45080"/>
	</vehicle>
	<vehicle depart="0.1" departLane="0" departPos="33.438484496390366" departSpeed="0.88015799" id="329" type="passenger">
		<route edges=":66_0 45084"/>
	</vehicle>
	<vehicle depart="0.1" departLane="0" departPos="11.725033282417773" departSpeed="0.98652287" id="330" type="passenger">
		<route edges=":66_0 45084"/>
	</vehicle>
	<vehicle depart="0.1" departLane="0" departPos="2.5" departSpeed="1.4024523" id="335" type="passenger">
		<route edges=":66_0 45084"/>
	</vehicle>
	<vehicle depart="0.1" departLane="0" departPos="20.824392074540707" departSpeed="0.030613775" id="344" type="passenger">
		<route edges="45081 44960"/>
	</vehicle>
	<vehicle depart="0.1" departLane="0" departPos="10.437330157403743" departSpeed="0.010700813" id="358" type="passenger">
		<route edges="45081 44960"/>
	</vehicle>
	<vehicle depart="0.1" departLane="0" departPos="12.649388655271641" departSpeed="0.94858243" id="30" type="truck">
		<route edges=":66_3 45084"/>
	</vehicle>
</routes>
