<routes>
	<vehicle depart="0.1" departLane="3" departPos="54.39446942767841" departSpeed="12.4846" id="257" type="passenger">
		<route edges="8"/>
	</vehicle>
	<vehicle depart="0.1" departLane="4" departPos="62.66670967957854" departSpeed="11.3965" id="272" type="passenger">
		<route edges="8"/>
	</vehicle>
	<vehicle depart="0.1" departLane="2" departPos="46.7285829853658" departSpeed="14.7676" id="277" type="passenger">
		<route edges="8"/>
	</vehicle>
	<vehicle depart="0.1" departLane="1" departPos="35.664975817253776" departSpeed="16.7549" id="278" type="passenger">
		<route edges="8"/>
	</vehicle>
	<vehicle depart="0.1" departLane="0" departPos="27.807386350903606" departSpeed="19.3213" id="279" type="passenger">
		<route edges="8"/>
	</vehicle>
	<vehicle depart="0.1" departLane="5" departPos="55.80981532910607" departSpeed="8.824" id="280" type="passenger">
		<route edges="8"/>
	</vehicle>
	<vehicle depart="0.1" departLane="4" departPos="46.92305526381353" departSpeed="10.7838" id="281" type="passenger">
		<route edges="8"/>
	</vehicle>
	<vehicle depart="0.1" departLane="5" departPos="44.16478039614552" departSpeed="9.1135" id="282" type="passenger">
		<route edges="8"/>
	</vehicle>
	<vehicle depart="0.1" departLane="0" departPos="8.400269367648539" departSpeed="15.2918" id="284" type="passenger">
		<route edges="8 8"/>
	</vehicle>
	<vehicle depart="0.1" departLane="2" departPos="21.22023320751223" departSpeed="14.0086" id="285" type="passenger">
		<route edges="8"/>
	</vehicle>
	<vehicle depart="0.1" departLane="2" departPos="2.442965835864447" departSpeed="15.1729" id="289" type="passenger">
		<route edges="8"/>
	</vehicle>
	<vehicle depart="0.1" departLane="0" departPos="89.91158443284735" departSpeed="16.38" id="290" type="passenger">
		<route edges="12 8"/>
	</vehicle>
	<vehicle depart="0.1" departLane="4" departPos="22.387971964647306" departSpeed="12.2011" id="292" type="passenger">
		<route edges="8"/>
	</vehicle>
	<vehicle depart="0.1" departLane="3" departPos="3.4828780473081924" departSpeed="12.1493" id="295" type="passenger">
		<route edges="8"/>
	</vehicle>
	<vehicle depart="0.1" departLane="0" departPos="81.2367427855905" departSpeed="16.322" id="296" type="passenger">
		<route edges="9 8 8"/>
	</vehicle>
	<vehicle depart="0.1" departLane="4" departPos="6.230629539150693" departSpeed="12.4602" id="297" type="passenger">
		<route edges="8"/>
	</vehicle>
	<vehicle depart="0.1" departLane="5" departPos="17.9342851559443" departSpeed="11.238" id="298" type="passenger">
		<route edges="8"/>
	</vehicle>
	<vehicle depart="0.1" departLane="1" departPos="58.45316425694318" departSpeed="14.6182" id="300" type="passenger">
		<route edges="12 8"/>
	</vehicle>
	<vehicle depart="0.1" departLane="2" departPos="87.37614404968579" departSpeed="12.1341" id="301" type="passenger">
		<route edges="12 8"/>
	</vehicle>
	<vehicle depart="0.1" departLane="5" departPos="0" departSpeed="12.1768" id="302" type="passenger">
		<route edges="8"/>
	</vehicle>
	<vehicle depart="0.1" departLane="3" departPos="72.75533156280206" departSpeed="13.716" id="304" type="passenger">
		<route edges="12 8"/>
	</vehicle>
	<vehicle depart="0.1" departLane="2" departPos="74.52289398251808" departSpeed="10.665" id="305" type="passenger">
		<route edges="12 8"/>
	</vehicle>
	<vehicle depart="0.1" departLane="0" departPos="40.76294801661046" departSpeed="16.8646" id="306" type="passenger">
		<route edges="12 8"/>
	</vehicle>
	<vehicle depart="0.1" departLane="3" departPos="47.34380040232453" departSpeed="11.686" id="311" type="passenger">
		<route edges="12 8"/>
	</vehicle>
	<vehicle depart="0.1" departLane="2" departPos="53.75667879109343" departSpeed="11.5092" id="319" type="passenger">
		<route edges="12 8"/>
	</vehicle>
	<vehicle depart="0.1" departLane="0" departPos="0" departSpeed="12.189" id="320" type="passenger">
		<route edges="12 8"/>
	</vehicle>
	<vehicle depart="0.1" departLane="1" departPos="0" departSpeed="11.9756" id="321" type="passenger">
		<route edges="12 8"/>
	</vehicle>
	<vehicle depart="0.1" departLane="4" departPos="70.82635531523604" departSpeed="12.1829" id="322" type="passenger">
		<route edges="12 8"/>
	</vehicle>
	<vehicle depart="0.1" departLane="2" departPos="0" departSpeed="7.6322" id="328" type="passenger">
		<route edges="12 8"/>
	</vehicle>
	<vehicle depart="0.1" departLane="3" departPos="13.76223195486767" departSpeed="9.0769" id="329" type="passenger">
		<route edges="12 8"/>
	</vehicle>
	<vehicle depart="0.1" departLane="3" departPos="4.489231430062474" departSpeed="7.7206" id="331" type="passenger">
		<route edges="12 8"/>
	</vehicle>
	<vehicle depart="0.1" departLane="4" departPos="38.68029666942623" departSpeed="12.195" id="363" type="passenger">
		<route edges="12 8"/>
	</vehicle>
	<vehicle depart="0.1" departLane="3" departPos="0" departSpeed="11.7348" id="376" type="passenger">
		<route edges="12 12 8"/>
	</vehicle>
	<vehicle depart="0.1" departLane="4" departPos="14.380698287156111" departSpeed="12.3414" id="396" type="passenger">
		<route edges="12 8"/>
	</vehicle>
</routes>
