<routes>
	<vehicle depart="0.1" departLane="0" departPos="11.320022668996092" departSpeed="1.1423925" id="311" type="passenger">
		<route edges=":80_3 46631"/>
	</vehicle>
	<vehicle depart="0.1" departLane="0" departPos="16.26193812137944" departSpeed="0.54910798" id="312" type="passenger">
		<route edges=":80_7 46631"/>
	</vehicle>
	<vehicle depart="0.1" departLane="0" departPos="12.640377932540764" departSpeed="2.5827497" id="320" type="passenger">
		<route edges="46799 46802 46551 48138"/>
	</vehicle>
	<vehicle depart="0.1" departLane="0" departPos="19.185071588928093" departSpeed="0.75828376" id="33" type="motorcycle">
		<route edges="46802 46551"/>
	</vehicle>
</routes>
