<routes>
	<vehicle depart="0.1" departLane="1" departPos="90.58021509294238" departSpeed="11.224337" id="1" type="passenger">
		<route edges="26 28 24"/>
	</vehicle>
	<vehicle depart="0.1" departLane="0" departPos="0" departSpeed="11.224337" id="2" type="passenger">
		<route edges="26 26 28 24"/>
	</vehicle>
	<vehicle depart="0.1" departLane="0" departPos="0" departSpeed="17.224337" id="3" type="passenger">
		<route edges="26 27 24"/>
	</vehicle>
</routes>
