<routes>
	<vehicle depart="0.1" departLane="0" departPos="28.110691455298657" departSpeed="2.6488829" id="326" type="bicycle">
		<route edges="46 504 507"/>
	</vehicle>
	<vehicle depart="0.1" departLane="0" departPos="15.262960610516329" departSpeed="0.0" id="39" type="passenger">
		<route edges="506 498"/>
	</vehicle>
	<vehicle depart="0.1" departLane="0" departPos="8.416937720295362" departSpeed="0.0" id="312" type="passenger">
		<route edges="506 498"/>
	</vehicle>
	<vehicle depart="0.1" departLane="0" departPos="41.37655200660136" departSpeed="0.0" id="313" type="passenger">
		<route edges="497 503"/>
	</vehicle>
	<vehicle depart="0.1" departLane="0" departPos="2.5" departSpeed="14.328241" id="316" type="passenger">
		<route edges="507"/>
	</vehicle>
	<vehicle depart="0.1" departLane="0" departPos="35.08044591368737" departSpeed="1.1188085e-05" id="318" type="passenger">
		<route edges="497 503"/>
	</vehicle>
	<vehicle depart="0.1" departLane="0" departPos="53.154414815583756" departSpeed="15.598621" id="319" type="passenger">
		<route edges="504 507"/>
	</vehicle>
	<vehicle depart="0.1" departLane="0" departPos="19.153978745144354" departSpeed="0.0052821283" id="321" type="passenger">
		<route edges="497 503"/>
	</vehicle>
	<vehicle depart="0.1" departLane="0" departPos="29.71531268861884" departSpeed="13.118403" id="324" type="passenger">
		<route edges="504 507"/>
	</vehicle>
	<vehicle depart="0.1" departLane="0" departPos="12.289293866450583" departSpeed="0.042181372" id="325" type="passenger">
		<route edges="497 503"/>
	</vehicle>
	<vehicle depart="0.1" departLane="0" departPos="9.47092627818432" departSpeed="5.5876615" id="328" type="passenger">
		<route edges=":21_5 47"/>
	</vehicle>
	<vehicle depart="0.1" departLane="0" departPos="7.213000957413759" departSpeed="0.010095083" id="329" type="passenger">
		<route edges="44 47"/>
	</vehicle>
	<vehicle depart="0.1" departLane="0" departPos="12.557579804088773" departSpeed="13.447985" id="330" type="passenger">
		<route edges="46 504 507"/>
	</vehicle>
	<vehicle depart="0.1" departLane="0" departPos="18.763194405011006" departSpeed="11.331435" id="311" type="motorcycle">
		<route edges="498"/>
	</vehicle>
	<vehicle depart="0.1" departLane="0" departPos="11.394596533052583" departSpeed="10.477034" id="322" type="motorcycle">
		<route edges="504 507"/>
	</vehicle>
	<vehicle depart="0.1" departLane="0" departPos="5.042001834438634" departSpeed="0.15247267" id="327" type="motorcycle">
		<route edges="497 503"/>
	</vehicle>
	<vehicle depart="0.1" departLane="0" departPos="24.78102118708515" departSpeed="0.0" id="37" type="truck">
		<route edges="506 498"/>
	</vehicle>
	<vehicle depart="0.1" departLane="0" departPos="28.487648494085573" departSpeed="0.00056076191" id="320" type="truck">
		<route edges="497 503"/>
	</vehicle>
</routes>
