<routes>
	<vehicle depart="0.1" departLane="0" departPos="39.90622676539168" departSpeed="7.1888615" id="349" type="bus">
		<route edges="276 220"/>
	</vehicle>
	<vehicle depart="0.1" departLane="0" departPos="19.500220867884973" departSpeed="4.356499" id="352" type="bus">
		<route edges="276 273 270"/>
	</vehicle>
	<vehicle depart="0.1" departLane="0" departPos="55.7717107188897" departSpeed="0.0024476725" id="32" type="passenger">
		<route edges="216 274"/>
	</vehicle>
	<vehicle depart="0.1" departLane="0" departPos="48.94517297525031" departSpeed="1.8564215e-05" id="36" type="passenger">
		<route edges="216 274"/>
	</vehicle>
	<vehicle depart="0.1" departLane="0" departPos="10.18509859019074" departSpeed="5.9629155" id="39" type="passenger">
		<route edges=":29_4 273 270 267"/>
	</vehicle>
	<vehicle depart="0.1" departLane="0" departPos="62.5790414230722" departSpeed="0.0725512" id="312" type="passenger">
		<route edges="216 274 277"/>
	</vehicle>
	<vehicle depart="0.1" departLane="0" departPos="41.86278688636344" departSpeed="0.00015314088" id="317" type="passenger">
		<route edges="216 274"/>
	</vehicle>
	<vehicle depart="0.1" departLane="0" departPos="57.39365128147011" departSpeed="3.1684143" id="321" type="passenger">
		<route edges="219 273 270"/>
	</vehicle>
	<vehicle depart="0.1" departLane="0" departPos="34.90562502516343" departSpeed="0.00077266775" id="322" type="passenger">
		<route edges="216 274"/>
	</vehicle>
	<vehicle depart="0.1" departLane="0" departPos="47.87915146912194" departSpeed="2.2061434" id="324" type="passenger">
		<route edges="219 273 270"/>
	</vehicle>
	<vehicle depart="0.1" departLane="0" departPos="39.55238504654531" departSpeed="1.3062116" id="326" type="passenger">
		<route edges="219 277"/>
	</vehicle>
	<vehicle depart="0.1" departLane="0" departPos="56.700981524277495" departSpeed="25.951713" id="327" type="passenger">
		<route edges="270 267"/>
	</vehicle>
	<vehicle depart="0.1" departLane="0" departPos="5.74594615726442" departSpeed="25.876651" id="333" type="passenger">
		<route edges="270 267"/>
	</vehicle>
	<vehicle depart="0.1" departLane="0" departPos="27.467726307800056" departSpeed="0.21578184" id="334" type="passenger">
		<route edges="219 277"/>
	</vehicle>
	<vehicle depart="0.1" departLane="0" departPos="18.82967837978859" departSpeed="0.011514201" id="336" type="passenger">
		<route edges="216 274"/>
	</vehicle>
	<vehicle depart="0.1" departLane="0" departPos="63.443400640232305" departSpeed="21.154555" id="338" type="passenger">
		<route edges="273 270 267"/>
	</vehicle>
	<vehicle depart="0.1" departLane="0" departPos="20.40707999938502" departSpeed="0.11049023" id="340" type="passenger">
		<route edges="219 277"/>
	</vehicle>
	<vehicle depart="0.1" departLane="0" departPos="11.776598197498373" departSpeed="0.033430057" id="342" type="passenger">
		<route edges="216 274"/>
	</vehicle>
	<vehicle depart="0.1" departLane="0" departPos="66.62225748488389" departSpeed="6.4570822" id="345" type="passenger">
		<route edges="276 273 270"/>
	</vehicle>
	<vehicle depart="0.1" departLane="0" departPos="13.153040938268528" departSpeed="0.14201756" id="346" type="passenger">
		<route edges="219 277"/>
	</vehicle>
	<vehicle depart="0.1" departLane="0" departPos="5.670140427950464" departSpeed="0.21627557" id="351" type="passenger">
		<route edges="219 277"/>
	</vehicle>
	<vehicle depart="0.1" departLane="0" departPos="32.078072885801475" departSpeed="0.60170497" id="331" type="motorcycle">
		<route edges="219 277"/>
	</vehicle>
	<vehicle depart="0.1" departLane="0" departPos="8.992850063949497" departSpeed="4.6029685" id="341" type="motorcycle">
		<route edges=":29_0 220"/>
	</vehicle>
	<vehicle depart="0.1" departLane="0" departPos="28.024020705919654" departSpeed="0.0032942049" id="329" type="truck">
		<route edges="216 274"/>
	</vehicle>
</routes>
