<routes>
	<vehicle depart="0.1" departLane="0" departPos="18.923063427197715" departSpeed="4.0484084" id="311" type="bicycle">
		<route edges=":49_0 39332"/>
	</vehicle>
	<vehicle depart="0.1" departLane="0" departPos="26.24689453528131" departSpeed="4.1190322" id="346" type="bus">
		<route edges="39442 39331"/>
	</vehicle>
	<vehicle depart="0.1" departLane="0" departPos="22.28999943730954" departSpeed="0.91278096" id="32" type="passenger">
		<route edges=":51_2 39331"/>
	</vehicle>
	<vehicle depart="0.1" departLane="0" departPos="21.269237211113" departSpeed="6.5683943" id="33" type="passenger">
		<route edges=":51_5 39331 39328"/>
	</vehicle>
	<vehicle depart="0.1" departLane="0" departPos="31.423359248336833" departSpeed="0.0" id="34" type="passenger">
		<route edges=":49_0 39332"/>
	</vehicle>
	<vehicle depart="0.1" departLane="0" departPos="7.08971472593007" departSpeed="4.4266124" id="317" type="passenger">
		<route edges=":49_3 39332"/>
	</vehicle>
	<vehicle depart="0.1" departLane="0" departPos="33.682537911165824" departSpeed="3.3500834" id="326" type="passenger">
		<route edges="39329 39322"/>
	</vehicle>
	<vehicle depart="0.1" departLane="0" departPos="24.1820643979149" departSpeed="2.169096" id="336" type="passenger">
		<route edges="39329 39332"/>
	</vehicle>
	<vehicle depart="0.1" departLane="0" departPos="16.255937293704065" departSpeed="1.2979848" id="340" type="passenger">
		<route edges="39329 39332"/>
	</vehicle>
	<vehicle depart="0.1" departLane="0" departPos="2.5" departSpeed="0.47680514" id="375" type="passenger">
		<route edges="39442 39331"/>
	</vehicle>
</routes>
