<!-- generated on 2020-12-18 15:37:55.015938 by ipykernel_launcher.py v1_2_0+5214-53edc58fcd
-->
<tlLogics/>
