<routes>
	<vehicle depart="0.1" departLane="0" departPos="10.705865595634567" departSpeed="0.1435819" id="342" type="bus">
		<route edges="130902 125233"/>
	</vehicle>
	<vehicle depart="0.1" departLane="0" departPos="48.1179843609965" departSpeed="3.526133" id="33" type="passenger">
		<route edges="126113 130898"/>
	</vehicle>
	<vehicle depart="0.1" departLane="0" departPos="12.778102660453893" departSpeed="8.7785872" id="39" type="passenger">
		<route edges="126113 130898"/>
	</vehicle>
	<vehicle depart="0.1" departLane="0" departPos="6.300123816377543" departSpeed="7.8444842" id="310" type="passenger">
		<route edges="126113 130898"/>
	</vehicle>
	<vehicle depart="0.1" departLane="0" departPos="28.128121316937428" departSpeed="2.7323507" id="312" type="passenger">
		<route edges="126113 130898"/>
	</vehicle>
	<vehicle depart="0.1" departLane="0" departPos="20.486024525741836" departSpeed="1.8926042" id="317" type="passenger">
		<route edges=":51_0 130221"/>
	</vehicle>
	<vehicle depart="0.1" departLane="1" departPos="13.97756228320165" departSpeed="13.835765" id="344" type="passenger">
		<route edges="130902 125233 130221 125969 127800"/>
	</vehicle>
	<vehicle depart="0.1" departLane="0" departPos="6.443455151245188" departSpeed="0.18775435" id="318" type="truck">
		<route edges="125115 126472 125324"/>
	</vehicle>
</routes>
