<!-- generated on Tue Feb  9 22:12:57 2021 by Eclipse SUMO netconvert Version 1.8.0
<configuration xmlns:xsi="http://www.w3.org/2001/XMLSchema-instance" xsi:noNamespaceSchemaLocation="http://sumo.dlr.de/xsd/netconvertConfiguration.xsd">

    <input>
        <node-files value="./converted_scenarios/scenario-factory/ESP_SantBoideLlobregat-23_2_I-1-1/ESP_SantBoideLlobregat-23_2_I-1-1.nod.xml"/>
        <edge-files value="./converted_scenarios/scenario-factory/ESP_SantBoideLlobregat-23_2_I-1-1/ESP_SantBoideLlobregat-23_2_I-1-1.edg.xml"/>
        <connection-files value="./converted_scenarios/scenario-factory/ESP_SantBoideLlobregat-23_2_I-1-1/ESP_SantBoideLlobregat-23_2_I-1-1.con.xml"/>
        <tllogic-files value="./converted_scenarios/scenario-factory/ESP_SantBoideLlobregat-23_2_I-1-1/ESP_SantBoideLlobregat-23_2_I-1-1.tll.xml"/>
        <type-files value="/home/zen/commonroad-interactive-benchmarks/install/commonroad-map-tool/crmapconverter/sumo_map/templates/DEU.typ.xml"/>
    </input>

    <output>
        <output-file value="./converted_scenarios/scenario-factory/ESP_SantBoideLlobregat-23_2_I-1-1/ESP_SantBoideLlobregat-23_2_I-1-1.net.xml"/>
    </output>

    <processing>
        <geometry.remove.keep-edges.explicit value="true"/>
        <geometry.avoid-overlap value="true"/>
        <offset.disable-normalization value="true"/>
    </processing>

    <junctions>
        <no-turnarounds value="true"/>
        <junctions.internal-link-detail value="20"/>
    </junctions>

    <report>
        <aggregate-warnings value="5"/>
    </report>

    <random_number>
        <seed value="1234"/>
    </random_number>

</configuration>
--><net xmlns:xsi="http://www.w3.org/2001/XMLSchema-instance" version="1.6" junctionCornerDetail="5" junctionLinkDetail="20" limitTurnSpeed="5.50" xsi:noNamespaceSchemaLocation="http://sumo.dlr.de/xsd/net_file.xsd">

    <location netOffset="0.00,0.00" convBoundary="-658.36,-464.62,-431.05,-275.02" origBoundary="-658.36,-464.62,-431.05,-272.36" projParameter="!"/>

    <type id="highway.bridleway" priority="1" speed="2.78" allow="pedestrian" oneway="1" width="2.00"/>
    <type id="highway.bus_guideway" priority="1" speed="27.78" allow="bus" oneway="1"/>
    <type id="highway.cycleway" priority="1" speed="8.33" allow="bicycle" oneway="0" width="1.00"/>
    <type id="highway.footway" priority="1" speed="2.78" allow="pedestrian" oneway="1" width="2.00"/>
    <type id="highway.ford" priority="1" speed="2.78" allow="army" oneway="0"/>
    <type id="highway.living_street" priority="2" speed="2.78" disallow="tram rail_urban rail rail_electric rail_fast ship" oneway="0"/>
    <type id="highway.motorway" priority="14" speed="39.44" allow="private emergency authority army vip passenger hov taxi bus coach delivery truck trailer motorcycle evehicle custom1 custom2" oneway="1"/>
    <type id="highway.motorway_link" priority="9" speed="22.22" allow="private emergency authority army vip passenger hov taxi bus coach delivery truck trailer motorcycle evehicle custom1 custom2" oneway="1"/>
    <type id="highway.path" priority="1" speed="2.78" allow="pedestrian bicycle" oneway="0" width="2.00"/>
    <type id="highway.pedestrian" priority="1" speed="2.78" allow="pedestrian" oneway="1" width="2.00"/>
    <type id="highway.primary" priority="12" speed="27.78" disallow="pedestrian tram rail_urban rail rail_electric rail_fast ship" oneway="0"/>
    <type id="highway.primary_link" priority="7" speed="22.22" disallow="pedestrian tram rail_urban rail rail_electric rail_fast ship" oneway="0"/>
    <type id="highway.raceway" priority="15" speed="83.33" allow="vip" oneway="0"/>
    <type id="highway.residential" priority="3" speed="13.89" disallow="pedestrian tram rail_urban rail rail_electric rail_fast ship" oneway="0"/>
    <type id="highway.secondary" priority="11" speed="27.78" disallow="pedestrian tram rail_urban rail rail_electric rail_fast ship" oneway="0"/>
    <type id="highway.secondary_link" priority="6" speed="22.22" disallow="pedestrian tram rail_urban rail rail_electric rail_fast ship" oneway="0"/>
    <type id="highway.service" priority="1" speed="5.56" allow="pedestrian delivery bicycle" oneway="0"/>
    <type id="highway.stairs" priority="1" speed="1.39" allow="pedestrian" oneway="1" width="2.00"/>
    <type id="highway.step" priority="1" speed="1.39" allow="pedestrian" oneway="1" width="2.00"/>
    <type id="highway.steps" priority="1" speed="1.39" allow="pedestrian" oneway="1" width="2.00"/>
    <type id="highway.tertiary" priority="10" speed="22.22" disallow="pedestrian tram rail_urban rail rail_electric rail_fast ship" oneway="0"/>
    <type id="highway.tertiary_link" priority="5" speed="22.22" disallow="pedestrian tram rail_urban rail rail_electric rail_fast ship" oneway="0"/>
    <type id="highway.track" priority="1" speed="5.56" allow="pedestrian motorcycle moped bicycle" oneway="0"/>
    <type id="highway.trunk" priority="13" speed="27.78" disallow="pedestrian bicycle tram rail_urban rail rail_electric rail_fast ship" oneway="0"/>
    <type id="highway.trunk_link" priority="8" speed="22.22" disallow="pedestrian bicycle tram rail_urban rail rail_electric rail_fast ship" oneway="0"/>
    <type id="highway.unclassified" priority="4" speed="13.89" disallow="pedestrian tram rail_urban rail rail_electric rail_fast ship" oneway="0"/>
    <type id="highway.unsurfaced" priority="1" speed="8.33" disallow="tram rail_urban rail rail_electric rail_fast ship" oneway="0"/>
    <type id="railway.highspeed" priority="21" speed="69.44" allow="rail_fast" oneway="1"/>
    <type id="railway.light_rail" priority="19" speed="27.78" allow="rail_urban" oneway="1"/>
    <type id="railway.preserved" priority="16" speed="27.78" allow="rail" oneway="1"/>
    <type id="railway.rail" priority="20" speed="44.44" allow="rail" oneway="1"/>
    <type id="railway.subway" priority="18" speed="27.78" allow="rail_urban" oneway="1"/>
    <type id="railway.tram" priority="17" speed="13.89" allow="tram" oneway="1"/>

    <edge id=":28_0" function="internal">
        <lane id=":28_0_0" index="0" disallow="pedestrian tram rail_urban rail rail_electric rail_fast ship" speed="36.11" length="3.01" width="3.50" shape="-584.97,-306.21 -582.20,-305.04"/>
        <lane id=":28_0_1" index="1" disallow="pedestrian tram rail_urban rail rail_electric rail_fast ship" speed="36.11" length="3.01" width="3.50" shape="-586.33,-302.98 -583.56,-301.81"/>
    </edge>
    <edge id=":35_0" function="internal">
        <lane id=":35_0_0" index="0" disallow="pedestrian tram rail_urban rail rail_electric rail_fast ship" speed="36.11" length="2.23" width="3.50" shape="-621.38,-323.78 -619.19,-323.37"/>
        <lane id=":35_0_1" index="1" disallow="pedestrian tram rail_urban rail rail_electric rail_fast ship" speed="36.11" length="2.27" width="3.50" shape="-622.02,-320.34 -619.79,-319.92"/>
    </edge>
    <edge id=":46_0" function="internal">
        <lane id=":46_0_0" index="0" disallow="pedestrian tram rail_urban rail rail_electric rail_fast ship" speed="28.35" length="8.08" width="3.50" shape="-515.34,-386.51 -515.92,-386.69 -516.44,-386.85 -516.91,-387.01 -517.33,-387.16 -517.72,-387.30 -518.08,-387.43 -518.42,-387.55 -518.74,-387.66 -519.05,-387.76 -519.36,-387.85 -519.67,-387.92 -520.00,-387.99 -520.34,-388.05 -520.71,-388.10 -521.11,-388.13 -521.56,-388.15 -522.04,-388.16 -522.58,-388.16 -523.18,-388.15"/>
    </edge>
    <edge id=":46_1" function="internal">
        <lane id=":46_1_0" index="0" disallow="pedestrian tram rail_urban rail rail_electric rail_fast ship" speed="36.11" length="33.99" width="3.50" shape="-515.34,-386.51 -534.11,-391.79 -548.13,-395.45"/>
    </edge>
    <edge id=":46_2" function="internal">
        <lane id=":46_2_0" index="0" disallow="pedestrian tram rail_urban rail rail_electric rail_fast ship" speed="11.73" length="31.45" width="3.50" shape="-515.34,-386.51 -520.46,-388.11 -521.72,-388.76 -522.89,-389.61 -523.93,-390.63 -524.79,-391.78 -525.46,-393.02 -525.96,-394.30 -526.32,-395.60 -526.56,-396.93 -526.75,-399.46 -526.66,-401.98 -526.38,-404.45 -525.71,-408.04 -524.81,-411.58"/>
    </edge>
    <edge id=":46_3" function="internal">
        <lane id=":46_3_0" index="0" disallow="pedestrian tram rail_urban rail rail_electric rail_fast ship" speed="10.64" length="25.95" width="3.50" shape="-521.45,-410.61 -522.23,-407.57 -522.84,-404.48 -523.12,-402.41 -523.25,-400.32 -523.19,-398.22 -523.06,-397.18 -522.85,-396.16 -522.55,-395.15 -522.12,-394.20 -521.56,-393.31 -520.87,-392.53 -520.06,-391.87 -519.14,-391.36 -514.36,-389.87"/>
    </edge>
    <edge id=":46_4" function="internal">
        <lane id=":46_4_0" index="0" disallow="pedestrian tram rail_urban rail rail_electric rail_fast ship" speed="36.11" length="25.46" width="3.50" shape="-521.45,-410.61 -528.62,-386.18"/>
    </edge>
    <edge id=":46_5" function="internal">
        <lane id=":46_5_0" index="0" disallow="pedestrian tram rail_urban rail rail_electric rail_fast ship" speed="12.46" length="35.01" width="3.50" shape="-521.45,-410.61 -522.69,-406.93 -523.76,-404.56 -525.06,-402.32 -526.61,-400.24 -528.43,-398.39 -529.44,-397.58 -530.51,-396.86 -531.64,-396.22 -532.82,-395.68 -535.29,-394.88 -537.85,-394.45 -540.44,-394.34 -543.03,-394.50 -546.86,-395.15 -548.13,-395.45"/>
    </edge>
    <edge id=":46_6" function="internal">
        <lane id=":46_6_0" index="0" disallow="pedestrian tram rail_urban rail rail_electric rail_fast ship" speed="11.48" length="29.54" width="3.50" shape="-547.26,-398.84 -546.18,-398.58 -542.80,-398.01 -540.60,-397.87 -538.41,-397.96 -536.29,-398.32 -534.24,-398.98 -533.31,-399.41 -532.40,-399.92 -531.53,-400.51 -530.73,-401.14 -529.21,-402.68 -527.91,-404.41 -526.82,-406.32 -525.91,-408.33 -524.81,-411.58"/>
    </edge>
    <edge id=":46_7" function="internal">
        <lane id=":46_7_0" index="0" disallow="pedestrian tram rail_urban rail rail_electric rail_fast ship" speed="8.41" length="34.10" width="3.50" shape="-547.26,-398.84 -533.19,-395.17 -514.36,-389.87"/>
    </edge>
    <edge id=":46_8" function="internal">
        <lane id=":46_8_0" index="0" disallow="pedestrian tram rail_urban rail rail_electric rail_fast ship" speed="18.21" length="24.03" width="3.50" shape="-547.26,-398.84 -546.46,-398.56 -545.62,-398.11 -544.73,-397.52 -543.80,-396.79 -542.85,-395.95 -541.88,-395.02 -540.89,-394.00 -539.90,-392.92 -538.91,-391.79 -537.93,-390.63 -536.98,-389.46 -536.05,-388.29 -535.15,-387.14 -534.30,-386.02 -533.49,-384.96 -532.75,-383.96 -532.07,-383.05 -531.46,-382.24 -530.94,-381.55"/>
    </edge>
    <edge id=":46_9" function="internal">
        <lane id=":46_9_0" index="0" disallow="pedestrian tram rail_urban rail rail_electric rail_fast ship" speed="10.41" length="25.75" width="3.50" shape="-534.51,-379.10 -533.05,-383.88 -532.93,-384.83 -532.97,-385.76 -533.18,-386.67 -533.55,-387.55 -534.07,-388.38 -534.72,-389.16 -535.48,-389.89 -536.32,-390.57 -537.22,-391.19 -539.23,-392.31 -541.34,-393.26 -544.68,-394.47 -548.13,-395.45"/>
    </edge>
    <edge id=":46_10" function="internal">
        <lane id=":46_10_0" index="0" disallow="pedestrian tram rail_urban rail rail_electric rail_fast ship" speed="36.11" length="33.90" width="3.50" shape="-534.51,-379.10 -530.56,-391.78 -524.81,-411.58"/>
    </edge>
    <edge id=":46_11" function="internal">
        <lane id=":46_11_0" index="0" disallow="pedestrian tram rail_urban rail rail_electric rail_fast ship" speed="10.87" length="27.45" width="3.50" shape="-534.51,-379.10 -532.81,-384.27 -532.22,-385.58 -531.51,-386.86 -530.63,-388.08 -529.57,-389.20 -528.33,-390.16 -526.93,-390.91 -525.44,-391.41 -523.92,-391.66 -522.42,-391.71 -520.95,-391.59 -519.54,-391.34 -514.36,-389.87"/>
    </edge>
    <edge id=":48_0" function="internal">
        <lane id=":48_0_0" index="0" disallow="pedestrian tram rail_urban rail rail_electric rail_fast ship" speed="8.31" length="6.88" width="3.50" shape="-500.31,-387.51 -497.48,-387.38 -493.84,-387.56 -493.44,-387.63"/>
    </edge>
    <edge id=":48_1" function="internal">
        <lane id=":48_1_0" index="0" disallow="pedestrian tram rail_urban rail rail_electric rail_fast ship" speed="36.11" length="12.78" width="3.50" shape="-503.06,-378.93 -500.44,-380.59 -492.26,-385.77"/>
    </edge>
    <edge id=":49_0" function="internal">
        <lane id=":49_0_0" index="0" disallow="pedestrian tram rail_urban rail rail_electric rail_fast ship" speed="9.35" length="7.39" width="3.50" shape="-546.02,-354.77 -544.67,-356.64 -542.29,-360.65 -542.10,-361.02"/>
    </edge>
    <edge id=":49_1" function="internal">
        <lane id=":49_1_0" index="0" disallow="pedestrian tram rail_urban rail rail_electric rail_fast ship" speed="36.11" length="9.51" width="3.50" shape="-544.99,-352.92 -541.56,-354.91 -536.84,-357.81"/>
    </edge>
    <edge id=":50_0" function="internal">
        <lane id=":50_0_0" index="0" disallow="pedestrian tram rail_urban rail rail_electric rail_fast ship" speed="8.94" length="17.89" width="3.50" shape="-568.50,-400.69 -571.95,-401.42 -574.84,-401.78 -577.75,-401.81 -580.07,-401.55 -582.33,-400.98 -583.94,-400.31 -585.45,-399.42 -585.75,-399.18"/>
    </edge>
    <edge id=":50_1" function="internal">
        <lane id=":50_1_0" index="0" disallow="pedestrian tram rail_urban rail rail_electric rail_fast ship" speed="36.11" length="38.89" width="3.50" shape="-568.50,-400.69 -596.21,-408.00 -606.08,-410.70"/>
    </edge>
    <edge id=":50_2" function="internal">
        <lane id=":50_2_0" index="0" disallow="pedestrian tram rail_urban rail rail_electric rail_fast ship" speed="12.12" length="34.28" width="3.50" shape="-568.50,-400.69 -572.30,-401.87 -574.73,-402.90 -577.03,-404.16 -579.17,-405.71 -580.14,-406.59 -581.05,-407.54 -581.87,-408.57 -582.59,-409.67 -583.21,-410.83 -583.73,-412.04 -584.14,-413.29 -584.45,-414.57 -584.77,-417.18 -584.75,-419.81 -584.46,-422.43 -583.60,-426.32"/>
    </edge>
    <edge id=":50_3" function="internal">
        <lane id=":50_3_0" index="0" disallow="pedestrian tram rail_urban rail rail_electric rail_fast ship" speed="11.11" length="28.63" width="3.50" shape="-580.23,-425.39 -580.97,-422.00 -581.22,-419.79 -581.24,-417.58 -580.97,-415.40 -580.72,-414.40 -580.39,-413.39 -579.98,-412.43 -579.48,-411.50 -578.90,-410.63 -578.24,-409.80 -577.51,-409.03 -576.74,-408.34 -574.95,-407.04 -573.01,-405.98 -570.95,-405.11 -567.63,-404.08"/>
    </edge>
    <edge id=":50_4" function="internal">
        <lane id=":50_4_0" index="0" disallow="pedestrian tram rail_urban rail rail_electric rail_fast ship" speed="36.11" length="26.82" width="3.50" shape="-580.23,-425.39 -582.72,-417.15 -588.53,-399.89"/>
    </edge>
    <edge id=":50_5" function="internal">
        <lane id=":50_5_0" index="0" disallow="pedestrian tram rail_urban rail rail_electric rail_fast ship" speed="12.17" length="34.12" width="3.50" shape="-580.23,-425.39 -581.48,-421.62 -582.55,-419.23 -583.87,-416.97 -585.46,-414.88 -586.36,-413.93 -587.34,-413.06 -588.38,-412.27 -589.49,-411.57 -590.66,-410.98 -591.87,-410.48 -593.13,-410.09 -595.70,-409.62 -598.32,-409.49 -600.93,-409.67 -603.52,-410.09 -606.08,-410.70"/>
    </edge>
    <edge id=":50_6" function="internal">
        <lane id=":50_6_0" index="0" disallow="pedestrian tram rail_urban rail rail_electric rail_fast ship" speed="11.17" length="28.54" width="3.50" shape="-605.15,-414.08 -602.92,-413.54 -600.70,-413.18 -598.48,-413.03 -596.30,-413.13 -594.16,-413.53 -593.18,-413.83 -592.20,-414.23 -591.27,-414.71 -590.38,-415.26 -589.54,-415.90 -588.76,-416.60 -588.04,-417.35 -586.71,-419.10 -585.60,-421.01 -584.69,-423.04 -583.60,-426.32"/>
    </edge>
    <edge id=":50_7" function="internal">
        <lane id=":50_7_0" index="0" disallow="pedestrian tram rail_urban rail rail_electric rail_fast ship" speed="36.11" length="38.83" width="3.50" shape="-605.15,-414.08 -595.30,-411.38 -567.63,-404.08"/>
    </edge>
    <edge id=":50_8" function="internal">
        <lane id=":50_8_0" index="0" disallow="pedestrian tram rail_urban rail rail_electric rail_fast ship" speed="9.72" length="21.02" width="3.50" shape="-605.15,-414.08 -601.85,-412.98 -599.22,-411.77 -597.24,-410.57 -595.43,-409.13 -593.84,-407.45 -592.53,-405.54 -591.55,-403.45 -590.90,-401.23 -590.79,-400.47"/>
    </edge>
    <edge id=":51_0" function="internal">
        <lane id=":51_0_0" index="0" disallow="pedestrian tram rail_urban rail rail_electric rail_fast ship" speed="8.70" length="13.84" width="3.50" shape="-606.04,-326.60 -606.11,-324.01 -605.86,-320.82 -605.42,-318.74 -604.87,-317.23 -604.08,-315.85 -602.99,-314.68 -602.05,-314.05"/>
    </edge>
    <edge id=":51_1" function="internal">
        <lane id=":51_1_0" index="0" disallow="pedestrian tram rail_urban rail rail_electric rail_fast ship" speed="9.04" length="17.31" width="3.50" shape="-608.90,-327.33 -610.28,-324.54 -612.00,-321.75 -613.70,-319.62 -615.30,-318.14 -616.67,-317.25 -618.20,-316.66 -619.82,-316.47 -620.93,-316.57"/>
    </edge>
    <edge id=":51_2" function="internal">
        <lane id=":51_2_0" index="0" disallow="pedestrian tram rail_urban rail rail_electric rail_fast ship" speed="14.17" length="15.47" width="3.50" shape="-618.99,-323.33 -616.09,-322.97 -611.97,-322.79 -607.85,-323.00 -603.77,-323.57 -603.60,-323.61"/>
    </edge>
    <edge id=":51_3" function="internal">
        <lane id=":51_3_0" index="0" disallow="pedestrian tram rail_urban rail rail_electric rail_fast ship" speed="36.11" length="19.42" width="3.50" shape="-618.99,-323.33 -617.26,-322.86 -615.04,-322.02 -612.00,-320.45 -608.35,-318.08 -603.94,-315.14 -602.05,-314.06"/>
    </edge>
    <edge id=":51_4" function="internal">
        <lane id=":51_4_0" index="0" disallow="pedestrian tram rail_urban rail rail_electric rail_fast ship" speed="36.11" length="19.06" width="3.50" shape="-620.34,-320.03 -618.24,-319.51 -616.27,-318.77 -613.47,-317.31 -609.95,-314.99 -605.58,-312.05 -603.71,-310.98"/>
    </edge>
    <edge id=":51_5" function="internal">
        <lane id=":51_5_0" index="0" disallow="pedestrian tram rail_urban rail rail_electric rail_fast ship" speed="5.73" length="9.45" width="3.50" shape="-618.94,-306.57 -618.47,-307.17 -617.77,-308.44 -617.53,-309.12 -617.41,-309.84 -617.46,-310.56 -617.73,-311.22 -618.20,-311.78 -618.78,-312.21 -620.11,-312.78 -621.52,-313.12"/>
    </edge>
    <edge id=":51_6" function="internal">
        <lane id=":51_6_0" index="0" disallow="pedestrian tram rail_urban rail rail_electric rail_fast ship" speed="36.11" length="22.01" width="3.50" shape="-618.83,-306.47 -617.01,-308.38 -613.25,-311.78 -608.48,-315.56 -602.28,-319.95 -601.75,-320.28"/>
    </edge>
    <edge id=":51_7" function="internal">
        <lane id=":51_7_0" index="0" disallow="pedestrian tram rail_urban rail rail_electric rail_fast ship" speed="9.56" length="17.13" width="3.50" shape="-618.82,-306.46 -617.47,-307.87 -615.31,-309.65 -613.41,-310.84 -611.35,-311.72 -609.71,-312.11 -608.04,-312.20 -606.37,-311.99 -604.77,-311.48 -603.71,-310.98"/>
    </edge>
    <edge id=":52_0" function="internal">
        <lane id=":52_0_0" index="0" disallow="pedestrian tram rail_urban rail rail_electric rail_fast ship" speed="36.11" length="2.94" width="3.50" shape="-542.38,-288.39 -539.64,-287.32"/>
    </edge>
    <edge id=":52_1" function="internal">
        <lane id=":52_1_0" index="0" disallow="pedestrian tram rail_urban rail rail_electric rail_fast ship" speed="36.11" length="3.04" width="3.47" shape="-543.69,-285.14 -540.88,-283.99"/>
    </edge>

    <edge id="125115" from="37" to="51" priority="3" type="highway.residential" spreadType="center" length="6.67">
        <lane id="125115_0" index="0" disallow="pedestrian tram rail_urban rail rail_electric rail_fast ship" speed="36.11" length="6.67" width="3.50" customShape="1" shape="-623.26,-301.49 -619.97,-305.26 -619.88,-305.35 -618.87,-306.51"/>
    </edge>
    <edge id="125233" from="35" to="51" priority="3" type="highway.residential" spreadType="center" length="0.19" shape="-620.22,-321.78 -608.51,-325.64">
        <lane id="125233_0" index="0" disallow="pedestrian tram rail_urban rail rail_electric rail_fast ship" speed="36.11" length="0.20" width="3.50" customShape="1" shape="-619.19,-323.37 -618.99,-323.33"/>
        <lane id="125233_1" index="1" disallow="pedestrian tram rail_urban rail rail_electric rail_fast ship" speed="36.11" length="0.19" width="3.50" customShape="1" shape="-619.79,-319.92 -619.60,-319.88"/>
    </edge>
    <edge id="125301" from="25" to="46" priority="3" type="highway.residential" spreadType="center" length="1.28" shape="-514.11,-386.15 -531.30,-395.40">
        <lane id="125301_0" index="0" disallow="pedestrian tram rail_urban rail rail_electric rail_fast ship" speed="36.11" length="1.28" width="3.50" customShape="1" shape="-514.11,-386.15 -515.34,-386.51"/>
    </edge>
    <edge id="125302" from="46" to="48" priority="3" type="highway.residential" spreadType="center" length="21.82" shape="-529.51,-398.41 -506.27,-384.03">
        <lane id="125302_0" index="0" disallow="pedestrian tram rail_urban rail rail_electric rail_fast ship" speed="36.11" length="21.82" width="3.50" customShape="1" shape="-514.36,-389.87 -518.04,-390.96 -500.80,-385.86"/>
    </edge>
    <edge id="125324" from="49" to="46" priority="3" type="highway.residential" spreadType="center" length="19.53" shape="-534.00,-367.30 -532.07,-397.08">
        <lane id="125324_0" index="0" disallow="pedestrian tram rail_urban rail rail_electric rail_fast ship" speed="36.11" length="19.53" width="3.50" customShape="1" shape="-540.45,-360.50 -534.51,-379.10"/>
    </edge>
    <edge id="125440" from="50" to="46" priority="3" type="highway.residential" spreadType="center" length="21.03" shape="-585.75,-411.86 -529.93,-398.57">
        <lane id="125440_0" index="0" disallow="pedestrian tram rail_urban rail rail_electric rail_fast ship" speed="36.11" length="21.03" width="3.50" customShape="1" shape="-567.63,-404.08 -557.46,-401.46 -547.26,-398.84"/>
    </edge>
    <edge id="125441" from="46" to="50" priority="3" type="highway.residential" spreadType="center" length="21.05" shape="-530.74,-395.16 -586.56,-408.46">
        <lane id="125441_0" index="0" disallow="pedestrian tram rail_urban rail rail_electric rail_fast ship" speed="36.11" length="21.05" width="3.50" customShape="1" shape="-548.13,-395.45 -558.33,-398.07 -568.52,-400.69"/>
    </edge>
    <edge id="125443" from="39" to="50" priority="3" type="highway.residential" spreadType="center" length="54.25" shape="-657.43,-428.53 -585.67,-411.84">
        <lane id="125443_0" index="0" disallow="pedestrian tram rail_urban rail rail_electric rail_fast ship" speed="36.11" length="54.25" width="3.50" customShape="1" shape="-657.43,-428.53 -631.29,-421.30 -605.14,-414.08"/>
    </edge>
    <edge id="125444" from="50" to="27" priority="3" type="highway.residential" spreadType="center" length="54.24" shape="-586.46,-408.43 -658.36,-425.16">
        <lane id="125444_0" index="0" disallow="pedestrian tram rail_urban rail rail_electric rail_fast ship" speed="36.11" length="54.24" width="3.50" customShape="1" shape="-606.08,-410.70 -632.22,-417.93 -658.36,-425.16"/>
    </edge>
    <edge id="125969" from="28" to="52" priority="3" type="highway.residential" spreadType="center" length="43.16">
        <lane id="125969_0" index="0" disallow="pedestrian tram rail_urban rail rail_electric rail_fast ship" speed="36.11" length="43.16" width="3.50" customShape="1" shape="-582.20,-305.04 -551.35,-292.03 -542.38,-288.39"/>
        <lane id="125969_1" index="1" disallow="pedestrian tram rail_urban rail rail_electric rail_fast ship" speed="36.11" length="43.22" width="3.50" customShape="1" shape="-583.56,-301.81 -552.67,-288.79 -543.69,-285.14"/>
    </edge>
    <edge id="126067" from="38" to="50" priority="3" type="highway.residential" spreadType="center" length="39.73" shape="-569.65,-463.68 -584.43,-409.63">
        <lane id="126067_0" index="0" disallow="pedestrian tram rail_urban rail rail_electric rail_fast ship" speed="36.11" length="39.73" width="3.50" customShape="1" shape="-569.65,-463.68 -574.94,-444.52 -580.23,-425.38"/>
    </edge>
    <edge id="126068" from="50" to="26" priority="3" type="highway.residential" spreadType="center" length="39.73" shape="-587.80,-410.55 -573.02,-464.62">
        <lane id="126068_0" index="0" disallow="pedestrian tram rail_urban rail rail_electric rail_fast ship" speed="36.11" length="39.73" width="3.50" customShape="1" shape="-583.60,-426.32 -578.31,-445.45 -573.02,-464.62"/>
    </edge>
    <edge id="126113" from="50" to="51" priority="3" type="highway.residential" spreadType="center" length="75.35">
        <lane id="126113_0" index="0" disallow="pedestrian tram rail_urban rail rail_electric rail_fast ship" speed="36.11" length="75.35" width="3.50" customShape="1" shape="-588.90,-399.99 -597.15,-367.67 -607.52,-326.98"/>
    </edge>
    <edge id="126351" from="46" to="13" priority="3" type="highway.residential" spreadType="center" length="39.04" shape="-532.00,-397.40 -513.55,-448.96">
        <lane id="126351_0" index="0" disallow="pedestrian tram rail_urban rail rail_electric rail_fast ship" speed="36.11" length="39.04" width="3.50" customShape="1" shape="-524.81,-411.58 -521.59,-422.77 -517.80,-434.88 -513.55,-448.96"/>
    </edge>
    <edge id="126352" from="34" to="46" priority="3" type="highway.residential" spreadType="center" length="38.97" shape="-510.21,-447.92 -528.70,-396.22">
        <lane id="126352_0" index="0" disallow="pedestrian tram rail_urban rail rail_electric rail_fast ship" speed="36.11" length="38.97" width="3.50" customShape="1" shape="-510.21,-447.92 -514.45,-433.86 -518.23,-421.78 -521.45,-410.61"/>
    </edge>
    <edge id="126472" from="51" to="49" priority="3" type="highway.residential" spreadType="center" length="65.47">
        <lane id="126472_0" index="0" disallow="pedestrian tram rail_urban rail rail_electric rail_fast ship" speed="36.11" length="65.47" width="3.50" customShape="1" shape="-602.12,-320.93 -568.30,-339.76 -544.92,-352.78"/>
    </edge>
    <edge id="126474" from="49" to="48" priority="3" type="highway.residential" spreadType="center" length="39.84">
        <lane id="126474_0" index="0" disallow="pedestrian tram rail_urban rail rail_electric rail_fast ship" speed="36.11" length="39.84" width="3.50" customShape="1" shape="-536.72,-357.61 -516.00,-370.73 -503.06,-378.93"/>
    </edge>
    <edge id="126476" from="48" to="16" priority="3" type="highway.residential" spreadType="center" length="72.45">
        <lane id="126476_0" index="0" disallow="pedestrian tram rail_urban rail rail_electric rail_fast ship" speed="36.11" length="72.45" width="3.50" customShape="1" shape="-492.26,-385.77 -458.02,-407.45 -431.05,-424.53"/>
    </edge>
    <edge id="127800" from="52" to="53" priority="3" type="highway.residential" spreadType="center" length="25.07">
        <lane id="127800_0" index="0" disallow="pedestrian tram rail_urban rail rail_electric rail_fast ship" speed="36.11" length="25.07" width="3.47" customShape="1" shape="-540.88,-283.99 -530.51,-279.70 -523.53,-276.51 -519.92,-274.60 -518.17,-273.45"/>
    </edge>
    <edge id="127819" from="52" to="53" priority="3" type="highway.residential" spreadType="center" length="27.29">
        <lane id="127819_0" index="0" disallow="pedestrian tram rail_urban rail rail_electric rail_fast ship" speed="36.11" length="27.29" width="3.50" customShape="1" shape="-539.64,-287.32 -530.15,-283.78 -513.93,-278.16"/>
    </edge>
    <edge id="130221" from="51" to="28" priority="3" type="highway.residential" spreadType="center" length="18.83">
        <lane id="130221_0" index="0" disallow="pedestrian tram rail_urban rail rail_electric rail_fast ship" speed="36.11" length="18.83" width="3.50" customShape="1" shape="-602.08,-314.07 -601.92,-313.98 -596.26,-311.20 -585.55,-306.45 -584.97,-306.21"/>
        <lane id="130221_1" index="1" disallow="pedestrian tram rail_urban rail rail_electric rail_fast ship" speed="36.11" length="19.18" width="3.50" customShape="1" shape="-603.75,-311.00 -603.64,-310.94 -603.54,-310.88 -597.74,-308.03 -586.93,-303.24 -586.33,-302.98"/>
    </edge>
    <edge id="130394" from="46" to="47" priority="3" type="highway.residential" spreadType="center" length="0.20" shape="-528.58,-396.91 -529.95,-381.87">
        <lane id="130394_0" index="0" disallow="pedestrian tram rail_urban rail rail_electric rail_fast ship" speed="36.11" length="0.20" width="3.50" customShape="1" shape="-530.94,-381.55 -530.82,-381.39"/>
    </edge>
    <edge id="130669" from="46" to="47" priority="3" type="highway.residential" spreadType="center" length="4.51">
        <lane id="130669_0" index="0" disallow="pedestrian tram rail_urban rail rail_electric rail_fast ship" speed="36.11" length="4.51" width="3.50" customShape="1" shape="-528.62,-386.18 -529.95,-381.87"/>
    </edge>
    <edge id="130898" from="51" to="41" priority="3" type="highway.residential" spreadType="center" length="18.20" shape="-607.96,-318.67 -639.11,-318.23">
        <lane id="130898_0" index="0" disallow="pedestrian tram rail_urban rail rail_electric rail_fast ship" speed="36.11" length="18.25" width="3.50" customShape="1" shape="-621.52,-313.12 -621.65,-313.15 -621.77,-313.17 -630.61,-314.84 -639.45,-316.51"/>
        <lane id="130898_1" index="1" disallow="pedestrian tram rail_urban rail rail_electric rail_fast ship" speed="36.11" length="18.20" width="3.50" customShape="1" shape="-620.90,-316.57 -621.03,-316.59 -621.15,-316.61 -629.96,-318.28 -638.78,-319.95"/>
    </edge>
    <edge id="130902" from="36" to="35" priority="3" type="highway.residential" spreadType="center" length="16.34">
        <lane id="130902_0" index="0" disallow="pedestrian tram rail_urban rail rail_electric rail_fast ship" speed="36.11" length="16.34" width="3.50" customShape="1" shape="-637.43,-326.82 -628.66,-325.16 -621.38,-323.78"/>