<routes>
	<vehicle depart="0.1" departLane="0" departPos="25.60459310642977" departSpeed="1.3813233" id="311" type="passenger">
		<route edges="3775 3772"/>
	</vehicle>
	<vehicle depart="0.1" departLane="0" departPos="28.755787591338258" departSpeed="1.0167838" id="345" type="passenger">
		<route edges=":128_3 3772 3769"/>
	</vehicle>
	<vehicle depart="0.1" departLane="0" departPos="33.73881071116441" departSpeed="0.0" id="356" type="passenger">
		<route edges="3776 3779"/>
	</vehicle>
	<vehicle depart="0.1" departLane="0" departPos="9.071899897057529" departSpeed="1.5204779" id="374" type="passenger">
		<route edges=":128_8 4033"/>
	</vehicle>
	<vehicle depart="0.1" departLane="0" departPos="26.184348519379462" departSpeed="0.060005887" id="390" type="passenger">
		<route edges="3776 3779"/>
	</vehicle>
	<vehicle depart="0.1" departLane="0" departPos="18.17264633462106" departSpeed="0.55229146" id="3116" type="passenger">
		<route edges="3776 3779"/>
	</vehicle>
	<vehicle depart="0.1" departLane="0" departPos="8.566854310176698" departSpeed="1.9301665" id="3124" type="passenger">
		<route edges="3776 3779"/>
	</vehicle>
	<vehicle depart="0.1" departLane="0" departPos="23.397910676408067" departSpeed="0.049133237" id="3133" type="passenger">
		<route edges=":128_2 4037"/>
	</vehicle>
	<vehicle depart="0.1" departLane="0" departPos="13.31912662805401" departSpeed="1.852018" id="3140" type="passenger">
		<route edges=":128_2 4037"/>
	</vehicle>
	<vehicle depart="0.1" departLane="0" departPos="5.258984025071811" departSpeed="2.5852793" id="3147" type="passenger">
		<route edges="3773 3776"/>
	</vehicle>
</routes>
