<!-- generated on Tue Feb  9 22:02:13 2021 by Eclipse SUMO netconvert Version 1.8.0
<configuration xmlns:xsi="http://www.w3.org/2001/XMLSchema-instance" xsi:noNamespaceSchemaLocation="http://sumo.dlr.de/xsd/netconvertConfiguration.xsd">

    <input>
        <node-files value="./converted_scenarios/scenario-factory/ARG_Carcarana-1_5_I-1-1/ARG_Carcarana-1_5_I-1-1.nod.xml"/>
        <edge-files value="./converted_scenarios/scenario-factory/ARG_Carcarana-1_5_I-1-1/ARG_Carcarana-1_5_I-1-1.edg.xml"/>
        <connection-files value="./converted_scenarios/scenario-factory/ARG_Carcarana-1_5_I-1-1/ARG_Carcarana-1_5_I-1-1.con.xml"/>
        <tllogic-files value="./converted_scenarios/scenario-factory/ARG_Carcarana-1_5_I-1-1/ARG_Carcarana-1_5_I-1-1.tll.xml"/>
        <type-files value="/home/zen/commonroad-interactive-benchmarks/install/commonroad-map-tool/crmapconverter/sumo_map/templates/DEU.typ.xml"/>
    </input>

    <output>
        <output-file value="./converted_scenarios/scenario-factory/ARG_Carcarana-1_5_I-1-1/ARG_Carcarana-1_5_I-1-1.net.xml"/>
    </output>

    <processing>
        <geometry.remove.keep-edges.explicit value="true"/>
        <geometry.avoid-overlap value="true"/>
        <offset.disable-normalization value="true"/>
    </processing>

    <junctions>
        <no-turnarounds value="true"/>
        <junctions.internal-link-detail value="20"/>
    </junctions>

    <report>
        <aggregate-warnings value="5"/>
    </report>

    <random_number>
        <seed value="1234"/>
    </random_number>

</configuration>
--><net xmlns:xsi="http://www.w3.org/2001/XMLSchema-instance" version="1.6" junctionCornerDetail="5" junctionLinkDetail="20" limitTurnSpeed="5.50" xsi:noNamespaceSchemaLocation="http://sumo.dlr.de/xsd/net_file.xsd">

    <location netOffset="0.00,0.00" convBoundary="-137.90,377.63,311.29,814.35" origBoundary="-137.90,377.63,311.29,814.35" projParameter="!"/>

    <type id="highway.bridleway" priority="1" speed="2.78" allow="pedestrian" oneway="1" width="2.00"/>
    <type id="highway.bus_guideway" priority="1" speed="27.78" allow="bus" oneway="1"/>
    <type id="highway.cycleway" priority="1" speed="8.33" allow="bicycle" oneway="0" width="1.00"/>
    <type id="highway.footway" priority="1" speed="2.78" allow="pedestrian" oneway="1" width="2.00"/>
    <type id="highway.ford" priority="1" speed="2.78" allow="army" oneway="0"/>
    <type id="highway.living_street" priority="2" speed="2.78" disallow="tram rail_urban rail rail_electric rail_fast ship" oneway="0"/>
    <type id="highway.motorway" priority="14" speed="39.44" allow="private emergency authority army vip passenger hov taxi bus coach delivery truck trailer motorcycle evehicle custom1 custom2" oneway="1"/>
    <type id="highway.motorway_link" priority="9" speed="22.22" allow="private emergency authority army vip passenger hov taxi bus coach delivery truck trailer motorcycle evehicle custom1 custom2" oneway="1"/>
    <type id="highway.path" priority="1" speed="2.78" allow="pedestrian bicycle" oneway="0" width="2.00"/>
    <type id="highway.pedestrian" priority="1" speed="2.78" allow="pedestrian" oneway="1" width="2.00"/>
    <type id="highway.primary" priority="12" speed="27.78" disallow="pedestrian tram rail_urban rail rail_electric rail_fast ship" oneway="0"/>
    <type id="highway.primary_link" priority="7" speed="22.22" disallow="pedestrian tram rail_urban rail rail_electric rail_fast ship" oneway="0"/>
    <type id="highway.raceway" priority="15" speed="83.33" allow="vip" oneway="0"/>
    <type id="highway.residential" priority="3" speed="13.89" disallow="pedestrian tram rail_urban rail rail_electric rail_fast ship" oneway="0"/>
    <type id="highway.secondary" priority="11" speed="27.78" disallow="pedestrian tram rail_urban rail rail_electric rail_fast ship" oneway="0"/>
    <type id="highway.secondary_link" priority="6" speed="22.22" disallow="pedestrian tram rail_urban rail rail_electric rail_fast ship" oneway="0"/>
    <type id="highway.service" priority="1" speed="5.56" allow="pedestrian delivery bicycle" oneway="0"/>
    <type id="highway.stairs" priority="1" speed="1.39" allow="pedestrian" oneway="1" width="2.00"/>
    <type id="highway.step" priority="1" speed="1.39" allow="pedestrian" oneway="1" width="2.00"/>
    <type id="highway.steps" priority="1" speed="1.39" allow="pedestrian" oneway="1" width="2.00"/>
    <type id="highway.tertiary" priority="10" speed="22.22" disallow="pedestrian tram rail_urban rail rail_electric rail_fast ship" oneway="0"/>
    <type id="highway.tertiary_link" priority="5" speed="22.22" disallow="pedestrian tram rail_urban rail rail_electric rail_fast ship" oneway="0"/>
    <type id="highway.track" priority="1" speed="5.56" allow="pedestrian motorcycle moped bicycle" oneway="0"/>
    <type id="highway.trunk" priority="13" speed="27.78" disallow="pedestrian bicycle tram rail_urban rail rail_electric rail_fast ship" oneway="0"/>
    <type id="highway.trunk_link" priority="8" speed="22.22" disallow="pedestrian bicycle tram rail_urban rail rail_electric rail_fast ship" oneway="0"/>
    <type id="highway.unclassified" priority="4" speed="13.89" disallow="pedestrian tram rail_urban rail rail_electric rail_fast ship" oneway="0"/>
    <type id="highway.unsurfaced" priority="1" speed="8.33" disallow="tram rail_urban rail rail_electric rail_fast ship" oneway="0"/>
    <type id="railway.highspeed" priority="21" speed="69.44" allow="rail_fast" oneway="1"/>
    <type id="railway.light_rail" priority="19" speed="27.78" allow="rail_urban" oneway="1"/>
    <type id="railway.preserved" priority="16" speed="27.78" allow="rail" oneway="1"/>
    <type id="railway.rail" priority="20" speed="44.44" allow="rail" oneway="1"/>
    <type id="railway.subway" priority="18" speed="27.78" allow="rail_urban" oneway="1"/>
    <type id="railway.tram" priority="17" speed="13.89" allow="tram" oneway="1"/>

    <edge id=":125_0" function="internal">
        <lane id=":125_0_0" index="0" disallow="pedestrian tram rail_urban rail rail_electric rail_fast ship" speed="11.24" length="28.85" width="3.50" shape="97.46,610.19 96.59,606.97 95.80,604.90 94.80,602.91 93.57,601.07 92.85,600.22 92.07,599.43 91.23,598.70 90.33,598.06 89.37,597.49 88.37,597.01 87.33,596.62 85.17,596.08 82.97,595.84 80.74,595.85 78.53,596.07 76.37,596.45"/>
    </edge>
    <edge id=":125_1" function="internal">
        <lane id=":125_1_0" index="0" disallow="pedestrian tram rail_urban rail rail_electric rail_fast ship" speed="36.11" length="38.85" width="3.50" shape="97.46,610.19 93.40,591.19 89.34,572.20"/>
    </edge>
    <edge id=":125_2" function="internal">
        <lane id=":125_2_0" index="0" disallow="pedestrian tram rail_urban rail rail_electric rail_fast ship" speed="12.20" length="34.33" width="3.50" shape="97.46,610.19 96.83,606.28 96.67,603.65 96.78,601.01 97.21,598.41 97.56,597.14 98.01,595.90 98.56,594.70 99.22,593.55 99.97,592.47 100.82,591.46 101.75,590.52 103.81,588.88 106.09,587.54 108.51,586.48 111.01,585.65 113.60,585.01"/>
    </edge>
    <edge id=":125_3" function="internal">
        <lane id=":125_3_0" index="0" disallow="pedestrian tram rail_urban rail rail_electric rail_fast ship" speed="11.20" length="28.74" width="3.50" shape="114.32,588.44 112.07,588.99 109.92,589.70 107.87,590.60 105.97,591.71 104.26,593.08 103.53,593.82 102.86,594.63 102.25,595.49 101.73,596.41 101.29,597.38 100.92,598.38 100.64,599.39 100.28,601.58 100.19,603.81 100.33,606.05 100.88,609.46"/>
    </edge>
    <edge id=":125_4" function="internal">
        <lane id=":125_4_0" index="0" disallow="pedestrian tram rail_urban rail rail_electric rail_fast ship" speed="36.11" length="38.79" width="3.50" shape="114.32,588.44 95.32,592.45 76.37,596.45"/>
    </edge>
    <edge id=":125_5" function="internal">
        <lane id=":125_5_0" index="0" disallow="pedestrian tram rail_urban rail rail_electric rail_fast ship" speed="12.19" length="34.16" width="3.50" shape="114.32,588.44 110.41,589.05 107.78,589.19 105.16,589.06 102.57,588.61 101.31,588.24 100.09,587.78 98.90,587.21 97.77,586.54 96.70,585.78 95.71,584.92 94.78,583.99 93.17,581.92 91.85,579.64 90.80,577.24 89.98,574.75 89.34,572.20"/>
    </edge>
    <edge id=":125_6" function="internal">
        <lane id=":125_6_0" index="0" disallow="pedestrian tram rail_urban rail rail_electric rail_fast ship" speed="11.19" length="28.59" width="3.50" shape="92.76,571.47 93.31,573.68 94.02,575.83 94.92,577.87 96.01,579.77 97.36,581.49 98.08,582.22 98.88,582.91 99.74,583.52 100.64,584.06 101.59,584.51 102.59,584.89 103.58,585.18 105.75,585.56 107.96,585.67 110.18,585.55 113.60,585.01"/>
    </edge>
    <edge id=":125_7" function="internal">
        <lane id=":125_7_0" index="0" disallow="pedestrian tram rail_urban rail rail_electric rail_fast ship" speed="36.11" length="38.85" width="3.50" shape="92.76,571.47 96.82,590.46 100.88,609.46"/>
    </edge>
    <edge id=":125_8" function="internal">
        <lane id=":125_8_0" index="0" disallow="pedestrian tram rail_urban rail rail_electric rail_fast ship" speed="12.18" length="34.19" width="3.50" shape="92.76,571.47 93.36,575.23 93.50,577.83 93.36,580.45 92.90,583.04 92.51,584.36 92.02,585.62 91.42,586.85 90.72,588.02 89.91,589.12 89.02,590.14 88.05,591.08 86.99,591.96 84.80,593.40 82.45,594.56 80.02,595.47 76.37,596.45"/>
    </edge>
    <edge id=":125_9" function="internal">
        <lane id=":125_9_0" index="0" disallow="pedestrian tram rail_urban rail rail_electric rail_fast ship" speed="11.17" length="28.61" width="3.50" shape="75.64,593.02 78.81,592.18 80.88,591.41 82.85,590.43 84.69,589.22 85.54,588.52 86.33,587.75 87.06,586.93 87.71,586.04 88.28,585.09 88.76,584.11 89.16,583.08 89.47,582.02 89.86,579.86 89.98,577.66 89.86,575.46 89.34,572.20"/>
    </edge>
    <edge id=":125_10" function="internal">
        <lane id=":125_10_0" index="0" disallow="pedestrian tram rail_urban rail rail_electric rail_fast ship" speed="36.11" length="38.80" width="3.50" shape="75.64,593.02 94.60,589.02 113.60,585.01"/>
    </edge>
    <edge id=":125_11" function="internal">
        <lane id=":125_11_0" index="0" disallow="pedestrian tram rail_urban rail rail_electric rail_fast ship" speed="12.24" length="34.43" width="3.50" shape="75.64,593.02 78.15,592.58 80.72,592.33 83.34,592.32 85.99,592.61 88.57,593.25 89.87,593.75 91.11,594.34 92.29,595.03 93.41,595.84 94.45,596.73 95.40,597.70 96.29,598.76 97.76,600.95 98.95,603.31 99.88,605.75 100.88,609.46"/>
    </edge>
    <edge id=":126_0" function="internal">
        <lane id=":126_0_0" index="0" disallow="pedestrian tram rail_urban rail rail_electric rail_fast ship" speed="36.11" length="39.11" width="3.50" shape="-32.14,637.84 -37.13,615.74 -40.51,599.64"/>
    </edge>
    <edge id=":126_1" function="internal">
        <lane id=":126_1_0" index="0" disallow="pedestrian tram rail_urban rail rail_electric rail_fast ship" speed="12.16" length="34.64" width="3.50" shape="-32.14,637.84 -32.86,633.88 -33.07,631.23 -33.01,628.57 -32.63,625.94 -32.29,624.65 -31.85,623.40 -31.31,622.18 -30.66,621.02 -29.91,619.93 -29.06,618.90 -28.13,617.96 -27.12,617.09 -24.92,615.59 -22.55,614.39 -20.07,613.44 -16.18,612.41"/>
    </edge>
    <edge id=":126_2" function="internal">
        <lane id=":126_2_0" index="0" disallow="pedestrian tram rail_urban rail rail_electric rail_fast ship" speed="11.16" length="28.96" width="3.50" shape="-15.46,615.83 -18.85,616.73 -20.95,617.54 -22.94,618.54 -24.78,619.80 -25.57,620.49 -26.33,621.25 -27.00,622.07 -27.60,622.94 -28.12,623.87 -28.55,624.84 -28.90,625.86 -29.17,626.88 -29.50,629.09 -29.54,631.32 -29.36,633.58 -28.73,637.04"/>
    </edge>
    <edge id=":126_3" function="internal">
        <lane id=":126_3_0" index="0" disallow="pedestrian tram rail_urban rail rail_electric rail_fast ship" speed="12.17" length="34.28" width="3.50" shape="-15.46,615.83 -19.39,616.46 -22.03,616.61 -24.66,616.50 -27.25,616.06 -28.52,615.70 -29.76,615.25 -30.95,614.69 -32.09,614.03 -33.17,613.27 -34.17,612.42 -35.10,611.49 -35.95,610.48 -37.42,608.30 -38.60,605.94 -39.52,603.47 -40.51,599.64"/>
    </edge>
    <edge id=":126_4" function="internal">
        <lane id=":126_4_0" index="0" disallow="pedestrian tram rail_urban rail rail_electric rail_fast ship" speed="11.17" length="28.71" width="3.50" shape="-37.09,598.91 -36.22,602.28 -35.44,604.37 -34.45,606.35 -33.22,608.17 -32.55,608.97 -31.80,609.72 -30.99,610.40 -30.13,611.00 -29.22,611.53 -28.26,611.98 -27.26,612.34 -26.26,612.63 -24.07,612.99 -21.86,613.09 -19.62,612.96 -16.18,612.41"/>
    </edge>
    <edge id=":126_5" function="internal">
        <lane id=":126_5_0" index="0" disallow="pedestrian tram rail_urban rail rail_electric rail_fast ship" speed="36.11" length="39.04" width="3.50" shape="-37.09,598.91 -33.71,615.00 -28.73,637.04"/>
    </edge>
    <edge id=":127_0" function="internal">
        <lane id=":127_0_0" index="0" disallow="pedestrian tram rail_urban rail rail_electric rail_fast ship" speed="11.25" length="28.91" width="3.50" shape="82.38,539.58 81.51,536.37 80.72,534.29 79.72,532.31 78.48,530.46 77.76,529.61 76.97,528.82 76.13,528.10 75.22,527.45 74.26,526.89 73.26,526.41 72.22,526.02 70.06,525.48 67.85,525.24 65.62,525.25 63.41,525.47 61.22,525.86"/>
    </edge>
    <edge id=":127_1" function="internal">
        <lane id=":127_1_0" index="0" disallow="pedestrian tram rail_urban rail rail_electric rail_fast ship" speed="36.11" length="38.84" width="3.50" shape="82.38,539.58 78.32,520.61 74.26,501.60"/>
    </edge>
    <edge id=":127_2" function="internal">
        <lane id=":127_2_0" index="0" disallow="pedestrian tram rail_urban rail rail_electric rail_fast ship" speed="12.17" length="34.20" width="3.50" shape="82.38,539.58 81.93,537.09 81.67,534.54 81.64,531.94 81.90,529.32 82.50,526.76 82.97,525.46 83.54,524.22 84.22,523.04 85.00,521.91 85.87,520.87 86.82,519.91 87.87,519.01 90.04,517.53 92.38,516.34 94.81,515.41 98.50,514.43"/>
    </edge>
    <edge id=":127_3" function="internal">
        <lane id=":127_3_0" index="0" disallow="pedestrian tram rail_urban rail rail_electric rail_fast ship" speed="11.17" length="28.60" width="3.50" shape="99.22,517.85 96.03,518.70 93.97,519.49 92.01,520.49 90.19,521.73 89.36,522.45 88.58,523.23 87.88,524.08 87.25,524.98 86.71,525.94 86.25,526.94 85.88,527.97 85.37,530.11 85.16,532.30 85.18,534.51 85.41,536.70 85.80,538.84"/>
    </edge>
    <edge id=":127_4" function="internal">
        <lane id=":127_4_0" index="0" disallow="pedestrian tram rail_urban rail rail_electric rail_fast ship" speed="36.11" length="38.84" width="3.50" shape="99.22,517.85 80.22,521.85 61.22,525.86"/>
    </edge>
    <edge id=":127_5" function="internal">
        <lane id=":127_5_0" index="0" disallow="pedestrian tram rail_urban rail rail_electric rail_fast ship" speed="12.19" length="34.15" width="3.50" shape="99.22,517.85 95.33,518.46 92.71,518.60 90.09,518.47 87.50,518.02 86.24,517.65 85.01,517.19 83.83,516.62 82.70,515.96 81.63,515.19 80.63,514.34 79.71,513.40 78.10,511.34 76.78,509.07 75.73,506.66 74.90,504.17 74.26,501.60"/>
    </edge>
    <edge id=":127_6" function="internal">
        <lane id=":127_6_0" index="0" disallow="pedestrian tram rail_urban rail rail_electric rail_fast ship" speed="11.19" length="28.58" width="3.50" shape="77.68,500.87 78.24,503.11 78.95,505.25 79.84,507.29 80.94,509.19 82.28,510.91 83.01,511.64 83.81,512.32 84.66,512.94 85.57,513.47 86.52,513.92 87.51,514.30 88.51,514.59 90.68,514.97 92.88,515.08 95.11,514.96 98.50,514.43"/>
    </edge>
    <edge id=":127_7" function="internal">
        <lane id=":127_7_0" index="0" disallow="pedestrian tram rail_urban rail rail_electric rail_fast ship" speed="36.11" length="38.83" width="3.50" shape="77.68,500.87 81.74,519.88 85.80,538.84"/>
    </edge>
    <edge id=":127_8" function="internal">
        <lane id=":127_8_0" index="0" disallow="pedestrian tram rail_urban rail rail_electric rail_fast ship" speed="12.20" length="34.35" width="3.50" shape="77.68,500.87 78.31,504.80 78.45,507.44 78.31,510.08 77.84,512.68 77.46,513.94 76.99,515.17 76.40,516.36 75.72,517.49 74.94,518.55 74.07,519.54 73.12,520.46 71.02,522.06 68.72,523.37 66.29,524.41 63.78,525.23 61.22,525.86"/>
    </edge>
    <edge id=":127_9" function="internal">
        <lane id=":127_9_0" index="0" disallow="pedestrian tram rail_urban rail rail_electric rail_fast ship" speed="11.20" length="28.77" width="3.50" shape="60.49,522.43 62.73,521.88 64.90,521.18 66.96,520.30 68.88,519.21 70.63,517.87 71.38,517.15 72.08,516.35 72.71,515.50 73.26,514.60 73.73,513.65 74.11,512.66 74.42,511.66 74.81,509.48 74.93,507.27 74.81,505.03 74.26,501.60"/>
    </edge>
    <edge id=":127_10" function="internal">
        <lane id=":127_10_0" index="0" disallow="pedestrian tram rail_urban rail rail_electric rail_fast ship" speed="36.11" length="38.84" width="3.50" shape="60.49,522.43 79.50,518.43 98.50,514.43"/>
    </edge>
    <edge id=":127_11" function="internal">
        <lane id=":127_11_0" index="0" disallow="pedestrian tram rail_urban rail rail_electric rail_fast ship" speed="12.25" length="34.48" width="3.50" shape="60.49,522.43 63.03,521.99 65.60,521.73 68.23,521.72 70.87,522.01 73.45,522.65 74.76,523.14 76.00,523.73 77.19,524.43 78.30,525.23 79.35,526.12 80.31,527.09 81.20,528.15 82.67,530.34 83.87,532.70 84.80,535.15 85.80,538.84"/>
    </edge>
    <edge id=":128_0" function="internal">
        <lane id=":128_0_0" index="0" disallow="pedestrian tram rail_urban rail rail_electric rail_fast ship" speed="11.22" length="28.84" width="3.50" shape="112.64,681.25 111.78,678.03 110.99,675.96 109.99,673.98 108.75,672.14 108.03,671.29 107.25,670.51 106.41,669.79 105.51,669.14 104.55,668.58 103.55,668.11 102.51,667.72 100.36,667.19 98.15,666.95 95.93,666.97 93.73,667.20 91.54,667.59"/>
    </edge>
    <edge id=":128_1" function="internal">
        <lane id=":128_1_0" index="0" disallow="pedestrian tram rail_urban rail rail_electric rail_fast ship" speed="36.11" length="38.83" width="3.50" shape="112.64,681.25 108.58,662.26 104.53,643.28"/>
    </edge>
    <edge id=":128_2" function="internal">
        <lane id=":128_2_0" index="0" disallow="pedestrian tram rail_urban rail rail_electric rail_fast ship" speed="12.20" length="34.30" width="3.50" shape="112.64,681.25 112.01,677.34 111.85,674.70 111.96,672.07 112.39,669.47 112.75,668.20 113.20,666.96 113.75,665.76 114.40,664.61 115.16,663.53 116.00,662.52 116.93,661.58 119.00,659.94 121.27,658.60 123.68,657.53 126.18,656.70 128.74,656.06"/>
    </edge>
    <edge id=":128_3" function="internal">
        <lane id=":128_3_0" index="0" disallow="pedestrian tram rail_urban rail rail_electric rail_fast ship" speed="11.20" length="28.71" width="3.50" shape="129.48,659.48 127.25,660.03 125.10,660.75 123.05,661.66 121.16,662.77 119.45,664.14 118.72,664.87 118.04,665.69 117.44,666.55 116.92,667.47 116.47,668.44 116.11,669.44 115.83,670.45 115.47,672.64 115.38,674.86 115.51,677.10 116.06,680.51"/>
    </edge>
    <edge id=":128_4" function="internal">
        <lane id=":128_4_0" index="0" disallow="pedestrian tram rail_urban rail rail_electric rail_fast ship" speed="36.11" length="38.80" width="3.50" shape="129.48,659.48 110.51,663.53 91.54,667.59"/>
    </edge>
    <edge id=":128_5" function="internal">
        <lane id=":128_5_0" index="0" disallow="pedestrian tram rail_urban rail rail_electric rail_fast ship" speed="12.16" length="34.03" width="3.50" shape="129.48,659.48 126.98,659.92 124.44,660.18 121.85,660.20 119.24,659.91 116.69,659.28 115.40,658.80 114.18,658.21 113.01,657.52 111.91,656.74 110.88,655.86 109.94,654.90 109.06,653.85 107.61,651.68 106.43,649.36 105.51,646.94 104.53,643.28"/>
    </edge>
    <edge id=":128_6" function="internal">
        <lane id=":128_6_0" index="0" disallow="pedestrian tram rail_urban rail rail_electric rail_fast ship" speed="11.15" length="28.44" width="3.50" shape="107.95,642.55 108.80,645.72 109.58,647.77 110.56,649.72 111.78,651.54 112.49,652.37 113.25,653.15 114.09,653.86 114.98,654.50 115.92,655.06 116.90,655.53 117.93,655.91 120.05,656.44 122.22,656.68 124.41,656.66 126.59,656.44 128.74,656.06"/>
    </edge>
    <edge id=":128_7" function="internal">
        <lane id=":128_7_0" index="0" disallow="pedestrian tram rail_urban rail rail_electric rail_fast ship" speed="36.11" length="38.82" width="3.50" shape="107.95,642.55 112.01,661.53 116.06,680.51"/>
    </edge>
    <edge id=":128_8" function="internal">
        <lane id=":128_8_0" index="0" disallow="pedestrian tram rail_urban rail rail_electric rail_fast ship" speed="12.21" length="34.34" width="3.50" shape="107.95,642.55 108.57,646.47 108.72,649.10 108.58,651.74 108.12,654.34 107.74,655.61 107.27,656.84 106.69,658.03 106.01,659.16 105.23,660.23 104.37,661.22 103.42,662.15 101.33,663.76 99.04,665.07 96.61,666.12 94.11,666.95 91.54,667.59"/>
    </edge>
    <edge id=":128_9" function="internal">
        <lane id=":128_9_0" index="0" disallow="pedestrian tram rail_urban rail rail_electric rail_fast ship" speed="11.21" length="28.76" width="3.50" shape="90.81,664.17 93.04,663.61 95.21,662.90 97.27,662.01 99.18,660.91 100.93,659.57 101.67,658.84 102.37,658.04 103.00,657.18 103.54,656.28 104.00,655.32 104.39,654.33 104.69,653.33 105.08,651.15 105.19,648.93 105.07,646.69 104.53,643.28"/>
    </edge>
    <edge id=":128_10" function="internal">
        <lane id=":128_10_0" index="0" disallow="pedestrian tram rail_urban rail rail_electric rail_fast ship" speed="36.11" length="38.79" width="3.50" shape="90.81,664.17 109.78,660.11 128.74,656.06"/>
    </edge>
    <edge id=":128_11" function="internal">
        <lane id=":128_11_0" index="0" disallow="pedestrian tram rail_urban rail rail_electric rail_fast ship" speed="12.22" length="34.41" width="3.50" shape="90.81,664.17 93.33,663.72 95.90,663.46 98.52,663.44 101.16,663.72 103.74,664.35 105.04,664.84 106.28,665.42 107.46,666.12 108.58,666.91 109.62,667.80 110.58,668.77 111.47,669.83 112.94,672.02 114.13,674.37 115.07,676.81 116.06,680.51"/>
    </edge>
    <edge id=":129_0" function="internal">
        <lane id=":129_0_0" index="0" disallow="pedestrian tram rail_urban rail rail_electric rail_fast ship" speed="11.17" length="28.68" width="3.50" shape="225.79,582.82 225.25,580.59 224.55,578.44 223.67,576.39 222.57,574.49 221.21,572.77 220.48,572.04 219.68,571.36 218.82,570.75 217.90,570.22 216.94,569.77 215.94,569.41 214.93,569.12 212.75,568.75 210.53,568.66 208.29,568.79 204.88,569.33"/>
    </edge>
    <edge id=":129_1" function="internal">
        <lane id=":129_1_0" index="0" disallow="pedestrian tram rail_urban rail rail_electric rail_fast ship" speed="36.11" length="38.77" width="3.50" shape="242.81,561.32 223.86,565.32 204.88,569.33"/>
    </edge>
    <edge id=":129_2" function="internal">
        <lane id=":129_2_0" index="0" disallow="pedestrian tram rail_urban rail rail_electric rail_fast ship" speed="12.25" length="34.44" width="3.50" shape="221.38,544.12 221.81,546.63 222.05,549.20 222.06,551.82 221.76,554.46 221.11,557.04 220.61,558.35 220.02,559.58 219.32,560.76 218.52,561.88 217.63,562.91 216.66,563.87 215.60,564.76 213.40,566.23 211.04,567.41 208.59,568.34 204.88,569.33"/>
    </edge>
    <edge id=":129_3" function="internal">
        <lane id=":129_3_0" index="0" disallow="pedestrian tram rail_urban rail rail_electric rail_fast ship" speed="11.25" length="28.86" width="3.50" shape="204.16,565.90 207.38,565.05 209.46,564.26 211.44,563.26 213.29,562.03 214.14,561.31 214.93,560.53 215.66,559.69 216.31,558.79 216.87,557.83 217.35,556.83 217.75,555.79 218.29,553.64 218.54,551.43 218.54,549.21 218.33,547.00 217.96,544.83"/>
    </edge>
    <edge id=":129_4" function="internal">
        <lane id=":129_4_0" index="0" disallow="pedestrian tram rail_urban rail rail_electric rail_fast ship" speed="36.11" length="38.75" width="3.50" shape="204.16,565.90 223.13,561.90 242.08,557.90"/>
    </edge>
    <edge id=":129_5" function="internal">
        <lane id=":129_5_0" index="0" disallow="pedestrian tram rail_urban rail rail_electric rail_fast ship" speed="12.18" length="34.27" width="3.50" shape="204.16,565.90 208.07,565.28 210.70,565.13 213.33,565.25 215.93,565.69 217.20,566.05 218.44,566.50 219.63,567.06 220.77,567.72 221.85,568.48 222.86,569.33 223.79,570.27 225.41,572.34 226.73,574.62 227.78,577.04 228.60,579.55 229.22,582.11"/>
    </edge>
    <edge id=":130_0" function="internal">
        <lane id=":130_0_0" index="0" disallow="pedestrian tram rail_urban rail rail_electric rail_fast ship" speed="11.17" length="28.83" width="3.50" shape="-11.64,408.17 -12.16,405.92 -12.85,403.75 -13.72,401.68 -14.80,399.75 -16.14,398.00 -16.87,397.26 -17.67,396.57 -18.52,395.95 -19.43,395.40 -20.39,394.95 -21.39,394.57 -22.40,394.27 -24.58,393.89 -26.81,393.79 -29.05,393.92 -32.50,394.48"/>
    </edge>
    <edge id=":130_1" function="internal">
        <lane id=":130_1_0" index="0" disallow="pedestrian tram rail_urban rail rail_electric rail_fast ship" speed="12.23" length="34.11" width="3.50" shape="-11.64,408.17 -12.05,405.66 -12.28,403.11 -12.29,400.52 -12.01,397.91 -11.39,395.36 -10.92,394.07 -10.35,392.84 -9.68,391.65 -8.91,390.53 -8.04,389.49 -7.10,388.52 -6.06,387.62 -3.90,386.13 -1.57,384.92 0.85,383.98 4.50,382.99"/>
    </edge>
    <edge id=":130_2" function="internal">
        <lane id=":130_2_0" index="0" disallow="pedestrian tram rail_urban rail rail_electric rail_fast ship" speed="11.24" length="28.60" width="3.50" shape="5.26,386.40 2.08,387.27 0.03,388.07 -1.93,389.08 -3.73,390.33 -4.56,391.05 -5.33,391.84 -6.03,392.69 -6.65,393.60 -7.19,394.56 -7.65,395.56 -8.03,396.59 -8.54,398.73 -8.77,400.92 -8.77,403.12 -8.57,405.31 -8.21,407.48"/>
    </edge>
    <edge id=":130_3" function="internal">
        <lane id=":130_3_0" index="0" disallow="pedestrian tram rail_urban rail rail_electric rail_fast ship" speed="12.17" length="34.46" width="3.50" shape="-33.24,391.05 -29.28,390.42 -26.64,390.27 -23.99,390.39 -21.38,390.84 -20.11,391.21 -18.87,391.68 -17.68,392.25 -16.54,392.93 -15.47,393.71 -14.47,394.58 -13.55,395.53 -11.94,397.63 -10.64,399.94 -9.61,402.38 -8.81,404.90 -8.21,407.48"/>
    </edge>
    <edge id=":131_0" function="internal">
        <lane id=":131_0_0" index="0" disallow="pedestrian tram rail_urban rail rail_electric rail_fast ship" speed="36.11" length="38.64" width="3.50" shape="34.49,531.49 15.55,535.47 -3.32,539.45"/>
    </edge>
    <edge id=":131_1" function="internal">
        <lane id=":131_1_0" index="0" disallow="pedestrian tram rail_urban rail rail_electric rail_fast ship" speed="12.12" length="34.12" width="3.50" shape="34.49,531.49 30.57,532.10 27.95,532.25 25.33,532.12 22.75,531.67 21.49,531.30 20.27,530.84 19.09,530.27 17.96,529.60 16.90,528.83 15.91,527.97 15.00,527.03 13.40,524.95 12.11,522.67 11.09,520.25 10.30,517.76 9.70,515.20"/>
    </edge>
    <edge id=":131_2" function="internal">
        <lane id=":131_2_0" index="0" disallow="pedestrian tram rail_urban rail rail_electric rail_fast ship" speed="11.11" length="28.48" width="3.50" shape="13.13,514.52 13.65,516.73 14.33,518.88 15.20,520.93 16.27,522.83 17.59,524.55 18.30,525.28 19.10,525.97 19.94,526.58 20.84,527.12 21.79,527.57 22.78,527.95 23.77,528.24 25.93,528.62 28.13,528.72 30.35,528.60 33.76,528.06"/>
    </edge>
    <edge id=":131_3" function="internal">
        <lane id=":131_3_0" index="0" disallow="pedestrian tram rail_urban rail rail_electric rail_fast ship" speed="12.22" length="34.09" width="3.50" shape="13.13,514.52 13.55,517.03 13.77,519.58 13.75,522.17 13.43,524.79 12.77,527.34 12.27,528.62 11.67,529.84 10.97,531.01 10.17,532.11 9.28,533.13 8.32,534.07 7.26,534.95 5.08,536.39 2.75,537.56 0.32,538.48 -3.32,539.45"/>
    </edge>
    <edge id=":131_4" function="internal">
        <lane id=":131_4_0" index="0" disallow="pedestrian tram rail_urban rail rail_electric rail_fast ship" speed="11.22" length="28.58" width="3.50" shape="-4.07,536.03 -0.89,535.19 1.17,534.41 3.14,533.43 4.97,532.21 5.81,531.51 6.60,530.74 7.32,529.91 7.97,529.02 8.53,528.08 9.02,527.09 9.42,526.07 9.97,523.94 10.24,521.76 10.25,519.56 10.06,517.37 9.70,515.20"/>
    </edge>
    <edge id=":131_5" function="internal">
        <lane id=":131_5_0" index="0" disallow="pedestrian tram rail_urban rail rail_electric rail_fast ship" speed="36.11" length="38.66" width="3.50" shape="-4.07,536.03 14.83,532.05 33.76,528.06"/>
    </edge>
    <edge id=":132_0" function="internal">
        <lane id=":132_0_0" index="0" disallow="pedestrian tram rail_urban rail rail_electric rail_fast ship" speed="11.30" length="28.96" width="3.50" shape="-47.24,566.58 -47.77,564.41 -48.46,562.29 -49.35,560.25 -50.48,558.33 -51.14,557.43 -51.87,556.59 -52.66,555.81 -53.52,555.09 -54.43,554.46 -55.40,553.90 -56.41,553.43 -57.45,553.04 -59.61,552.51 -61.82,552.25 -64.05,552.24 -66.27,552.43 -68.47,552.77"/>
    </edge>
    <edge id=":132_1" function="internal">
        <lane id=":132_1_0" index="0" disallow="pedestrian tram rail_urban rail rail_electric rail_fast ship" speed="36.11" length="38.78" width="3.50" shape="-47.24,566.58 -51.18,547.59 -55.11,528.61"/>
    </edge>
    <edge id=":132_2" function="internal">
        <lane id=":132_2_0" index="0" disallow="pedestrian tram rail_urban rail rail_electric rail_fast ship" speed="12.21" length="34.17" width="3.50" shape="-47.24,566.58 -47.83,562.68 -47.95,560.05 -47.80,557.43 -47.32,554.84 -46.95,553.58 -46.47,552.36 -45.90,551.18 -45.22,550.05 -44.45,548.99 -43.59,547.99 -42.65,547.08 -40.57,545.47 -38.29,544.16 -35.88,543.12 -33.38,542.30 -30.83,541.67"/>
    </edge>
    <edge id=":132_3" function="internal">
        <lane id=":132_3_0" index="0" disallow="pedestrian tram rail_urban rail rail_electric rail_fast ship" speed="11.21" length="28.62" width="3.50" shape="-30.10,545.09 -32.33,545.64 -34.48,546.34 -36.53,547.23 -38.43,548.32 -40.16,549.66 -40.90,550.38 -41.59,551.18 -42.21,552.03 -42.75,552.93 -43.22,553.88 -43.60,554.88 -43.90,555.87 -44.30,558.04 -44.43,560.25 -44.32,562.48 -43.81,565.88"/>