<routes>
	<vehicle depart="0.1" departLane="0" departPos="58.77378751419622" departSpeed="0.0" id="34" type="bicycle">
		<route edges="184 156"/>
	</vehicle>
	<vehicle depart="0.1" departLane="0" departPos="83.98918858664314" departSpeed="6.8898745" id="346" type="bicycle">
		<route edges="57 19"/>
	</vehicle>
	<vehicle depart="0.1" departLane="0" departPos="52.1026909063367" departSpeed="6.9211725" id="363" type="bicycle">
		<route edges="57 19"/>
	</vehicle>
	<vehicle depart="0.1" departLane="0" departPos="39.70774359487711" departSpeed="3.0796201e-05" id="327" type="bus">
		<route edges="156 20"/>
	</vehicle>
	<vehicle depart="0.1" departLane="0" departPos="14.036791110710139" departSpeed="1.6491784" id="385" type="bus">
		<route edges="110 248"/>
	</vehicle>
	<vehicle depart="0.1" departLane="0" departPos="53.512042214298326" departSpeed="0.0" id="31" type="passenger">
		<route edges="156 20"/>
	</vehicle>
	<vehicle depart="0.1" departLane="0" departPos="31.965891996478863" departSpeed="13.834918" id="33" type="passenger">
		<route edges="301 120"/>
	</vehicle>
	<vehicle depart="0.1" departLane="0" departPos="23.29325714196146" departSpeed="0.0" id="36" type="passenger">
		<route edges="16 248"/>
	</vehicle>
	<vehicle depart="0.1" departLane="0" departPos="51.50419903262636" departSpeed="0.0" id="38" type="passenger">
		<route edges="14 17"/>
	</vehicle>
	<vehicle depart="0.1" departLane="0" departPos="46.808067483374295" departSpeed="0.0" id="312" type="passenger">
		<route edges="156 20"/>
	</vehicle>
	<vehicle depart="0.1" departLane="0" departPos="44.33895066623721" departSpeed="0.0" id="313" type="passenger">
		<route edges="14 17"/>
	</vehicle>
	<vehicle depart="0.1" departLane="0" departPos="60.42670310115261" departSpeed="0.0" id="315" type="passenger">
		<route edges="156 20"/>
	</vehicle>
	<vehicle depart="0.1" departLane="0" departPos="70.27087465106331" departSpeed="0.0" id="316" type="passenger">
		<route edges="121 300"/>
	</vehicle>
	<vehicle depart="0.1" departLane="0" departPos="2.5" departSpeed="6.3264783" id="320" type="passenger">
		<route edges=":56_0 120"/>
	</vehicle>
	<vehicle depart="0.1" departLane="0" departPos="53.85212011393053" departSpeed="0.0" id="321" type="passenger">
		<route edges="121 300"/>
	</vehicle>
	<vehicle depart="0.1" departLane="0" departPos="8.874508892443103" departSpeed="14.037891" id="325" type="passenger">
		<route edges=":61_5 160"/>
	</vehicle>
	<vehicle depart="0.1" departLane="0" departPos="37.55059842399954" departSpeed="1.2756276e-05" id="326" type="passenger">
		<route edges="121 300"/>
	</vehicle>
	<vehicle depart="0.1" departLane="0" departPos="11.737815567541634" departSpeed="13.655922" id="328" type="passenger">
		<route edges="301 304"/>
	</vehicle>
	<vehicle depart="0.1" departLane="0" departPos="32.51377589090801" departSpeed="0.0" id="331" type="passenger">
		<route edges="14 17"/>
	</vehicle>
	<vehicle depart="0.1" departLane="0" departPos="168.2258899909884" departSpeed="0.044905074" id="332" type="passenger">
		<route edges="57 19"/>
	</vehicle>
	<vehicle depart="0.1" departLane="0" departPos="53.89734706645573" departSpeed="0.0" id="336" type="passenger">
		<route edges="184 156"/>
	</vehicle>
	<vehicle depart="0.1" departLane="0" departPos="25.099672660636962" departSpeed="1.6956836e-05" id="338" type="passenger">
		<route edges="14 17"/>
	</vehicle>
	<vehicle depart="0.1" departLane="0" departPos="15.155609279984285" departSpeed="11.291316" id="339" type="passenger">
		<route edges="183"/>
	</vehicle>
	<vehicle depart="0.1" departLane="0" departPos="54.21755263967376" departSpeed="0.0" id="341" type="passenger">
		<route edges="303 120"/>
	</vehicle>
	<vehicle depart="0.1" departLane="0" departPos="161.12275815137738" departSpeed="0.43669458" id="342" type="passenger">
		<route edges="57 19"/>
	</vehicle>
	<vehicle depart="0.1" departLane="0" departPos="25.21122345470102" departSpeed="0.00038056633" id="343" type="passenger">
		<route edges="156 20"/>
	</vehicle>
	<vehicle depart="0.1" departLane="0" departPos="46.562131485412415" departSpeed="1.1793228e-05" id="344" type="passenger">
		<route edges="184 156"/>
	</vehicle>
	<vehicle depart="0.1" departLane="0" departPos="2.5" departSpeed="11.261539" id="347" type="passenger">
		<route edges=":55_0 20 301 304"/>
	</vehicle>
	<vehicle depart="0.1" departLane="0" departPos="17.685507740864487" departSpeed="0.00012564521" id="348" type="passenger">
		<route edges="14 17"/>
	</vehicle>
	<vehicle depart="0.1" departLane="0" departPos="20.90633446256956" departSpeed="0.0" id="349" type="passenger">
		<route edges="159 183"/>
	</vehicle>
	<vehicle depart="0.1" departLane="0" departPos="39.098742206660845" departSpeed="0.00013568217" id="350" type="passenger">
		<route edges="184 156"/>
	</vehicle>
	<vehicle depart="0.1" departLane="0" departPos="47.11573985093629" departSpeed="1.590233e-05" id="351" type="passenger">
		<route edges="303 120"/>
	</vehicle>
	<vehicle depart="0.1" departLane="0" departPos="13.996806644434711" departSpeed="0.0" id="352" type="passenger">
		<route edges="159 156 20"/>
	</vehicle>
	<vehicle depart="0.1" departLane="0" departPos="152.4411905857277" departSpeed="1.6535129" id="353" type="passenger">
		<route edges="57 19"/>
	</vehicle>
	<vehicle depart="0.1" departLane="0" departPos="70.15172092827856" departSpeed="0.0" id="354" type="passenger">
		<route edges="110 17 20 56"/>
	</vehicle>
	<vehicle depart="0.1" departLane="0" departPos="32.034583974019355" departSpeed="0.00093560211" id="355" type="passenger">
		<route edges="184 156"/>
	</vehicle>
	<vehicle depart="0.1" departLane="0" departPos="141.31858737882288" departSpeed="3.5918267" id="357" type="passenger">
		<route edges="57 19"/>
	</vehicle>
	<vehicle depart="0.1" departLane="0" departPos="10.35634423143714" departSpeed="0.00059646763" id="359" type="passenger">
		<route edges="14 17"/>
	</vehicle>
	<vehicle depart="0.1" departLane="0" departPos="25.061915922097914" departSpeed="0.0047022676" id="360" type="passenger">
		<route edges="184 156"/>
	</vehicle>
	<vehicle depart="0.1" departLane="0" departPos="127.61166532583749" departSpeed="5.6286577" id="361" type="passenger">
		<route edges="57 19"/>
	</vehicle>
	<vehicle depart="0.1" departLane="0" departPos="63.01987580853273" departSpeed="0.30061479" id="362" type="passenger">
		<route edges="110 17 157"/>
	</vehicle>
	<vehicle depart="0.1" departLane="0" departPos="40.413301533340494" departSpeed="0.00076746241" id="364" type="passenger">
		<route edges="303 120"/>
	</vehicle>
	<vehicle depart="0.1" departLane="0" departPos="17.866244147412" departSpeed="0.017178824" id="365" type="passenger">
		<route edges="184 156"/>
	</vehicle>
	<vehicle depart="0.1" departLane="0" departPos="54.674013633607025" departSpeed="1.2080685" id="367" type="passenger">
		<route edges="110 248"/>
	</vehicle>
	<vehicle depart="0.1" departLane="0" departPos="91.985243653291" departSpeed="14.826556" id="369" type="passenger">
		<route edges="57 19"/>
	</vehicle>
	<vehicle depart="0.1" departLane="0" departPos="45.00537074827223" departSpeed="2.3220141" id="371" type="passenger">
		<route edges="110 248"/>
	</vehicle>
	<vehicle depart="0.1" departLane="0" departPos="10.69684755510397" departSpeed="0.05318383" id="372" type="passenger">
		<route edges="184 156"/>
	</vehicle>
	<vehicle depart="0.1" departLane="0" departPos="61.50111509187509" departSpeed="17.128713" id="374" type="passenger">
		<route edges="57 19"/>
	</vehicle>
	<vehicle depart="0.1" departLane="0" departPos="34.49165598818345" departSpeed="3.0457653" id="375" type="passenger">
		<route edges="110 248"/>
	</vehicle>
	<vehicle depart="0.1" departLane="0" departPos="31.311964319198648" departSpeed="13.810763" id="377" type="passenger">
		<route edges="57 19"/>
	</vehicle>
	<vehicle depart="0.1" departLane="0" departPos="2.5" departSpeed="6.1875377" id="378" type="passenger">
		<route edges="17 20 301 304"/>
	</vehicle>
	<vehicle depart="0.1" departLane="0" departPos="23.302912486527823" departSpeed="3.6056706" id="379" type="passenger">
		<route edges="110 248"/>
	</vehicle>
	<vehicle depart="0.1" departLane="0" departPos="8.409788199019577" departSpeed="9.6056419" id="381" type="passenger">
		<route edges="57 19"/>
	</vehicle>
	<vehicle depart="0.1" departLane="0" departPos="2.5" departSpeed="5.2805014" id="382" type="passenger">
		<route edges=":59_7 17 20 301 304"/>
	</vehicle>
	<vehicle depart="0.1" departLane="0" departPos="8.042576339268813" departSpeed="3.1878728" id="384" type="passenger">
		<route edges="249 17 20 301"/>
	</vehicle>
	<vehicle depart="0.1" departLane="0" departPos="37.176094029762595" departSpeed="0.0" id="322" type="motorcycle">
		<route edges="14 17"/>
	</vehicle>
	<vehicle depart="0.1" departLane="0" departPos="58.73244272997354" departSpeed="0.0" id="333" type="motorcycle">
		<route edges="184 156"/>
	</vehicle>
	<vehicle depart="0.1" departLane="0" departPos="11.637020456150518" departSpeed="11.922677" id="337" type="motorcycle">
		<route edges="157 160"/>
	</vehicle>
	<vehicle depart="0.1" departLane="0" departPos="1.25" departSpeed="13.129787" id="340" type="motorcycle">
		<route edges="20 301 304"/>
	</vehicle>
	<vehicle depart="0.1" departLane="0" departPos="6.687112846930027" departSpeed="2.4432713e-05" id="358" type="motorcycle">
		<route edges="159 156 20"/>
	</vehicle>
	<vehicle depart="0.1" departLane="0" departPos="63.29688626927248" departSpeed="0.0" id="319" type="truck">
		<route edges="121 300"/>
	</vehicle>
	<vehicle depart="0.1" departLane="0" departPos="47.15132054799837" departSpeed="0.0" id="324" type="truck">
		<route edges="121 300"/>
	</vehicle>
</routes>
