<!-- generated on Tue Feb  9 22:12:19 2021 by Eclipse SUMO netconvert Version 1.8.0
<configuration xmlns:xsi="http://www.w3.org/2001/XMLSchema-instance" xsi:noNamespaceSchemaLocation="http://sumo.dlr.de/xsd/netconvertConfiguration.xsd">

    <input>
        <node-files value="./converted_scenarios/scenario-factory/HRV_Pula-3_4_I-1-1/HRV_Pula-3_4_I-1-1.nod.xml"/>
        <edge-files value="./converted_scenarios/scenario-factory/HRV_Pula-3_4_I-1-1/HRV_Pula-3_4_I-1-1.edg.xml"/>
        <connection-files value="./converted_scenarios/scenario-factory/HRV_Pula-3_4_I-1-1/HRV_Pula-3_4_I-1-1.con.xml"/>
        <tllogic-files value="./converted_scenarios/scenario-factory/HRV_Pula-3_4_I-1-1/HRV_Pula-3_4_I-1-1.tll.xml"/>
        <type-files value="/home/zen/commonroad-interactive-benchmarks/install/commonroad-map-tool/crmapconverter/sumo_map/templates/DEU.typ.xml"/>
    </input>

    <output>
        <output-file value="./converted_scenarios/scenario-factory/HRV_Pula-3_4_I-1-1/HRV_Pula-3_4_I-1-1.net.xml"/>
    </output>

    <processing>
        <geometry.remove.keep-edges.explicit value="true"/>
        <geometry.avoid-overlap value="true"/>
        <offset.disable-normalization value="true"/>
    </processing>

    <junctions>
        <no-turnarounds value="true"/>
        <junctions.internal-link-detail value="20"/>
    </junctions>

    <report>
        <aggregate-warnings value="5"/>
    </report>

    <random_number>
        <seed value="1234"/>
    </random_number>

</configuration>
--><net xmlns:xsi="http://www.w3.org/2001/XMLSchema-instance" version="1.6" junctionCornerDetail="5" junctionLinkDetail="20" limitTurnSpeed="5.50" xsi:noNamespaceSchemaLocation="http://sumo.dlr.de/xsd/net_file.xsd">

    <location netOffset="0.00,0.00" convBoundary="-37.76,589.77,280.98,928.34" origBoundary="-37.76,589.77,280.98,928.34" projParameter="!"/>

    <type id="highway.bridleway" priority="1" speed="2.78" allow="pedestrian" oneway="1" width="2.00"/>
    <type id="highway.bus_guideway" priority="1" speed="27.78" allow="bus" oneway="1"/>
    <type id="highway.cycleway" priority="1" speed="8.33" allow="bicycle" oneway="0" width="1.00"/>
    <type id="highway.footway" priority="1" speed="2.78" allow="pedestrian" oneway="1" width="2.00"/>
    <type id="highway.ford" priority="1" speed="2.78" allow="army" oneway="0"/>
    <type id="highway.living_street" priority="2" speed="2.78" disallow="tram rail_urban rail rail_electric rail_fast ship" oneway="0"/>
    <type id="highway.motorway" priority="14" speed="39.44" allow="private emergency authority army vip passenger hov taxi bus coach delivery truck trailer motorcycle evehicle custom1 custom2" oneway="1"/>
    <type id="highway.motorway_link" priority="9" speed="22.22" allow="private emergency authority army vip passenger hov taxi bus coach delivery truck trailer motorcycle evehicle custom1 custom2" oneway="1"/>
    <type id="highway.path" priority="1" speed="2.78" allow="pedestrian bicycle" oneway="0" width="2.00"/>
    <type id="highway.pedestrian" priority="1" speed="2.78" allow="pedestrian" oneway="1" width="2.00"/>
    <type id="highway.primary" priority="12" speed="27.78" disallow="pedestrian tram rail_urban rail rail_electric rail_fast ship" oneway="0"/>
    <type id="highway.primary_link" priority="7" speed="22.22" disallow="pedestrian tram rail_urban rail rail_electric rail_fast ship" oneway="0"/>
    <type id="highway.raceway" priority="15" speed="83.33" allow="vip" oneway="0"/>
    <type id="highway.residential" priority="3" speed="13.89" disallow="pedestrian tram rail_urban rail rail_electric rail_fast ship" oneway="0"/>
    <type id="highway.secondary" priority="11" speed="27.78" disallow="pedestrian tram rail_urban rail rail_electric rail_fast ship" oneway="0"/>
    <type id="highway.secondary_link" priority="6" speed="22.22" disallow="pedestrian tram rail_urban rail rail_electric rail_fast ship" oneway="0"/>
    <type id="highway.service" priority="1" speed="5.56" allow="pedestrian delivery bicycle" oneway="0"/>
    <type id="highway.stairs" priority="1" speed="1.39" allow="pedestrian" oneway="1" width="2.00"/>
    <type id="highway.step" priority="1" speed="1.39" allow="pedestrian" oneway="1" width="2.00"/>
    <type id="highway.steps" priority="1" speed="1.39" allow="pedestrian" oneway="1" width="2.00"/>
    <type id="highway.tertiary" priority="10" speed="22.22" disallow="pedestrian tram rail_urban rail rail_electric rail_fast ship" oneway="0"/>
    <type id="highway.tertiary_link" priority="5" speed="22.22" disallow="pedestrian tram rail_urban rail rail_electric rail_fast ship" oneway="0"/>
    <type id="highway.track" priority="1" speed="5.56" allow="pedestrian motorcycle moped bicycle" oneway="0"/>
    <type id="highway.trunk" priority="13" speed="27.78" disallow="pedestrian bicycle tram rail_urban rail rail_electric rail_fast ship" oneway="0"/>
    <type id="highway.trunk_link" priority="8" speed="22.22" disallow="pedestrian bicycle tram rail_urban rail rail_electric rail_fast ship" oneway="0"/>
    <type id="highway.unclassified" priority="4" speed="13.89" disallow="pedestrian tram rail_urban rail rail_electric rail_fast ship" oneway="0"/>
    <type id="highway.unsurfaced" priority="1" speed="8.33" disallow="tram rail_urban rail rail_electric rail_fast ship" oneway="0"/>
    <type id="railway.highspeed" priority="21" speed="69.44" allow="rail_fast" oneway="1"/>
    <type id="railway.light_rail" priority="19" speed="27.78" allow="rail_urban" oneway="1"/>
    <type id="railway.preserved" priority="16" speed="27.78" allow="rail" oneway="1"/>
    <type id="railway.rail" priority="20" speed="44.44" allow="rail" oneway="1"/>
    <type id="railway.subway" priority="18" speed="27.78" allow="rail_urban" oneway="1"/>
    <type id="railway.tram" priority="17" speed="13.89" allow="tram" oneway="1"/>

    <edge id=":101_0" function="internal">
        <lane id=":101_0_0" index="0" disallow="pedestrian tram rail_urban rail rail_electric rail_fast ship" speed="31.25" length="25.74" width="3.50" shape="72.11,689.82 70.36,687.29 67.84,684.02 65.12,680.92 62.23,678.01 58.35,674.61 54.24,671.51"/>
    </edge>
    <edge id=":101_1" function="internal">
        <lane id=":101_1_0" index="0" disallow="pedestrian tram rail_urban rail rail_electric rail_fast ship" speed="10.72" length="24.90" width="3.50" shape="72.10,689.82 71.42,688.58 70.91,687.21 70.63,685.77 70.60,684.31 70.78,682.89 71.14,681.55 71.63,680.29 72.22,679.11 72.90,677.98 74.38,675.95 76.03,674.08 78.66,671.54 81.44,669.21"/>
    </edge>
    <edge id=":101_2" function="internal">
        <lane id=":101_2_0" index="0" disallow="pedestrian tram rail_urban rail rail_electric rail_fast ship" speed="9.57" length="19.71" width="3.50" shape="83.60,671.97 81.22,673.95 78.95,676.08 77.54,677.60 76.25,679.24 75.67,680.10 75.15,681.00 74.71,681.94 74.37,682.92 74.15,683.94 74.09,684.97 74.22,686.00 74.54,686.99 75.03,687.90"/>
    </edge>
    <edge id=":101_3" function="internal">
        <lane id=":101_3_0" index="0" disallow="pedestrian tram rail_urban rail rail_electric rail_fast ship" speed="13.63" length="31.80" width="3.50" shape="83.60,671.97 81.65,673.38 79.55,674.63 77.31,675.67 74.96,676.45 72.51,676.94 70.02,677.12 67.54,677.00 65.10,676.58 62.74,675.92 60.46,675.04 57.25,673.42 54.24,671.51"/>
    </edge>
    <edge id=":101_4" function="internal">
        <lane id=":101_4_0" index="0" disallow="pedestrian tram rail_urban rail rail_electric rail_fast ship" speed="12.68" length="27.40" width="3.50" shape="56.18,668.60 58.90,670.33 61.71,671.76 63.67,672.52 65.69,673.10 67.76,673.47 69.86,673.59 71.96,673.45 74.02,673.05 76.02,672.39 77.93,671.51 79.74,670.44 81.44,669.21"/>
    </edge>
    <edge id=":101_5" function="internal">
        <lane id=":101_5_0" index="0" disallow="pedestrian tram rail_urban rail rail_electric rail_fast ship" speed="32.54" length="27.15" width="3.50" shape="56.18,668.59 60.56,671.89 64.63,675.46 67.68,678.54 70.54,681.80 73.19,685.23 75.03,687.90"/>
    </edge>
    <edge id=":102_0" function="internal">
        <lane id=":102_0_0" index="0" disallow="pedestrian tram rail_urban rail rail_electric rail_fast ship" speed="10.13" length="30.21" width="3.50" shape="145.94,858.29 146.30,856.12 146.47,853.79 146.45,852.62 146.33,851.46 146.12,850.31 145.79,849.19 145.33,848.12 144.73,847.11 144.01,846.20 143.17,845.39 142.23,844.70 141.21,844.12 140.14,843.65 139.04,843.28 136.76,842.78 134.44,842.53 132.10,842.47 128.61,842.66 127.45,842.78"/>
    </edge>
    <edge id=":102_1" function="internal">
        <lane id=":102_1_0" index="0" disallow="pedestrian tram rail_urban rail rail_electric rail_fast ship" speed="13.86" length="32.33" width="3.50" shape="145.94,858.30 146.76,854.91 147.84,851.47 149.21,848.14 150.93,844.96 152.30,842.99 153.86,841.16 155.63,839.53 157.58,838.14 159.71,837.02 161.97,836.19 164.31,835.66 165.50,835.49"/>
    </edge>
    <edge id=":102_2" function="internal">
        <lane id=":102_2_0" index="0" disallow="pedestrian tram rail_urban rail rail_electric rail_fast ship" speed="12.92" length="28.08" width="3.50" shape="165.90,838.97 164.91,839.11 162.92,839.57 161.04,840.27 159.28,841.23 157.66,842.42 156.19,843.82 154.88,845.40 153.73,847.11 152.25,849.92 151.06,852.89 150.10,855.98 149.34,859.15"/>
    </edge>
    <edge id=":102_3" function="internal">
        <lane id=":102_3_0" index="0" disallow="pedestrian tram rail_urban rail rail_electric rail_fast ship" speed="36.11" length="38.64" width="3.50" shape="165.90,838.97 145.08,841.00 127.45,842.78"/>
    </edge>
    <edge id=":102_4" function="internal">
        <lane id=":102_4_0" index="0" disallow="pedestrian tram rail_urban rail rail_electric rail_fast ship" speed="36.11" length="38.73" width="3.50" shape="126.96,839.31 144.71,837.52 165.50,835.49"/>
    </edge>
    <edge id=":102_5" function="internal">
        <lane id=":102_5_0" index="0" disallow="pedestrian tram rail_urban rail rail_electric rail_fast ship" speed="11.21" length="37.32" width="3.50" shape="126.96,839.31 128.41,839.17 132.43,838.96 135.19,839.03 137.96,839.36 140.69,840.00 142.09,840.49 143.43,841.12 144.71,841.89 145.91,842.83 146.99,843.92 147.91,845.15 148.66,846.49 149.22,847.89 149.62,849.33 149.87,850.77 149.99,852.21 150.01,853.66 149.80,856.42 149.34,859.15"/>
    </edge>
    <edge id=":103_0" function="internal">
        <lane id=":103_0_0" index="0" disallow="pedestrian tram rail_urban rail rail_electric rail_fast ship" speed="11.78" length="30.56" width="3.50" shape="70.68,877.01 70.37,875.98 69.59,873.90 68.62,871.97 67.42,870.21 65.96,868.64 65.19,867.98 64.34,867.37 63.48,866.84 61.52,865.95 59.47,865.35 57.32,865.00 55.11,864.86 52.89,864.92 49.49,865.30 46.12,865.96"/>
    </edge>
    <edge id=":103_1" function="internal">
        <lane id=":103_1_0" index="0" disallow="pedestrian tram rail_urban rail rail_electric rail_fast ship" speed="36.11" length="41.02" width="3.50" shape="70.68,877.01 68.89,871.13 66.82,865.34 64.07,858.70 60.99,852.22 57.61,845.88 53.96,839.70"/>
    </edge>
    <edge id=":103_2" function="internal">
        <lane id=":103_2_0" index="0" disallow="pedestrian tram rail_urban rail rail_electric rail_fast ship" speed="12.46" length="34.08" width="3.50" shape="70.68,877.01 69.87,873.30 69.57,870.72 69.54,868.11 69.83,865.47 70.48,862.91 70.97,861.62 71.55,860.40 72.24,859.23 73.03,858.10 74.79,856.13 76.80,854.41 78.98,852.97 81.28,851.77 84.82,850.35"/>
    </edge>
    <edge id=":103_3" function="internal">
        <lane id=":103_3_0" index="0" disallow="pedestrian tram rail_urban rail rail_electric rail_fast ship" speed="11.48" length="28.74" width="3.50" shape="85.95,853.66 82.87,854.89 80.91,855.92 79.07,857.14 77.38,858.57 75.91,860.22 75.28,861.13 74.72,862.08 74.25,863.08 73.85,864.11 73.30,866.25 73.06,868.45 73.09,870.66 73.34,872.85 74.05,876.09"/>
    </edge>
    <edge id=":103_4" function="internal">
        <lane id=":103_4_0" index="0" disallow="pedestrian tram rail_urban rail rail_electric rail_fast ship" speed="36.11" length="41.70" width="3.50" shape="85.95,853.66 67.15,859.89 55.19,863.55 47.14,865.71 46.12,865.96"/>
    </edge>
    <edge id=":103_5" function="internal">
        <lane id=":103_5_0" index="0" disallow="pedestrian tram rail_urban rail rail_electric rail_fast ship" speed="14.13" length="38.25" width="3.50" shape="85.95,853.66 82.38,854.66 79.95,855.07 77.49,855.25 75.02,855.17 72.58,854.82 70.20,854.19 67.90,853.28 65.72,852.13 63.66,850.77 61.74,849.22 59.11,846.62 56.74,843.77 54.62,840.74 53.96,839.70"/>
    </edge>
    <edge id=":103_6" function="internal">
        <lane id=":103_6_0" index="0" disallow="pedestrian tram rail_urban rail rail_electric rail_fast ship" speed="13.25" length="33.50" width="3.50" shape="56.94,837.86 57.52,838.79 59.45,841.54 61.56,844.10 63.90,846.42 65.56,847.78 67.34,848.98 69.22,849.99 71.18,850.78 73.22,851.33 75.30,851.65 77.42,851.73 79.55,851.58 81.66,851.23 84.82,850.35"/>
    </edge>
    <edge id=":103_7" function="internal">
        <lane id=":103_7_0" index="0" disallow="pedestrian tram rail_urban rail rail_electric rail_fast ship" speed="36.11" length="42.02" width="3.50" shape="56.94,837.86 60.67,844.18 64.12,850.66 67.28,857.31 70.10,864.10 72.22,870.05 74.05,876.09"/>
    </edge>
    <edge id=":103_8" function="internal">
        <lane id=":103_8_0" index="0" disallow="pedestrian tram rail_urban rail rail_electric rail_fast ship" speed="11.41" length="37.76" width="3.50" shape="56.94,837.86 58.32,840.24 59.56,842.73 60.60,845.35 61.35,848.08 61.60,849.56 61.71,851.04 61.67,852.55 61.46,854.07 61.05,855.57 60.45,857.00 59.66,858.34 58.71,859.55 57.65,860.64 56.50,861.59 55.29,862.42 54.01,863.15 51.45,864.33 48.80,865.24 46.12,865.96"/>
    </edge>
    <edge id=":103_9" function="internal">
        <lane id=":103_9_0" index="0" disallow="pedestrian tram rail_urban rail rail_electric rail_fast ship" speed="10.35" length="30.84" width="3.50" shape="45.34,862.54 47.63,861.94 49.88,861.16 52.03,860.17 53.06,859.57 54.03,858.90 54.95,858.14 55.77,857.29 56.49,856.35 57.09,855.32 57.54,854.22 57.84,853.08 58.00,851.90 58.02,850.72 57.93,849.53 57.73,848.36 57.09,846.08 56.21,843.87 55.15,841.75 53.96,839.70"/>
    </edge>
    <edge id=":103_10" function="internal">
        <lane id=":103_10_0" index="0" disallow="pedestrian tram rail_urban rail rail_electric rail_fast ship" speed="36.11" length="41.33" width="3.50" shape="45.34,862.54 46.31,862.31 54.28,860.17 66.14,856.54 84.82,850.35"/>
    </edge>
    <edge id=":103_11" function="internal">
        <lane id=":103_11_0" index="0" disallow="pedestrian tram rail_urban rail rail_electric rail_fast ship" speed="12.75" length="35.98" width="3.50" shape="45.34,862.54 49.12,861.81 52.96,861.40 55.53,861.35 58.09,861.52 60.63,861.96 63.08,862.71 65.40,863.81 66.49,864.49 67.53,865.26 68.49,866.11 70.21,868.02 71.64,870.15 72.79,872.45 73.69,874.86 74.05,876.09"/>
    </edge>
    <edge id=":104_0" function="internal">
        <lane id=":104_0_0" index="0" disallow="pedestrian tram rail_urban rail rail_electric rail_fast ship" speed="11.41" length="28.83" width="3.50" shape="20.95,786.21 19.67,784.29 18.26,782.51 16.72,780.91 15.02,779.52 13.14,778.39 12.19,777.96 11.19,777.60 10.16,777.32 9.11,777.13 8.08,777.03 5.88,777.07 3.70,777.41 1.55,778.00 -0.56,778.80 -3.67,780.35"/>
    </edge>
    <edge id=":104_1" function="internal">
        <lane id=":104_1_0" index="0" disallow="pedestrian tram rail_urban rail rail_electric rail_fast ship" speed="36.11" length="29.41" width="3.50" shape="20.95,786.21 13.22,773.69 5.50,761.18"/>
    </edge>
    <edge id=":104_2" function="internal">
        <lane id=":104_2_0" index="0" disallow="pedestrian tram rail_urban rail rail_electric rail_fast ship" speed="36.11" length="29.38" width="3.50" shape="8.48,759.35 16.20,771.85 23.92,784.35"/>
    </edge>
    <edge id=":104_3" function="internal">
        <lane id=":104_3_0" index="0" disallow="pedestrian tram rail_urban rail rail_electric rail_fast ship" speed="10.81" length="27.44" width="3.50" shape="8.48,759.34 9.13,760.54 9.64,761.85 9.98,763.24 10.09,764.69 9.98,766.13 9.66,767.51 9.18,768.81 8.55,770.02 7.81,771.16 6.19,773.12 4.38,774.86 2.45,776.43 -0.55,778.49 -3.67,780.35"/>
    </edge>
    <edge id=":104_4" function="internal">
        <lane id=":104_4_0" index="0" disallow="pedestrian tram rail_urban rail rail_electric rail_fast ship" speed="9.66" length="21.77" width="3.50" shape="-5.38,777.29 -2.69,775.71 -0.11,773.97 1.53,772.70 3.07,771.32 4.46,769.78 5.08,768.95 5.62,768.07 6.06,767.13 6.37,766.14 6.54,765.12 6.53,764.09 6.34,763.07 5.99,762.09 5.50,761.18"/>
    </edge>
    <edge id=":104_5" function="internal">
        <lane id=":104_5_0" index="0" disallow="pedestrian tram rail_urban rail rail_electric rail_fast ship" speed="12.39" length="34.23" width="3.50" shape="-5.38,777.29 -1.83,775.54 0.63,774.60 3.17,773.90 5.77,773.50 8.40,773.46 9.71,773.59 11.01,773.83 12.28,774.18 13.51,774.62 14.71,775.17 16.96,776.54 18.99,778.21 20.82,780.10 22.45,782.16 23.92,784.35"/>
    </edge>
    <edge id=":93_0" function="internal">
        <lane id=":93_0_0" index="0" disallow="pedestrian tram rail_urban rail rail_electric rail_fast ship" speed="10.92" length="29.44" width="3.50" shape="131.10,662.00 129.95,659.92 128.66,657.98 127.22,656.20 125.57,654.62 124.72,653.97 123.80,653.38 122.84,652.87 121.85,652.47 120.82,652.16 119.77,651.96 118.70,651.86 117.61,651.86 116.54,651.95 114.31,652.39 112.14,653.12 110.03,654.07 106.92,655.85"/>
    </edge>
    <edge id=":93_1" function="internal">
        <lane id=":93_1_0" index="0" disallow="pedestrian tram rail_urban rail rail_electric rail_fast ship" speed="36.11" length="39.85" width="3.50" shape="131.10,662.00 130.16,660.16 124.32,649.28 119.68,641.30 115.81,635.30 112.85,631.22 110.23,628.16"/>
    </edge>
    <edge id=":93_2" function="internal">
        <lane id=":93_2_0" index="0" disallow="pedestrian tram rail_urban rail rail_electric rail_fast ship" speed="36.11" length="40.94" width="3.50" shape="112.70,625.68 115.52,628.96 118.61,633.19 122.57,639.34 127.32,647.47 133.25,658.53 134.21,660.39"/>
    </edge>
    <edge id=":93_3" function="internal">
        <lane id=":93_3_0" index="0" disallow="pedestrian tram rail_urban rail rail_electric rail_fast ship" speed="11.79" length="37.09" width="3.50" shape="112.70,625.68 114.62,627.84 116.25,630.03 117.63,632.39 118.20,633.63 118.67,634.91 119.03,636.23 119.26,637.58 119.35,638.94 119.29,640.31 119.08,641.66 118.73,642.98 118.25,644.26 117.65,645.49 116.96,646.67 115.32,648.85 113.44,650.84 111.39,652.65 108.09,655.08 106.92,655.85"/>
    </edge>
    <edge id=":93_4" function="internal">
        <lane id=":93_4_0" index="0" disallow="pedestrian tram rail_urban rail rail_electric rail_fast ship" speed="10.76" length="30.67" width="3.50" shape="105.02,652.91 106.05,652.24 108.96,650.09 110.73,648.55 112.33,646.88 113.72,645.04 114.28,644.11 114.76,643.13 115.16,642.13 115.44,641.10 115.62,640.06 115.68,639.01 115.62,637.95 115.46,636.89 115.18,635.85 114.81,634.81 114.37,633.82 113.21,631.83 111.83,629.96 110.23,628.16"/>
    </edge>
    <edge id=":93_5" function="internal">
        <lane id=":93_5_0" index="0" disallow="pedestrian tram rail_urban rail rail_electric rail_fast ship" speed="11.93" length="35.40" width="3.50" shape="105.02,652.91 108.60,650.86 111.08,649.75 113.66,648.89 116.33,648.36 117.68,648.25 119.04,648.25 120.40,648.38 121.73,648.64 123.03,649.03 124.29,649.55 125.49,650.18 126.64,650.92 127.71,651.75 129.67,653.64 131.38,655.75 132.89,658.01 134.21,660.39"/>
    </edge>
    <edge id=":94_0" function="internal">
        <lane id=":94_0_0" index="0" disallow="pedestrian tram rail_urban rail rail_electric rail_fast ship" speed="36.11" length="38.92" width="3.50" shape="160.52,726.45 156.05,716.05 148.67,698.08 145.33,690.62"/>
    </edge>
    <edge id=":94_1" function="internal">
        <lane id=":94_1_0" index="0" disallow="pedestrian tram rail_urban rail rail_electric rail_fast ship" speed="12.25" length="34.45" width="3.50" shape="160.52,726.45 159.97,725.18 159.10,722.76 158.45,720.22 158.09,717.59 158.09,714.93 158.25,713.55 158.52,712.21 158.90,710.89 159.40,709.62 160.00,708.39 160.71,707.20 162.31,705.09 164.17,703.21 166.19,701.56 168.35,700.12 171.69,698.29"/>
    </edge>
    <edge id=":94_2" function="internal">
        <lane id=":94_2_0" index="0" disallow="pedestrian tram rail_urban rail rail_electric rail_fast ship" speed="11.25" length="28.90" width="3.50" shape="173.23,701.43 170.30,703.03 168.46,704.26 166.73,705.66 165.16,707.23 163.81,709.00 163.23,709.95 162.74,710.95 162.33,711.98 162.01,713.05 161.79,714.14 161.65,715.24 161.64,717.46 161.93,719.66 162.48,721.82 163.24,723.91 163.68,724.93"/>
    </edge>
    <edge id=":94_3" function="internal">
        <lane id=":94_3_0" index="0" disallow="pedestrian tram rail_urban rail rail_electric rail_fast ship" speed="12.20" length="34.44" width="3.50" shape="173.23,701.43 170.81,702.50 168.31,703.37 165.73,703.98 163.09,704.25 161.77,704.25 160.45,704.13 159.14,703.91 157.86,703.57 156.62,703.11 155.42,702.55 154.27,701.89 153.19,701.13 151.19,699.39 149.43,697.41 147.89,695.26 145.91,691.81 145.33,690.62"/>
    </edge>
    <edge id=":94_4" function="internal">
        <lane id=":94_4_0" index="0" disallow="pedestrian tram rail_urban rail rail_electric rail_fast ship" speed="11.19" length="28.82" width="3.50" shape="148.48,689.10 148.99,690.15 150.73,693.18 152.04,695.01 153.51,696.68 155.18,698.15 156.04,698.75 156.96,699.29 157.92,699.75 158.91,700.12 159.93,700.39 160.98,700.58 162.04,700.67 163.09,700.68 165.29,700.46 167.46,699.95 169.60,699.21 171.69,698.29"/>
    </edge>
    <edge id=":94_5" function="internal">
        <lane id=":94_5_0" index="0" disallow="pedestrian tram rail_urban rail rail_electric rail_fast ship" speed="36.11" length="38.92" width="3.50" shape="148.48,689.10 151.87,696.65 159.25,714.64 163.68,724.93"/>
    </edge>
    <edge id=":95_0" function="internal">
        <lane id=":95_0_0" index="0" disallow="pedestrian tram rail_urban rail rail_electric rail_fast ship" speed="10.59" length="30.36" width="3.50" shape="183.94,781.12 183.72,779.96 183.09,777.63 182.18,775.45 181.64,774.49 181.01,773.58 180.29,772.76 179.49,772.05 178.60,771.45 177.65,770.98 176.63,770.63 175.55,770.39 174.43,770.27 173.29,770.24 172.14,770.30 169.75,770.66 167.41,771.26 163.89,772.50 160.48,774.02"/>
    </edge>
    <edge id=":95_1" function="internal">
        <lane id=":95_1_0" index="0" disallow="pedestrian tram rail_urban rail rail_electric rail_fast ship" speed="36.11" length="43.81" width="3.50" shape="183.94,781.12 183.09,777.14 181.69,772.24 179.66,766.47 176.97,759.87 173.14,751.54 168.55,742.44 167.59,740.64"/>
    </edge>
    <edge id=":95_2" function="internal">
        <lane id=":95_2_0" index="0" disallow="pedestrian tram rail_urban rail rail_electric rail_fast ship" speed="16.39" length="39.99" width="3.50" shape="183.94,781.12 183.32,776.70 183.00,772.24 183.01,768.85 183.27,765.45 183.82,762.07 184.71,758.74 185.97,755.52 187.63,752.45 189.67,749.63 192.06,747.09 194.74,744.89"/>
    </edge>
    <edge id=":95_3" function="internal">
        <lane id=":95_3_0" index="0" disallow="pedestrian tram rail_urban rail rail_electric rail_fast ship" speed="15.58" length="36.10" width="3.50" shape="196.81,747.71 194.42,749.68 192.30,751.94 190.51,754.46 189.06,757.19 187.97,760.09 187.19,763.08 186.72,766.14 186.50,769.23 186.51,772.33 186.81,776.44 187.39,780.52"/>
    </edge>
    <edge id=":95_4" function="internal">
        <lane id=":95_4_0" index="0" disallow="pedestrian tram rail_urban rail rail_electric rail_fast ship" speed="36.11" length="44.95" width="3.50" shape="196.81,747.71 192.71,750.80 181.43,759.96 174.85,765.12 169.67,768.76 165.16,771.55 160.48,774.02"/>
    </edge>
    <edge id=":95_5" function="internal">
        <lane id=":95_5_0" index="0" disallow="pedestrian tram rail_urban rail rail_electric rail_fast ship" speed="11.82" length="35.74" width="3.50" shape="196.81,747.71 194.53,749.25 192.14,750.61 189.63,751.74 187.01,752.55 185.66,752.81 184.29,752.95 182.92,752.97 181.55,752.84 180.20,752.58 178.89,752.17 177.62,751.64 176.41,750.98 175.27,750.21 173.18,748.43 171.33,746.40 169.70,744.18 167.59,740.64"/>
    </edge>
    <edge id=":95_6" function="internal">
        <lane id=":95_6_0" index="0" disallow="pedestrian tram rail_urban rail rail_electric rail_fast ship" speed="10.79" length="29.60" width="3.50" shape="170.68,738.99 172.52,742.08 173.90,743.96 175.45,745.68 177.19,747.16 178.09,747.76 179.04,748.28 180.04,748.71 181.06,749.03 182.11,749.23 183.18,749.33 184.26,749.32 185.35,749.21 186.42,749.01 188.62,748.33 190.73,747.38 192.77,746.21 194.74,744.89"/>
    </edge>
    <edge id=":95_7" function="internal">
        <lane id=":95_7_0" index="0" disallow="pedestrian tram rail_urban rail rail_electric rail_fast ship" speed="36.11" length="44.92" width="3.50" shape="170.68,738.99 171.66,740.84 176.33,750.10 180.23,758.60 182.98,765.37 185.06,771.30 186.51,776.37 187.39,780.52"/>
    </edge>
    <edge id=":95_8" function="internal">
        <lane id=":95_8_0" index="0" disallow="pedestrian tram rail_urban rail rail_electric rail_fast ship" speed="13.10" length="42.10" width="3.50" shape="170.68,738.99 171.80,741.22 173.24,744.64 174.35,748.22 174.85,750.73 175.11,753.29 175.06,755.89 174.67,758.48 173.92,761.00 172.82,763.38 171.40,765.58 169.72,767.56 167.86,769.32 165.85,770.88 163.74,772.26 160.48,774.02"/>
    </edge>
    <edge id=":95_9" function="internal">
        <lane id=":95_9_0" index="0" disallow="pedestrian tram rail_urban rail rail_electric rail_fast ship" speed="12.17" length="36.20" width="3.50" shape="159.11,770.79 161.85,769.31 163.69,768.10 165.43,766.74 167.03,765.23 168.45,763.54 169.64,761.68 170.56,759.68 171.18,757.56 171.49,755.38 171.52,753.17 171.30,750.98 170.86,748.82 169.87,745.66 168.58,742.61 167.59,740.64"/>
    </edge>
    <edge id=":95_10" function="internal">
        <lane id=":95_10_0" index="0" disallow="pedestrian tram rail_urban rail rail_electric rail_fast ship" speed="36.11" length="44.14" width="3.50" shape="159.11,770.79 163.49,768.47 167.88,765.76 172.94,762.20 179.43,757.10 190.63,747.98 194.74,744.89"/>
    </edge>
    <edge id=":95_11" function="internal">
        <lane id=":95_11_0" index="0" disallow="pedestrian tram rail_urban rail rail_electric rail_fast ship" speed="11.63" length="36.87" width="3.50" shape="159.12,770.80 162.85,769.14 166.89,767.74 169.66,767.06 172.48,766.67 173.91,766.61 175.33,766.67 176.75,766.87 178.13,767.21 179.46,767.72 180.72,768.40 181.88,769.23 182.92,770.20 183.84,771.29 184.63,772.48 185.32,773.73 186.38,776.37 187.12,779.13 187.39,780.52"/>
    </edge>
    <edge id=":96_0" function="internal">
        <lane id=":96_0_0" index="0" disallow="pedestrian tram rail_urban rail rail_electric rail_fast ship" speed="36.11" length="38.35" width="3.50" shape="211.81,834.43 182.88,837.15 173.64,838.12"/>
    </edge>
    <edge id=":96_1" function="internal">
        <lane id=":96_1_0" index="0" disallow="pedestrian tram rail_urban rail rail_electric rail_fast ship" speed="12.31" length="34.72" width="3.50" shape="211.81,834.44 207.88,834.58 205.32,834.42 202.79,834.01 200.32,833.31 197.98,832.26 196.87,831.61 195.83,830.87 194.84,830.05 193.93,829.15 192.33,827.14 191.04,824.92 190.04,822.56 189.28,820.11 188.54,816.33 188.38,815.06"/>
    </edge>
    <edge id=":96_2" function="internal">
        <lane id=":96_2_0" index="0" disallow="pedestrian tram rail_urban rail rail_electric rail_fast ship" speed="11.31" length="29.16" width="3.50" shape="191.86,814.68 192.00,815.76 192.64,819.09 193.28,821.17 194.13,823.16 195.19,824.99 196.52,826.65 197.23,827.36 198.03,828.03 198.87,828.62 199.74,829.14 201.69,830.01 203.74,830.60 205.88,830.94 208.06,831.08 211.45,830.95"/>
    </edge>
    <edge id=":96_3" function="internal">
        <lane id=":96_3_0" index="0" disallow="pedestrian tram rail_urban rail rail_electric rail_fast ship" speed="12.14" length="33.95" width="3.50" shape="191.86,814.68 192.05,817.19 192.07,819.74 191.85,822.30 191.35,824.86 190.52,827.34 189.95,828.59 189.28,829.76 188.51,830.88 187.65,831.92 186.70,832.88 185.68,833.76 184.59,834.54 183.43,835.25 181.08,836.36 178.62,837.18 176.13,837.76 173.64,838.12"/>
    </edge>
    <edge id=":96_4" function="internal">
        <lane id=":96_4_0" index="0" disallow="pedestrian tram rail_urban rail rail_electric rail_fast ship" speed="11.14" length="28.39" width="3.50" shape="173.24,834.64 175.40,834.33 177.53,833.84 179.60,833.14 181.57,832.21 182.50,831.64 183.39,831.00 184.21,830.28 184.98,829.50 185.67,828.66 186.29,827.76 186.83,826.81 187.28,825.82 187.97,823.74 188.38,821.60 188.56,819.42 188.55,817.24 188.38,815.06"/>
    </edge>
    <edge id=":96_5" function="internal">
        <lane id=":96_5_0" index="0" disallow="pedestrian tram rail_urban rail rail_electric rail_fast ship" speed="36.11" length="38.39" width="3.50" shape="173.24,834.64 182.52,833.66 211.45,830.95"/>
    </edge>
    <edge id=":97_0" function="internal">
        <lane id=":97_0_0" index="0" disallow="pedestrian tram rail_urban rail rail_electric rail_fast ship" speed="11.46" length="27.61" width="3.50" shape="87.36,712.62 86.22,710.96 84.79,709.39 83.12,708.05 82.21,707.49 81.26,707.02 80.27,706.62 78.21,706.07 76.09,705.81 73.96,705.82 71.84,706.03 68.70,706.67 65.64,707.60 62.65,708.74"/>
    </edge>
    <edge id=":97_1" function="internal">
        <lane id=":97_1_0" index="0" disallow="pedestrian tram rail_urban rail rail_electric rail_fast ship" speed="36.11" length="27.21" width="3.50" shape="87.37,712.62 83.50,706.51 72.23,690.01"/>
    </edge>
    <edge id=":97_2" function="internal">