<routes>
	<vehicle depart="0.1" departLane="0" departPos="6.924702349750437" departSpeed="0.64380673" id="314" type="passenger">
		<route edges=":35_4 1629"/>
	</vehicle>
	<vehicle depart="0.1" departLane="0" departPos="43.15618194665791" departSpeed="0.96359317" id="318" type="passenger">
		<route edges="1632 1754"/>
	</vehicle>
	<vehicle depart="0.1" departLane="0" departPos="69.96356990227366" departSpeed="0.0" id="320" type="passenger">
		<route edges="1753 1633"/>
	</vehicle>
	<vehicle depart="0.1" departLane="0" departPos="62.4862343394892" departSpeed="0.0" id="321" type="passenger">
		<route edges="1753 1633"/>
	</vehicle>
	<vehicle depart="0.1" departLane="0" departPos="35.324632421708024" departSpeed="1.1250794" id="336" type="passenger">
		<route edges="1632 1754"/>
	</vehicle>
	<vehicle depart="0.1" departLane="0" departPos="28.034539290612415" departSpeed="0.65570839" id="343" type="passenger">
		<route edges="1632 1754"/>
	</vehicle>
	<vehicle depart="0.1" departLane="0" departPos="9.417367865268393" departSpeed="11.721194" id="328" type="motorcycle">
		<route edges=":35_2 1754"/>
	</vehicle>
	<vehicle depart="0.1" departLane="0" departPos="58.909169627386966" departSpeed="1.1428985" id="330" type="truck">
		<route edges="1632 1754"/>
	</vehicle>
</routes>
