<!-- generated on 2020-12-18 15:58:38.989813 by ipykernel_launcher.py v1_2_0+5214-53edc58fcd
-->
<edges>
	<edge from="1" function="normal" id="3431" length="7.746632106922337" numLanes="5" priority="1" speed="36.11111111111111" spreadType="center" to="2">
		<lane allow="moped bicycle pedestrian custom1 trailer evehicle rail_urban ship private truck vip custom2 authority delivery rail_electric taxi tram army hov coach motorcycle passenger bus rail emergency" index="0" length="7.746632106922337" shape="14.114049999999999,50.9499 10.571950000000001,43.939400000000006" speed="36.11111111111111" width="2.8417555225599527"/>
		<lane allow="moped bicycle pedestrian custom1 trailer evehicle rail_urban ship private truck vip custom2 authority delivery rail_electric taxi tram army hov coach motorcycle passenger bus rail emergency" index="1" length="7.746632106922337" shape="16.741300000000003,49.601200000000006 13.25845,42.5933" speed="36.11111111111111" width="3.064659380746906"/>
		<lane allow="moped bicycle pedestrian custom1 trailer evehicle rail_urban ship private truck vip custom2 authority delivery rail_electric taxi tram army hov coach motorcycle passenger bus rail emergency" index="2" length="7.746632106922337" shape="19.452350000000003,48.209450000000004 16.0047,41.2348" speed="36.11111111111111" width="3.0301778330652485"/>
		<lane allow="moped bicycle pedestrian custom1 trailer evehicle rail_urban ship private truck vip custom2 authority delivery rail_electric taxi tram army hov coach motorcycle passenger bus rail emergency" index="3" length="7.746632106922337" shape="22.1706,46.814 18.7392,39.8688" speed="36.11111111111111" width="3.0528378404363354"/>
		<lane allow="moped bicycle pedestrian custom1 trailer evehicle rail_urban ship private truck vip custom2 authority delivery rail_electric taxi tram army hov coach motorcycle passenger bus rail emergency" index="4" length="7.746632106922337" shape="24.8959,45.414950000000005 21.46495,38.426" speed="36.11111111111111" width="3.046009725854468"/>
	</edge>
	<edge from="2" function="normal" id="3438" length="8.438893355322131" numLanes="6" priority="1" speed="36.11111111111111" spreadType="center" to="3">
		<lane allow="moped bicycle pedestrian custom1 trailer evehicle rail_urban ship private truck vip custom2 authority delivery rail_electric taxi tram army hov coach motorcycle passenger bus rail emergency" index="0" length="8.438893355322131" shape="10.571950000000001,43.939400000000006 3.8971,37.66265" speed="36.11111111111111" width="2.94351281464851"/>
		<lane allow="moped bicycle pedestrian custom1 trailer evehicle rail_urban ship private truck vip custom2 authority delivery rail_electric taxi tram army hov coach motorcycle passenger bus rail emergency" index="1" length="8.438893355322131" shape="10.571950000000001,43.939400000000006 6.7384,36.329750000000004" speed="36.11111111111111" width="2.94351281464851"/>
		<lane allow="moped bicycle pedestrian custom1 trailer evehicle rail_urban ship private truck vip custom2 authority delivery rail_electric taxi tram army hov coach motorcycle passenger bus rail emergency" index="2" length="8.438893355322131" shape="13.25845,42.5933 9.48695,34.9982" speed="36.11111111111111" width="3.0546153096584847"/>
		<lane allow="moped bicycle pedestrian custom1 trailer evehicle rail_urban ship private truck vip custom2 authority delivery rail_electric taxi tram army hov coach motorcycle passenger bus rail emergency" index="3" length="8.438893355322131" shape="16.0047,41.2348 12.218,33.65535" speed="36.11111111111111" width="3.032458014548595"/>
		<lane allow="moped bicycle pedestrian custom1 trailer evehicle rail_urban ship private truck vip custom2 authority delivery rail_electric taxi tram army hov coach motorcycle passenger bus rail emergency" index="4" length="8.438893355322131" shape="18.7392,39.8688 14.936900000000001,32.27415" speed="36.11111111111111" width="3.0528378404363354"/>
		<lane allow="moped bicycle pedestrian custom1 trailer evehicle rail_urban ship private truck vip custom2 authority delivery rail_electric taxi tram army hov coach motorcycle passenger bus rail emergency" index="5" length="8.438893355322131" shape="21.46495,38.426 17.724800000000002,30.8612" speed="36.11111111111111" width="3.1152791608457817"/>
	</edge>
	<edge from="3" function="normal" id="3450" length="24.494871241480368" numLanes="6" priority="1" speed="36.11111111111111" spreadType="center" to="4">
		<lane allow="moped bicycle pedestrian custom1 trailer evehicle rail_urban ship private truck vip custom2 authority delivery rail_electric taxi tram army hov coach motorcycle passenger bus rail emergency" index="0" length="24.494871241480368" shape="3.8971,37.66265 0.7323999999999999,31.4286 -3.0559000000000003,23.74145 -7.1416,15.79685" speed="36.11111111111111" width="3.2241062653082633"/>
		<lane allow="moped bicycle pedestrian custom1 trailer evehicle rail_urban ship private truck vip custom2 authority delivery rail_electric taxi tram army hov coach motorcycle passenger bus rail emergency" index="1" length="24.494871241480368" shape="6.7384,36.329750000000004 3.7309,30.27815 -0.09204999999999997,22.329900000000002 -4.1959,14.19315" speed="36.11111111111111" width="2.8665619215359706"/>
		<lane allow="moped bicycle pedestrian custom1 trailer evehicle rail_urban ship private truck vip custom2 authority delivery rail_electric taxi tram army hov coach motorcycle passenger bus rail emergency" index="2" length="24.494871241480368" shape="9.48695,34.9982 6.4639500000000005,28.94675 2.61015,20.99895 -1.5534000000000001,12.874600000000001" speed="36.11111111111111" width="3.004221073756057"/>
		<lane allow="moped bicycle pedestrian custom1 trailer evehicle rail_urban ship private truck vip custom2 authority delivery rail_electric taxi tram army hov coach motorcycle passenger bus rail emergency" index="3" length="24.494871241480368" shape="12.218,33.65535 9.1316,27.4971 5.2469,19.5497 1.23125,11.5002" speed="36.11111111111111" width="3.0189875720181423"/>
		<lane allow="moped bicycle pedestrian custom1 trailer evehicle rail_urban ship private truck vip custom2 authority delivery rail_electric taxi tram army hov coach motorcycle passenger bus rail emergency" index="4" length="24.494871241480368" shape="14.936900000000001,32.27415 11.81845,26.039450000000002 7.93375,18.09205 3.99435,10.1069" speed="36.11111111111111" width="3.018395509206836"/>
		<lane allow="moped bicycle pedestrian custom1 trailer evehicle rail_urban ship private truck vip custom2 authority delivery rail_electric taxi tram army hov coach motorcycle passenger bus rail emergency" index="5" length="24.494871241480368" shape="17.724800000000002,30.8612 14.512350000000001,24.53555 10.62765,16.58815 6.690149999999999,8.73375" speed="36.11111111111111" width="3.0323687935341903"/>
	</edge>
	<edge from="4" function="normal" id="3664" length="45.62159337177896" numLanes="2" priority="1" speed="36.11111111111111" spreadType="center" to="5">
		<lane allow="moped bicycle pedestrian custom1 trailer evehicle rail_urban ship private vip custom2 authority delivery rail_electric taxi tram army hov coach motorcycle passenger rail emergency" index="0" length="45.62159337177896" shape="3.99435,10.1069 0.236,2.7255 -1.8994,-1.68245 -2.9643,-4.21435 -3.43775,-6.2622 -3.56555,-8.627600000000001 -3.1241,-11.4143 -2.389,-13.9805 -1.3225500000000001,-15.91925 0.09030000000000005,-18.065649999999998 3.21055,-21.040599999999998 9.25515,-24.5233 18.267899999999997,-29.238" speed="36.11111111111111" width="2.9349357471672186"/>
		<lane allow="moped bicycle pedestrian custom1 trailer evehicle rail_urban ship private vip custom2 authority delivery rail_electric taxi tram army hov coach motorcycle passenger rail emergency" index="1" length="45.62159337177896" shape="6.690149999999999,8.73375 3.33875,1.95755 1.7308499999999998,-2.08785 1.06705,-4.4791 0.7907000000000001,-6.2604500000000005 0.6227,-8.29325 0.85195,-10.401 1.5002,-12.16685 2.46655,-13.747900000000001 3.79255,-15.36715 6.2654,-17.93555 11.530000000000001,-21.6939 19.81275,-26.1464" speed="36.11111111111111" width="3.0323687935341903"/>
	</edge>
	<edge from="5" function="normal" id="3495" length="15.184501575044735" numLanes="3" priority="1" speed="36.11111111111111" spreadType="center" to="6">
		<lane allow="moped bicycle pedestrian custom1 trailer evehicle rail_urban ship private truck vip custom2 authority delivery rail_electric taxi tram army hov coach motorcycle passenger bus rail emergency" index="0" length="15.184501575044735" shape="16.644849999999998,-32.5661 25.372149999999998,-36.86115 30.27995,-39.27645" speed="36.11111111111111" width="3.8765859644795713"/>
		<lane allow="moped bicycle pedestrian custom1 trailer evehicle rail_urban ship private truck vip custom2 authority delivery rail_electric taxi tram army hov coach motorcycle passenger bus rail emergency" index="1" length="15.184501575044735" shape="18.267899999999997,-29.238 26.99505,-33.53155 31.913649999999997,-35.951350000000005" speed="36.11111111111111" width="3.511789538113012"/>
		<lane allow="moped bicycle pedestrian custom1 trailer evehicle rail_urban ship private truck vip custom2 authority delivery rail_electric taxi tram army hov coach motorcycle passenger bus rail emergency" index="2" length="15.184501575044735" shape="19.81275,-26.1464 28.49155,-30.415 33.43835,-32.84805" speed="36.11111111111111" width="3.382313814535845"/>
	</edge>
	<edge from="4" function="normal" id="3610" length="13.55388243428797" numLanes="3" priority="1" speed="36.11111111111111" spreadType="center" to="7">
		<lane allow="moped bicycle pedestrian custom1 trailer evehicle rail_urban ship private truck vip custom2 authority delivery rail_electric taxi tram army hov coach motorcycle passenger bus rail emergency" index="0" length="13.55388243428797" shape="-4.1959,14.19315 -10.2326,2.01725" speed="36.11111111111111" width="2.8665619215359706"/>
		<lane allow="moped bicycle pedestrian custom1 trailer evehicle rail_urban ship private truck vip custom2 authority delivery rail_electric taxi tram army hov coach motorcycle passenger bus rail emergency" index="1" length="13.55388243428797" shape="-1.5534000000000001,12.874600000000001 -7.50365,0.6834" speed="36.11111111111111" width="3.0173836033888697"/>
		<lane allow="moped bicycle pedestrian custom1 trailer evehicle rail_urban ship private truck vip custom2 authority delivery rail_electric taxi tram army hov coach motorcycle passenger bus rail emergency" index="2" length="13.55388243428797" shape="1.23125,11.5002 -4.74755,-0.6637500000000001" speed="36.11111111111111" width="3.1180545505170367"/>
	</edge>
	<edge from="7" function="normal" id="3646" length="16.509632755735122" numLanes="3" priority="1" speed="36.11111111111111" spreadType="center" to="8">
		<lane allow="moped bicycle pedestrian custom1 trailer evehicle rail_urban ship private truck vip custom2 authority delivery rail_electric taxi tram army hov coach motorcycle passenger bus rail emergency" index="0" length="16.509632755735122" shape="-10.2326,2.01725 -11.666599999999999,-0.87515 -13.29985,-4.1697 -14.70495,-7.0036000000000005 -16.09035,-9.797999999999998 -17.56595,-12.7743" speed="36.11111111111111" width="3.0575892938718896"/>
		<lane allow="moped bicycle pedestrian custom1 trailer evehicle rail_urban ship private truck vip custom2 authority delivery rail_electric taxi tram army hov coach motorcycle passenger bus rail emergency" index="1" length="16.509632755735122" shape="-7.50365,0.6834 -8.9329,-2.2448 -10.54715,-5.5523 -11.9382,-8.4004 -13.3181,-11.22585 -14.7869,-14.2331" speed="36.11111111111111" width="2.9903827313573115"/>
		<lane allow="moped bicycle pedestrian custom1 trailer evehicle rail_urban ship private truck vip custom2 authority delivery rail_electric taxi tram army hov coach motorcycle passenger bus rail emergency" index="2" length="16.509632755735122" shape="-4.74755,-0.6637500000000001 -6.19815,-3.615 -7.823300000000001,-6.9214 -9.2243,-9.770499999999998 -10.6227,-12.614149999999999 -12.10985,-15.638250000000001" speed="36.11111111111111" width="3.056448910091578"/>
	</edge>
	<edge from="8" function="normal" id="3626" length="12.19057411086533" numLanes="3" priority="1" speed="36.11111111111111" spreadType="center" to="9">
		<lane allow="moped bicycle pedestrian custom1 trailer evehicle rail_urban ship private truck vip custom2 authority delivery rail_electric taxi tram army hov coach motorcycle passenger bus rail emergency" index="0" length="12.19057411086533" shape="-17.56595,-12.7743 -22.981250000000003,-23.69605" speed="36.11111111111111" width="3.2869467488841364"/>
		<lane allow="moped bicycle pedestrian custom1 trailer evehicle rail_urban ship private truck vip custom2 authority delivery rail_electric taxi tram army hov coach motorcycle passenger bus rail emergency" index="1" length="12.19057411086533" shape="-14.7869,-14.2331 -20.1376,-25.188699999999997" speed="36.11111111111111" width="2.969358961122754"/>
		<lane allow="moped bicycle pedestrian custom1 trailer evehicle rail_urban ship private truck vip custom2 authority delivery rail_electric taxi tram army hov coach motorcycle passenger bus rail emergency" index="2" length="12.19057411086533" shape="-12.10985,-15.638250000000001 -17.48955,-26.57865" speed="36.11111111111111" width="3.0119886487169927"/>
	</edge>
	<edge from="9" function="normal" id="3542" length="42.04503365774768" numLanes="3" priority="1" speed="36.11111111111111" spreadType="center" to="10">
		<lane allow="moped bicycle pedestrian custom1 trailer evehicle rail_urban ship private truck vip custom2 authority delivery rail_electric taxi tram army hov coach motorcycle passenger rail emergency" index="0" length="42.04503365774768" shape="-22.981250000000003,-23.69605 -27.14255,-32.23475 -31.195800000000002,-41.16475 -34.96785,-49.883250000000004 -38.592600000000004,-59.1272 -39.91035,-62.34035" speed="36.11111111111111" width="2.8481341330773025"/>
		<lane allow="moped bicycle pedestrian custom1 trailer evehicle rail_urban ship private truck vip custom2 authority delivery rail_electric taxi tram army hov coach motorcycle passenger bus rail emergency" index="1" length="42.04503365774768" shape="-20.1376,-25.188699999999997 -24.381,-33.7435 -28.46315,-42.5269 -32.2038,-51.21510000000001 -35.8578,-60.33540000000001 -37.20385,-63.67395" speed="36.11111111111111" width="2.969358961122754"/>
		<lane allow="moped bicycle pedestrian custom1 trailer evehicle rail_urban ship private truck vip custom2 authority delivery rail_electric taxi tram army hov coach motorcycle passenger bus rail emergency" index="2" length="42.04503365774768" shape="-17.48955,-26.57865 -21.71235,-35.2586 -25.762700000000002,-43.980900000000005 -29.53425,-52.6687 -33.0291,-61.468050000000005 -34.4418,-65.0349" speed="36.11111111111111" width="2.962201547835663"/>
	</edge>
	<edge from="4" function="normal" id="3604" length="15.837809304392048" numLanes="1" priority="1" speed="36.11111111111111" spreadType="center" to="11">
		<lane allow="moped bicycle pedestrian custom1 trailer evehicle rail_urban ship private vip custom2 authority delivery rail_electric taxi tram army hov coach motorcycle passenger rail emergency" index="0" length="15.837809304392048" shape="-7.1416,15.79685 -8.18385,14.522749999999998 -9.442599999999999,12.9709 -10.8306,11.57465 -12.711,10.33935 -14.4122,9.75555 -16.208399999999997,9.55785 -18.1301,9.77735 -20.4461,10.52955" speed="36.11111111111111" width="3.843390931196045"/>
	</edge>
	<edge from="11" function="normal" id="3487" length="21.428343053831995" numLanes="3" priority="1" speed="36.11111111111111" spreadType="center" to="12">
		<lane allow="moped bicycle pedestrian custom1 trailer evehicle rail_urban ship private truck vip custom2 authority delivery rail_electric taxi tram army hov coach motorcycle passenger bus rail emergency" index="0" length="21.428343053831995" shape="-20.4461,10.52955 -29.659599999999998,14.96895 -38.4965,19.78765 -39.492850000000004,20.33285" speed="36.11111111111111" width="4.576431161942677"/>
		<lane allow="moped bicycle pedestrian custom1 trailer evehicle rail_urban ship private truck vip custom2 authority delivery rail_electric taxi tram army hov coach motorcycle passenger bus rail emergency" index="1" length="21.428343053831995" shape="-22.1634,6.0756 -31.55385,11.11765 -40.2003,16.28765 -41.22725,16.9041" speed="36.11111111111111" width="3.1084813092569825"/>
		<lane allow="moped bicycle pedestrian custom1 trailer evehicle rail_urban ship private truck vip custom2 authority delivery rail_electric taxi tram army hov coach motorcycle passenger bus rail emergency" index="2" length="21.428343053831995" shape="-23.2991,2.8445 -33.080799999999996,8.09215 -41.72725,13.26215 -42.75685,13.88025" speed="36.11111111111111" width="3.6645851129425253"/>
	</edge>
	<edge from="13" function="normal" id="3479" length="22.65181742569602" numLanes="3" priority="1" speed="36.11111111111111" spreadType="center" to="14">
		<lane allow="moped bicycle pedestrian custom1 trailer evehicle rail_urban ship private truck vip custom2 authority delivery rail_electric taxi tram army hov coach motorcycle passenger bus rail emergency" index="0" length="22.65181742569602" shape="-47.62015,4.26595 -46.477599999999995,3.68805 -36.8976,-1.0643 -27.28715,-5.847849999999999" speed="36.11111111111111" width="3.231198096681787"/>
		<lane allow="moped bicycle pedestrian custom1 trailer evehicle rail_urban ship private truck vip custom2 authority delivery rail_electric taxi tram army hov coach motorcycle passenger rail emergency" index="1" length="22.65181742569602" shape="-46.208650000000006,7.05635 -45.04685,6.46865 -35.46685,1.7163 -25.85635,-3.06725" speed="36.11111111111111" width="3.022973122606285"/>
		<lane allow="moped bicycle pedestrian custom1 trailer evehicle rail_urban ship private truck vip custom2 authority delivery rail_electric taxi tram army hov coach motorcycle passenger rail emergency" index="2" length="22.65181742569602" shape="-44.8361,9.769749999999998 -43.6405,9.16495 -34.060500000000005,4.412599999999999 -24.549599999999998,-0.30799999999999994" speed="36.11111111111111" width="3.0586164927953954"/>
	</edge>
	<edge from="14" function="normal" id="3672" length="43.429643178518916" numLanes="1" priority="1" speed="36.11111111111111" spreadType="center" to="15">
		<lane allow="moped bicycle pedestrian custom1 trailer evehicle rail_urban ship private vip custom2 authority delivery rail_electric taxi tram army hov coach motorcycle passenger rail emergency" index="0" length="43.429643178518916" shape="-24.549599999999998,-0.30799999999999994 -19.392400000000002,-2.84835 -15.8096,-4.33285 -11.963750000000001,-5.6915 -9.18305,-6.6618 -6.697100000000001,-7.15865 -4.462249999999999,-7.37105 -2.12605,-7.254049999999999 -0.4815499999999999,-7.11965 0.6278999999999999,-6.8634 1.56765,-6.2804 2.4869,-4.9302 3.6426,-3.00185 6.31005,1.2356 7.883799999999999,4.28735 9.355550000000001,7.3995" speed="36.11111111111111" width="2.917182176347579"/>
	</edge>
	<edge from="15" function="normal" id="3456" length="24.710920579823163" numLanes="3" priority="1" speed="36.11111111111111" spreadType="center" to="16">
		<lane allow="moped bicycle pedestrian custom1 trailer evehicle rail_urban ship private truck vip custom2 authority delivery rail_electric taxi tram army hov coach motorcycle passenger bus rail emergency" index="0" length="24.710920579823163" shape="14.882200000000001,4.6398 18.478,11.8334 22.33135,19.750500000000002 25.694000000000003,26.8589" speed="36.11111111111111" width="3.0476685974692184"/>
		<lane allow="moped bicycle pedestrian custom1 trailer evehicle rail_urban ship private truck vip custom2 authority delivery rail_electric taxi tram army hov coach motorcycle passenger bus rail emergency" index="1" length="24.710920579823163" shape="12.05335,6.034050000000001 15.913450000000001,13.60095 19.5917,21.16655 23.030549999999998,28.197" speed="36.11111111111111" width="2.9148241130469628"/>
		<lane allow="moped bicycle pedestrian custom1 trailer evehicle rail_urban ship private truck vip custom2 authority delivery rail_electric taxi tram army hov coach motorcycle passenger bus rail emergency" index="2" length="24.710920579823163" shape="9.355550000000001,7.3995 13.28405,15.1617 17.0725,22.86425 20.444049999999997,29.510849999999998" speed="36.11111111111111" width="2.888004380190584"/>
	</edge>
	<edge from="16" function="normal" id="3462" length="8.466645302154806" numLanes="3" priority="1" speed="36.11111111111111" spreadType="center" to="17">
		<lane allow="moped bicycle pedestrian custom1 trailer evehicle rail_urban ship private truck vip custom2 authority delivery rail_electric taxi tram army hov coach motorcycle passenger bus rail emergency" index="0" length="8.466645302154806" shape="25.694000000000003,26.8589 29.5733,34.42165" speed="36.11111111111111" width="3.0476685974692184"/>
		<lane allow="moped bicycle pedestrian custom1 trailer evehicle rail_urban ship private truck vip custom2 authority delivery rail_electric taxi tram army hov coach motorcycle passenger bus rail emergency" index="1" length="8.466645302154806" shape="23.030549999999998,28.197 26.84865,35.8067" speed="36.11111111111111" width="2.9148241130469628"/>
		<lane allow="moped bicycle pedestrian custom1 trailer evehicle rail_urban ship private truck vip custom2 authority delivery rail_electric taxi tram army hov coach motorcycle passenger bus rail emergency" index="2" length="8.466645302154806" shape="20.444049999999997,29.510849999999998 24.1847,37.10635" speed="36.11111111111111" width="2.888004380190584"/>
	</edge>
	<edge from="17" function="normal" id="3470" length="7.644506528383635" numLanes="3" priority="1" speed="36.11111111111111" spreadType="center" to="18">
		<lane allow="moped bicycle pedestrian custom1 trailer evehicle rail_urban ship private truck vip custom2 authority delivery rail_electric taxi tram army hov coach motorcycle passenger bus rail emergency" index="0" length="7.644506528383635" shape="29.5733,34.42165 32.9647,41.2727" speed="36.11111111111111" width="3.054999162029347"/>
		<lane allow="moped bicycle pedestrian custom1 trailer evehicle rail_urban ship private truck vip custom2 authority delivery rail_electric taxi tram army hov coach motorcycle passenger bus rail emergency" index="1" length="7.644506528383635" shape="26.84865,35.8067 30.26415,42.65905" speed="36.11111111111111" width="2.998011102381041"/>
		<lane allow="moped bicycle pedestrian custom1 trailer evehicle rail_urban ship private truck vip custom2 authority delivery rail_electric taxi tram army hov coach motorcycle passenger bus rail emergency" index="2" length="7.644506528383635" shape="24.1847,37.10635 27.58665,44.0336" speed="36.11111111111111" width="2.9350875710956243"/>
	</edge>
	<edge from="14" function="normal" id="3636" length="10.130444963203738" numLanes="2" priority="1" speed="36.11111111111111" spreadType="center" to="19">
		<lane allow="moped bicycle pedestrian custom1 trailer evehicle rail_urban ship private truck vip custom2 authority delivery rail_electric taxi tram army hov coach motorcycle passenger bus rail emergency" index="0" length="10.130444963203738" shape="-27.28715,-5.847849999999999 -18.276049999999998,-10.5332" speed="36.11111111111111" width="3.232186618993401"/>
		<lane allow="moped bicycle pedestrian custom1 trailer evehicle rail_urban ship private truck vip custom2 authority delivery rail_electric taxi tram army hov coach motorcycle passenger bus rail emergency" index="1" length="10.130444963203738" shape="-25.85635,-3.06725 -16.83165,-7.669499999999999" speed="36.11111111111111" width="3.0254656269738054"/>
	</edge>
	<edge from="19" function="normal" id="3658" length="24.83401336288985" numLanes="2" priority="1" speed="36.11111111111111" spreadType="center" to="20">
		<lane allow="moped bicycle pedestrian custom1 trailer evehicle rail_urban ship private truck vip custom2 authority delivery rail_electric taxi tram army hov coach motorcycle passenger bus rail emergency" index="0" length="24.83401336288985" shape="-18.276049999999998,-10.5332 -15.38025,-12.0391 -12.72475,-13.41985 -10.0078,-14.832550000000001 -7.019500000000001,-16.38645 -4.31785,-17.79135 -1.6731500000000001,-19.1665 1.0424,-20.5785 3.81415,-22.019750000000002" speed="36.11111111111111" width="3.308908788407443"/>
		<lane allow="moped bicycle pedestrian custom1 trailer evehicle rail_urban ship private truck vip custom2 authority delivery rail_electric taxi tram army hov coach motorcycle passenger bus rail emergency" index="1" length="24.83401336288985" shape="-16.83165,-7.669499999999999 -13.96365,-9.1321 -11.29265,-10.49415 -8.55435,-11.8905 -5.58975,-13.402249999999999 -2.8793,-14.7845 -0.22935000000000003,-16.13575 2.5050999999999997,-17.530050000000003 5.2919,-18.9512" speed="36.11111111111111" width="3.105783426126166"/>
	</edge>
	<edge from="20" function="normal" id="3676" length="16.155928389455163" numLanes="2" priority="1" speed="36.11111111111111" spreadType="center" to="5">
		<lane allow="moped bicycle pedestrian custom1 trailer evehicle rail_urban ship private truck vip custom2 authority delivery rail_electric taxi tram army hov coach motorcycle passenger bus rail emergency" index="0" length="16.155928389455163" shape="3.81415,-22.019750000000002 9.83385,-25.026 18.267899999999997,-29.238" speed="36.11111111111111" width="3.5034549033775195"/>
		<lane allow="moped bicycle pedestrian custom1 trailer evehicle rail_urban ship private truck vip custom2 authority delivery rail_electric taxi tram army hov coach motorcycle passenger bus rail emergency" index="1" length="16.155928389455163" shape="5.2919,-18.9512 11.31655,-21.936500000000002 19.81275,-26.1464" speed="36.11111111111111" width="3.308224526842157"/>
	</edge>
	<edge from="14" function="normal" id="3600" length="24.19746751136553" numLanes="1" priority="1" speed="36.11111111111111" spreadType="center" to="9">
		<lane allow="moped bicycle pedestrian custom1 trailer evehicle rail_urban ship private vip custom2 authority delivery rail_electric taxi tram army hov coach motorcycle passenger rail emergency" index="0" length="24.19746751136553" shape="-27.28715,-5.847849999999999 -22.79885,-8.2428 -20.80585,-9.4329 -19.2028,-10.343499999999999 -18.4597,-10.823450000000001 -18.035600000000002,-11.41105 -17.9998,-12.218 -18.407,-13.6296 -19.207900000000002,-15.595749999999999 -20.18835,-17.6941 -22.981250000000003,-23.69605" speed="36.11111111111111" width="3.232186618993401"/>
	</edge>
	<edge from="21" function="normal" id="3502" length="11.539017429977411" numLanes="2" priority="1" speed="36.11111111111111" spreadType="center" to="22">
		<lane allow="moped bicycle pedestrian custom1 trailer evehicle rail_urban ship private truck vip custom2 authority delivery rail_electric taxi tram army hov coach motorcycle passenger bus rail emergency" index="0" length="11.539017429977411" shape="37.981849999999994,-23.6008 32.93215,-21.1324 27.58775,-18.519849999999998" speed="36.11111111111111" width="3.607231317783762"/>
		<lane allow="moped bicycle pedestrian custom1 trailer evehicle rail_urban ship private truck vip custom2 authority delivery rail_electric taxi tram army hov coach motorcycle passenger bus rail emergency" index="1" length="11.539017429977411" shape="36.377250000000004,-26.86665 31.40165,-24.433999999999997 26.0108,-21.79855" speed="36.11111111111111" width="3.630791497731585"/>
	</edge>
	<edge from="22" function="normal" id="3528" length="6.57557739613032" numLanes="3" priority="1" speed="36.11111111111111" spreadType="center" to="23">
		<lane allow="moped bicycle pedestrian custom1 trailer evehicle rail_urban ship private truck vip custom2 authority delivery rail_electric taxi tram army hov coach motorcycle passenger bus rail emergency" index="0" length="6.57557739613032" shape="27.58775,-18.519849999999998 23.1649,-12.498000000000001" speed="36.11111111111111" width="3.245737241367515"/>
		<lane allow="moped bicycle pedestrian custom1 trailer evehicle rail_urban ship private truck vip custom2 authority delivery rail_electric taxi tram army hov coach motorcycle passenger bus rail emergency" index="1" length="6.57557739613032" shape="27.58775,-18.519849999999998 21.67575,-15.57985" speed="36.11111111111111" width="3.602433613545153"/>
		<lane allow="moped bicycle pedestrian custom1 trailer evehicle rail_urban ship private truck vip custom2 authority delivery rail_electric taxi tram army hov coach motorcycle passenger bus rail emergency" index="2" length="6.57557739613032" shape="26.0108,-21.79855 20.12275,-18.87125" speed="36.11111111111111" width="3.6713079753679083"/>
	</edge>
	<edge from="23" function="normal" id="3534" length="6.608363657139337" numLanes="3" priority="1" speed="36.11111111111111" spreadType="center" to="24">
		<lane allow="moped bicycle pedestrian custom1 trailer evehicle rail_urban ship private truck vip custom2 authority delivery rail_electric taxi tram army hov coach motorcycle passenger bus rail emergency" index="0" length="6.608363657139337" shape="23.1649,-12.498000000000001 17.18535,-9.60855" speed="36.11111111111111" width="3.190167196245363"/>
		<lane allow="moped bicycle pedestrian custom1 trailer evehicle rail_urban ship private truck vip custom2 authority delivery rail_electric taxi tram army hov coach motorcycle passenger bus rail emergency" index="1" length="6.608363657139337" shape="21.67575,-15.57985 15.7356,-12.6351" speed="36.11111111111111" width="3.5215687697388507"/>
		<lane allow="moped bicycle pedestrian custom1 trailer evehicle rail_urban ship private truck vip custom2 authority delivery rail_electric taxi tram army hov coach motorcycle passenger bus rail emergency" index="2" length="6.608363657139337" shape="20.12275,-18.87125 14.2127,-15.9146" speed="36.11111111111111" width="3.677371487897301"/>
	</edge>