<!-- generated on 2020-12-18 15:58:39.093825 by ipykernel_launcher.py v1_2_0+5214-53edc58fcd
-->
<nodes>
	<node id="1" type="from" x="19.47484" y="48.197900000000004"/>
	<node id="2" type="to" x="16.007849999999998" y="41.21246"/>
	<node id="3" type="to" x="10.833691666666667" y="34.296883333333334"/>
	<node id="4" type="to" x="-0.16252500000000034" y="12.200908333333333"/>
	<node id="5" type="to" x="19.040325" y="-27.6922"/>
	<node id="6" type="to" x="31.877316666666662" y="-36.025283333333334"/>
	<node id="7" type="to" x="-7.494599999999999" y="0.6789666666666667"/>
	<node id="8" type="to" x="-14.820900000000002" y="-14.215216666666668"/>
	<node id="9" type="to" x="-20.2028" y="-25.154466666666664"/>
	<node id="10" type="to" x="-37.18533333333334" y="-63.68306666666666"/>
	<node id="11" type="to" x="-20.4461" y="10.52955"/>
	<node id="12" type="to" x="-41.15898333333333" y="17.039066666666667"/>
	<node id="13" type="from" x="-46.22163333333333" y="7.030683333333333"/>
	<node id="14" type="to" x="-25.8977" y="-3.0743666666666662"/>
	<node id="15" type="to" x="9.355550000000001" y="7.3995"/>
	<node id="16" type="to" x="23.0562" y="28.18891666666666"/>
	<node id="17" type="to" x="26.868883333333333" y="35.77823333333333"/>
	<node id="18" type="to" x="30.271833333333333" y="42.655116666666665"/>
	<node id="19" type="to" x="-17.553849999999997" y="-9.10135"/>
	<node id="20" type="to" x="4.553025" y="-20.485475"/>
	<node id="21" type="from" x="37.17955" y="-25.233725"/>
	<node id="22" type="to" x="26.799275" y="-20.1592"/>
	<node id="23" type="to" x="21.654466666666664" y="-15.649700000000001"/>
	<node id="24" type="to" x="15.711216666666665" y="-12.719416666666666"/>
	<node id="25" type="to" x="8.981675" y="-11.28925"/>
	<node id="26" type="to" x="-13.105699999999999" y="-0.28335"/>
	<node id="27" type="from" x="-24.80576" y="-69.78284"/>
	<node id="28" type="to" x="-6.1924" y="-32.52136"/>
	<node id="29" type="to" x="-1.0429166666666667" y="-21.447433333333333"/>
	<node id="30" type="to" x="6.3171" y="-6.071933333333334"/>
</nodes>
