<?xml version="1.0" encoding="UTF-8"?>

<!-- generated on Fri Dec 18 15:58:39 2020 by Eclipse SUMO netconvert Version 1.8.0
<configuration xmlns:xsi="http://www.w3.org/2001/XMLSchema-instance" xsi:noNamespaceSchemaLocation="http://sumo.dlr.de/xsd/netconvertConfiguration.xsd">

    <input>
        <node-files value="./converted_scenarios/NGSIM/Lankershim/USA_Lanker-1_10_I-1-1/nodes.net.xml"/>
        <edge-files value="./converted_scenarios/NGSIM/Lankershim/USA_Lanker-1_10_I-1-1/edges.net.xml"/>
        <connection-files value="./converted_scenarios/NGSIM/Lankershim/USA_Lanker-1_10_I-1-1/_connections.net.xml"/>
        <tllogic-files value="./converted_scenarios/NGSIM/Lankershim/USA_Lanker-1_10_I-1-1/_tll.net.xml"/>
    </input>

    <output>
        <output-file value="./converted_scenarios/NGSIM/Lankershim/USA_Lanker-1_10_I-1-1/USA_Lanker-1_10_I-1-1.net.xml"/>
    </output>

    <processing>
        <plain.extend-edge-shape value="true"/>
        <geometry.remove.keep-edges.explicit value="true"/>
        <geometry.avoid-overlap value="true"/>
        <offset.disable-normalization value="true"/>
    </processing>

    <junctions>
        <no-turnarounds value="true"/>
        <junctions.internal-link-detail value="20"/>
    </junctions>

    <report>
        <aggregate-warnings value="5"/>
    </report>

    <random_number>
        <seed value="1234"/>
    </random_number>

</configuration>
-->

<net version="1.6" junctionCornerDetail="5" junctionLinkDetail="20" limitTurnSpeed="5.50" xmlns:xsi="http://www.w3.org/2001/XMLSchema-instance" xsi:noNamespaceSchemaLocation="http://sumo.dlr.de/xsd/net_file.xsd">

    <location netOffset="0.00,0.00" convBoundary="-46.22,-69.78,37.18,48.20" origBoundary="-47.62,-72.51,37.98,50.95" projParameter="!"/>

    <edge id=":11_0" function="internal">
        <lane id=":11_0_0" index="0" disallow="bus truck rail_fast" speed="36.11" length="8.30" width="4.58" shape="-27.56,12.84 -19.70,10.17"/>
    </edge>
    <edge id=":11_1" function="internal">
        <lane id=":11_1_0" index="0" disallow="rail_fast" speed="36.11" length="1.01" width="3.11" shape="-20.61,5.31 -21.54,5.74"/>
        <lane id=":11_1_1" index="1" disallow="rail_fast" speed="36.11" length="1.01" width="3.66" shape="-21.93,2.17 -22.84,2.60"/>
    </edge>
    <edge id=":14_0" function="internal">
        <lane id=":14_0_0" index="0" disallow="bus truck rail_fast" speed="7.94" length="13.70" width="3.23" shape="-28.96,-5.01 -27.74,-5.63 -26.59,-6.21 -25.51,-6.77 -24.50,-7.31 -23.56,-7.82 -22.68,-8.31 -21.88,-8.77 -21.15,-9.20 -20.48,-9.61 -19.89,-9.99 -19.36,-10.35 -18.91,-10.69 -18.52,-11.00 -18.21,-11.28 -17.96,-11.53 -17.79,-11.77 -17.68,-11.97 -17.64,-12.15 -17.67,-12.31"/>
    </edge>
    <edge id=":14_1" function="internal">
        <lane id=":14_1_0" index="0" disallow="rail_fast" speed="36.11" length="13.45" width="3.23" shape="-28.96,-5.01 -17.03,-11.18"/>
        <lane id=":14_1_1" index="1" disallow="bus rail_fast" speed="36.11" length="13.45" width="3.03" shape="-27.57,-2.21 -15.57,-8.32"/>
    </edge>
    <edge id=":14_3" function="internal">
        <lane id=":14_3_0" index="0" disallow="bus truck rail_fast" speed="36.11" length="2.11" width="2.92" shape="-26.22,0.52 -28.11,1.45"/>
    </edge>
    <edge id=":15_0" function="internal">
        <lane id=":15_0_0" index="0" disallow="bus truck rail_fast" speed="9.12" length="13.80" width="3.05" shape="14.51,-7.45 14.14,-7.02 13.82,-6.57 13.54,-6.09 13.31,-5.57 13.13,-5.03 12.99,-4.46 12.89,-3.87 12.84,-3.24 12.84,-2.59 12.88,-1.91 12.97,-1.20 13.10,-0.46 13.28,0.31 13.51,1.10 13.78,1.92 14.09,2.78 14.45,3.66 14.86,4.56 15.31,5.50"/>
    </edge>
    <edge id=":15_1" function="internal">
        <lane id=":15_1_0" index="0" disallow="rail_fast" speed="36.11" length="13.06" width="3.05" shape="9.67,-6.23 15.31,5.50"/>
        <lane id=":15_1_1" index="1" disallow="rail_fast" speed="36.11" length="13.06" width="2.91" shape="6.85,-4.87 12.50,6.91"/>
        <lane id=":15_1_2" index="2" disallow="rail_fast" speed="36.11" length="13.06" width="2.89" shape="4.12,-3.56 9.79,8.26"/>
    </edge>
    <edge id=":15_4" function="internal">
        <lane id=":15_4_0" index="0" disallow="bus truck rail_fast" speed="36.11" length="13.55" width="2.89" shape="3.27,-3.62 9.79,8.26"/>
    </edge>
    <edge id=":16_0" function="internal">
        <lane id=":16_0_0" index="0" disallow="rail_fast" speed="36.11" length="0.24" width="3.05" shape="25.64,26.75 25.75,26.96"/>
        <lane id=":16_0_1" index="1" disallow="rail_fast" speed="36.11" length="0.24" width="2.91" shape="22.98,28.09 23.08,28.31"/>
        <lane id=":16_0_2" index="2" disallow="rail_fast" speed="36.11" length="0.24" width="2.89" shape="20.38,29.39 20.49,29.61"/>
    </edge>
    <edge id=":17_0" function="internal">
        <lane id=":17_0_0" index="0" disallow="rail_fast" speed="36.11" length="3.05" width="3.05" shape="28.86,33.04 30.24,35.77"/>
        <lane id=":17_0_1" index="1" disallow="rail_fast" speed="36.11" length="3.05" width="3.00" shape="26.14,34.40 27.50,37.12"/>
        <lane id=":17_0_2" index="2" disallow="rail_fast" speed="36.11" length="3.05" width="2.94" shape="23.50,35.72 24.84,38.45"/>
    </edge>
    <edge id=":19_0" function="internal">
        <lane id=":19_0_0" index="0" disallow="rail_fast" speed="36.11" length="0.12" width="3.31" shape="-16.86,-11.27 -16.96,-11.22"/>
        <lane id=":19_0_1" index="1" disallow="rail_fast" speed="36.11" length="0.12" width="3.11" shape="-15.39,-8.41 -15.49,-8.35"/>
    </edge>
    <edge id=":2_0" function="internal">
        <lane id=":2_0_0" index="0" disallow="rail_fast" speed="21.97" length="7.43" width="2.94" shape="11.76,46.29 11.50,45.79 11.27,45.34 11.04,44.95 10.84,44.59 10.63,44.27 10.44,43.98 10.25,43.72 10.05,43.47 9.86,43.25 9.65,43.03 9.44,42.81 9.21,42.59 8.97,42.37 8.71,42.13 8.42,41.87 8.11,41.59 7.77,41.29 7.39,40.94 6.98,40.56"/>
        <lane id=":2_0_1" index="1" disallow="rail_fast" speed="36.11" length="7.43" width="2.94" shape="11.76,46.29 8.45,39.73"/>
        <lane id=":2_0_2" index="2" disallow="rail_fast" speed="36.11" length="7.43" width="3.05" shape="14.43,44.94 11.09,38.23"/>
        <lane id=":2_0_3" index="3" disallow="rail_fast" speed="36.11" length="7.43" width="3.03" shape="17.16,43.56 13.75,36.72"/>
        <lane id=":2_0_4" index="4" disallow="rail_fast" speed="36.11" length="7.43" width="3.05" shape="19.88,42.19 16.41,35.21"/>
        <lane id=":2_0_5" index="5" disallow="rail_fast" speed="36.11" length="7.43" width="3.12" shape="22.63,40.80 19.64,34.73"/>
    </edge>
    <edge id=":20_0" function="internal">
        <lane id=":20_0_0" index="0" disallow="rail_fast" speed="36.11" length="3.06" width="3.50" shape="2.41,-21.29 5.15,-22.69"/>
        <lane id=":20_0_1" index="1" disallow="rail_fast" speed="36.11" length="3.06" width="3.31" shape="3.93,-18.25 6.65,-19.62"/>
    </edge>
    <edge id=":22_0" function="internal">
        <lane id=":22_0_0" index="0" disallow="rail_fast" speed="14.45" length="8.28" width="3.25" shape="31.24,-20.30 30.69,-20.04 30.20,-19.79 29.76,-19.57 29.36,-19.36 29.00,-19.16 28.67,-18.96 28.37,-18.77 28.09,-18.57 27.83,-18.37 27.58,-18.16 27.34,-17.93 27.10,-17.69 26.86,-17.42 26.61,-17.13 26.35,-16.81 26.08,-16.45 25.78,-16.05 25.45,-15.61 25.09,-15.13"/>
        <lane id=":22_0_1" index="1" disallow="rail_fast" speed="36.11" length="8.28" width="3.60" shape="31.24,-20.30 24.00,-16.74"/>
        <lane id=":22_0_2" index="2" disallow="rail_fast" speed="36.11" length="8.28" width="3.67" shape="29.65,-23.58 21.94,-19.78"/>
    </edge>
    <edge id=":23_0" function="internal">
        <lane id=":23_0_0" index="0" disallow="rail_fast" speed="9.74" length="3.41" width="3.19" shape="23.76,-13.31 23.59,-13.09 23.44,-12.90 23.30,-12.73 23.16,-12.59 23.03,-12.46 22.90,-12.35 22.77,-12.25 22.65,-12.17 22.52,-12.09 22.38,-12.03 22.25,-11.96 22.10,-11.90 21.94,-11.84 21.78,-11.77 21.60,-11.70 21.41,-11.62 21.20,-11.54 20.97,-11.43 20.72,-11.32"/>
        <lane id=":23_0_1" index="1" disallow="rail_fast" speed="36.11" length="3.41" width="3.52" shape="22.28,-15.88 19.25,-14.38"/>
        <lane id=":23_0_2" index="2" disallow="rail_fast" speed="36.11" length="3.41" width="3.68" shape="20.47,-19.04 17.67,-17.65"/>
    </edge>
    <edge id=":24_0" function="internal">
        <lane id=":24_0_0" index="0" disallow="bus truck rail_fast" speed="14.27" length="3.68" width="2.93" shape="18.10,-10.05 17.85,-9.93 17.63,-9.83 17.43,-9.73 17.24,-9.65 17.07,-9.57 16.91,-9.50 16.77,-9.42 16.63,-9.35 16.50,-9.28 16.37,-9.21 16.25,-9.13 16.13,-9.04 16.00,-8.94 15.87,-8.83 15.73,-8.71 15.58,-8.57 15.43,-8.41 15.25,-8.24 15.07,-8.04"/>
    </edge>
    <edge id=":24_1" function="internal">
        <lane id=":24_1_0" index="0" disallow="rail_fast" speed="36.11" length="11.27" width="3.46" shape="16.65,-13.09 6.56,-8.09"/>
        <lane id=":24_1_1" index="1" disallow="rail_fast" speed="36.11" length="11.27" width="3.70" shape="15.09,-16.35 5.00,-11.30"/>
    </edge>
    <edge id=":24_3" function="internal">
        <lane id=":24_3_0" index="0" disallow="bus truck rail_fast" speed="17.55" length="16.88" width="3.01" shape="15.09,-16.35 13.94,-15.80 12.86,-15.30 11.82,-14.85 10.83,-14.46 9.88,-14.11 8.97,-13.82 8.10,-13.56 7.26,-13.35 6.44,-13.18 5.64,-13.04 4.87,-12.94 4.11,-12.87 3.35,-12.83 2.61,-12.82 1.86,-12.82 1.12,-12.85 0.37,-12.90 -0.40,-12.96 -1.17,-13.04"/>
    </edge>
    <edge id=":25_0" function="internal">
        <lane id=":25_0_0" index="0" disallow="rail_fast" speed="36.11" length="2.24" width="3.21" shape="6.38,-8.00 8.39,-9.00"/>
        <lane id=":25_0_1" index="1" disallow="rail_fast" speed="36.11" length="2.24" width="3.68" shape="4.82,-11.21 6.82,-12.21"/>
    </edge>
    <edge id=":26_0" function="internal">
        <lane id=":26_0_0" index="0" disallow="rail_fast" speed="36.11" length="14.96" width="3.17" shape="-1.28,-4.21 -14.69,2.41"/>
        <lane id=":26_0_1" index="1" disallow="rail_fast" speed="36.11" length="14.96" width="3.68" shape="-2.86,-7.35 -16.23,-0.66"/>
    </edge>
    <edge id=":26_2" function="internal">
        <lane id=":26_2_0" index="0" disallow="bus truck rail_fast" speed="11.28" length="15.17" width="3.68" shape="-7.39,-12.24 -7.55,-11.42 -7.74,-10.63 -7.97,-9.86 -8.23,-9.11 -8.53,-8.38 -8.86,-7.68 -9.23,-7.00 -9.62,-6.34 -10.05,-5.71 -10.52,-5.10 -11.02,-4.52 -11.55,-3.95 -12.12,-3.41 -12.72,-2.90 -13.35,-2.40 -14.02,-1.93 -14.72,-1.48 -15.46,-1.06 -16.23,-0.66"/>
    </edge>
    <edge id=":28_0" function="internal">
        <lane id=":28_0_0" index="0" disallow="bus truck rail_fast" speed="10.22" length="10.24" width="3.11" shape="-1.39,-37.31 -1.16,-36.91 -0.90,-36.52 -0.62,-36.14 -0.32,-35.78 0.01,-35.43 0.36,-35.09 0.73,-34.77 1.12,-34.45 1.54,-34.15 1.97,-33.87 2.43,-33.59 2.92,-33.33 3.42,-33.09 3.95,-32.85 4.50,-32.63 5.08,-32.42 5.67,-32.23 6.29,-32.04 6.93,-31.87"/>
    </edge>
    <edge id=":28_1" function="internal">
        <lane id=":28_1_0" index="0" disallow="bus truck rail_fast" speed="11.58" length="11.05" width="3.13" shape="-4.45,-35.71 -4.09,-35.00 -3.74,-34.36 -3.41,-33.79 -3.09,-33.28 -2.78,-32.83 -2.46,-32.43 -2.14,-32.07 -1.81,-31.75 -1.46,-31.46 -1.10,-31.20 -0.71,-30.96 -0.29,-30.74 0.16,-30.52 0.64,-30.30 1.17,-30.08 1.75,-29.85 2.38,-29.60 3.06,-29.33 3.81,-29.04"/>
    </edge>
    <edge id=":28_2" function="internal">
        <lane id=":28_2_0" index="0" disallow="rail_fast" speed="36.11" length="10.45" width="3.12" shape="-4.45,-35.71 0.12,-26.15"/>
        <lane id=":28_2_1" index="1" disallow="rail_fast" speed="36.11" length="10.45" width="3.06" shape="-7.18,-34.27 -2.68,-24.84"/>
        <lane id=":28_2_2" index="2" disallow="rail_fast" speed="36.11" length="10.45" width="2.98" shape="-9.88,-32.85 -5.42,-23.55"/>
    </edge>
    <edge id=":28_5" function="internal">
        <lane id=":28_5_0" index="0" disallow="bus truck rail_fast" speed="36.11" length="10.20" width="2.87" shape="-12.56,-31.44 -12.22,-30.76 -11.92,-30.14 -11.64,-29.58 -11.39,-29.07 -11.15,-28.60 -10.94,-28.17 -10.75,-27.77 -10.56,-27.38 -10.39,-27.01 -10.22,-26.64 -10.06,-26.26 -9.89,-25.87 -9.73,-25.46 -9.55,-25.02 -9.37,-24.54 -9.18,-24.02 -8.97,-23.44 -8.75,-22.80 -8.50,-22.10"/>
    </edge>
    <edge id=":29_0" function="internal">
        <lane id=":29_0_0" index="0" disallow="rail_fast" speed="36.11" length="3.22" width="3.12" shape="1.00,-24.29 2.38,-21.39"/>
        <lane id=":29_0_1" index="1" disallow="rail_fast" speed="36.11" length="3.22" width="3.06" shape="-1.76,-22.89 -0.37,-19.99"/>
        <lane id=":29_0_2" index="2" disallow="rail_fast" speed="36.11" length="3.22" width="2.95" shape="-4.45,-21.52 -3.06,-18.62"/>
    </edge>
    <edge id=":3_0" function="internal">
        <lane id=":3_0_0" index="0" disallow="rail_fast" speed="15.71" length="3.50" width="3.22" shape="6.60,40.20 6.39,40.02 6.20,39.86 6.02,39.71 5.85,39.59 5.69,39.48 5.54,39.39 5.40,39.30 5.26,39.21 5.13,39.13 5.00,39.05 4.88,38.96 4.76,38.86 4.64,38.75 4.52,38.63 4.41,38.49 4.29,38.33 4.17,38.15 4.04,37.93 3.91,37.69"/>
        <lane id=":3_0_1" index="1" disallow="rail_fast" speed="36.11" length="3.50" width="2.87" shape="8.26,39.35 6.74,36.33"/>
        <lane id=":3_0_2" index="2" disallow="rail_fast" speed="36.11" length="3.50" width="3.00" shape="10.96,37.96 9.49,35.00"/>
        <lane id=":3_0_3" index="3" disallow="rail_fast" speed="36.11" length="3.50" width="3.02" shape="13.67,36.56 12.22,33.66"/>
        <lane id=":3_0_4" index="4" disallow="rail_fast" speed="36.11" length="3.50" width="3.02" shape="16.36,35.12 14.94,32.27"/>
        <lane id=":3_0_5" index="5" disallow="rail_fast" speed="36.11" length="3.50" width="3.03" shape="19.55,34.55 17.72,30.86"/>
    </edge>
    <edge id=":30_0" function="internal">
        <lane id=":30_0_0" index="0" disallow="rail_fast" speed="36.11" length="2.64" width="3.14" shape="8.43,-8.80 9.58,-6.41"/>
        <lane id=":30_0_1" index="1" disallow="rail_fast" speed="36.11" length="2.64" width="3.10" shape="5.63,-7.44 6.77,-5.06"/>
        <lane id=":30_0_2" index="2" disallow="rail_fast" speed="36.11" length="2.64" width="2.93" shape="2.90,-6.12 4.04,-3.74"/>
    </edge>
    <edge id=":4_0" function="internal">
        <lane id=":4_0_0" index="0" disallow="bus truck rail_fast" speed="36.11" length="5.96" width="3.84" shape="-5.35,19.28 -5.55,18.88 -5.74,18.52 -5.90,18.20 -6.04,17.90 -6.18,17.63 -6.30,17.38 -6.42,17.15 -6.53,16.93 -6.65,16.72 -6.76,16.51 -6.89,16.31 -7.02,16.10 -7.16,15.89 -7.32,15.66 -7.49,15.42 -7.69,15.15 -7.91,14.87 -8.16,14.55 -8.44,14.21"/>
    </edge>
    <edge id=":4_1" function="internal">
        <lane id=":4_1_0" index="0" disallow="rail_fast" speed="36.11" length="6.33" width="2.87" shape="-2.39,17.77 -5.24,12.08"/>
        <lane id=":4_1_1" index="1" disallow="rail_fast" speed="36.11" length="6.33" width="3.02" shape="0.26,16.41 -2.59,10.76"/>
        <lane id=":4_1_2" index="2" disallow="rail_fast" speed="36.11" length="6.33" width="3.12" shape="2.99,15.02 0.19,9.38"/>
    </edge>
    <edge id=":4_4" function="internal">
        <lane id=":4_4_0" index="0" disallow="bus truck rail_fast" speed="36.11" length="6.26" width="2.93" shape="5.73,13.62 2.93,8.02"/>
    </edge>
    <edge id=":4_5" function="internal">
        <lane id=":4_5_0" index="0" disallow="bus truck rail_fast" speed="36.11" length="6.22" width="3.03" shape="8.45,12.24 5.67,6.67"/>
    </edge>
    <edge id=":5_0" function="internal">
        <lane id=":5_0_0" index="0" disallow="bus truck rail_fast" speed="10.83" length="9.96" width="3.88" shape="7.79,-31.66 8.42,-31.50 9.01,-31.36 9.54,-31.24 10.03,-31.14 10.49,-31.05 10.91,-30.99 11.31,-30.95 11.69,-30.93 12.06,-30.94 12.43,-30.97 12.79,-31.02 13.16,-31.11 13.55,-31.21 13.95,-31.35 14.38,-31.52 14.84,-31.71 15.33,-31.93 15.87,-32.19 16.47,-32.48"/>
        <lane id=":5_0_1" index="1" disallow="bus truck rail_fast" speed="12.01" length="9.96" width="3.51" shape="7.66,-28.10 8.43,-27.92 9.13,-27.76 9.78,-27.62 10.37,-27.50 10.92,-27.41 11.43,-27.34 11.91,-27.30 12.37,-27.28 12.81,-27.29 13.25,-27.33 13.69,-27.40 14.13,-27.50 14.59,-27.63 15.08,-27.80 15.59,-28.00 16.14,-28.23 16.74,-28.50 17.39,-28.81 18.10,-29.16"/>
    </edge>
    <edge id=":5_2" function="internal">
        <lane id=":5_2_0" index="0" disallow="bus truck rail_fast" speed="36.11" length="10.89" width="3.51" shape="8.44,-24.06 18.10,-29.16"/>
        <lane id=":5_2_1" index="1" disallow="bus truck rail_fast" speed="36.11" length="10.89" width="3.38" shape="10.19,-20.73 10.85,-21.20 11.45,-21.62 11.99,-22.00 12.49,-22.33 12.95,-22.63 13.38,-22.90 13.78,-23.14 14.17,-23.37 14.55,-23.58 14.93,-23.78 15.32,-23.98 15.72,-24.18 16.14,-24.38 16.60,-24.60 17.10,-24.84 17.64,-25.09 18.24,-25.38 18.90,-25.70 19.63,-26.06"/>
    </edge>
    <edge id=":5_4" function="internal">
        <lane id=":5_4_0" index="0" disallow="rail_fast" speed="36.11" length="13.99" width="3.51" shape="5.58,-22.90 18.10,-29.16"/>
        <lane id=":5_4_1" index="1" disallow="rail_fast" speed="36.11" length="13.99" width="3.38" shape="7.10,-19.85 19.63,-26.06"/>
    </edge>
    <edge id=":7_0" function="internal">
        <lane id=":7_0_0" index="0" disallow="rail_fast" speed="36.11" length="3.02" width="3.06" shape="-9.55,3.38 -10.90,0.68"/>
        <lane id=":7_0_1" index="1" disallow="rail_fast" speed="36.11" length="3.02" width="2.99" shape="-6.84,2.05 -8.16,-0.67"/>
        <lane id=":7_0_2" index="2" disallow="rail_fast" speed="36.11" length="3.02" width="3.06" shape="-4.08,0.70 -5.41,-2.01"/>
    </edge>
    <edge id=":8_0" function="internal">
        <lane id=":8_0_0" index="0" disallow="rail_fast" speed="36.11" length="0.10" width="3.29" shape="-16.87,-11.38 -16.89,-11.40"/>
        <lane id=":8_0_1" index="1" disallow="rail_fast" speed="36.11" length="0.10" width="2.97" shape="-14.09,-12.81 -14.10,-12.84"/>
        <lane id=":8_0_2" index="2" disallow="rail_fast" speed="36.11" length="0.10" width="3.01" shape="-11.40,-14.19 -11.41,-14.22"/>
    </edge>
    <edge id=":9_0" function="internal">
        <lane id=":9_0_0" index="0" disallow="bus rail_fast" speed="36.11" length="15.32" width="2.85" shape="-16.98,-11.58 -23.77,-25.32"/>
        <lane id=":9_0_1" index="1" disallow="rail_fast" speed="36.11" length="15.32" width="2.97" shape="-14.19,-13.02 -20.92,-26.77"/>
        <lane id=":9_0_2" index="2" disallow="rail_fast" speed="36.11" length="15.32" width="2.96" shape="-11.50,-14.40 -18.25,-28.14"/>
    </edge>
    <edge id=":9_3" function="internal">
        <lane id=":9_3_0" index="0" disallow="bus truck rail_fast" speed="14.99" length="18.43" width="2.96" shape="-6.97,-14.10 -7.68,-14.42 -8.36,-14.78 -9.02,-15.17 -9.66,-15.61 -10.27,-16.09 -10.87,-16.61 -11.45,-17.18 -12.02,-17.79 -12.58,-18.46 -13.14,-19.17 -13.69,-19.93 -14.23,-20.75 -14.78,-21.63 -15.33,-22.56 -15.89,-23.55 -16.46,-24.60 -17.04,-25.72 -17.64,-26.90 -18.25,-28.14"/>
    </edge>
    <edge id=":9_4" function="internal">
        <lane id=":9_4_0" index="0" disallow="bus truck rail_fast" speed="36.11" length="14.16" width="2.85" shape="-17.76,-12.49 -23.77,-25.32"/>
    </edge>

    <edge id="3431" from="1" to="2" priority="1" spreadType="center" length="7.75">
        <lane id="3431_0" index="0" disallow="rail_fast" speed="36.11" length="7.75" width="2.84" customShape="1" shape="14.07,50.85 11.76,46.29"/>
        <lane id="3431_1" index="1" disallow="rail_fast" speed="36.11" length="7.75" width="3.06" customShape="1" shape="16.74,49.60 14.43,44.94"/>
        <lane id="3431_2" index="2" disallow="rail_fast" speed="36.11" length="7.75" width="3.03" customShape="1" shape="19.45,48.21 17.16,43.56"/>
        <lane id="3431_3" index="3" disallow="rail_fast" speed="36.11" length="7.75" width="3.05" customShape="1" shape="22.19,46.86 19.88,42.19"/>
        <lane id="3431_4" index="4" disallow="rail_fast" speed="36.11" length="7.75" width="3.05" customShape="1" shape="24.94,45.51 22.63,40.80"/>
    </edge>
    <edge id="3438" from="2" to="3" priority="1" spreadType="center" length="8.44">
        <lane id="3438_0" index="0" disallow="rail_fast" speed="36.11" length="8.44" width="2.94" customShape="1" shape="6.98,40.56 6.60,40.20"/>
        <lane id="3438_1" index="1" disallow="rail_fast" speed="36.11" length="8.44" width="2.94" customShape="1" shape="8.45,39.73 8.26,39.35"/>
        <lane id="3438_2" index="2" disallow="rail_fast" speed="36.11" length="8.44" width="3.05" customShape="1" shape="11.09,38.23 10.96,37.96"/>
        <lane id="3438_3" index="3" disallow="rail_fast" speed="36.11" length="8.44" width="3.03" customShape="1" shape="13.75,36.72 13.67,36.56"/>
        <lane id="3438_4" index="4" disallow="rail_fast" speed="36.11" length="8.44" width="3.05" customShape="1" shape="16.41,35.21 16.36,35.12"/>
        <lane id="3438_5" index="5" disallow="rail_fast" speed="36.11" length="8.44" width="3.12" customShape="1" shape="19.64,34.73 19.55,34.55"/>
    </edge>
    <edge id="3450" from="3" to="4" priority="1" spreadType="center" length="24.49">
        <lane id="3450_0" index="0" disallow="rail_fast" speed="36.11" length="24.49" width="3.22" customShape="1" shape="3.91,37.69 0.73,31.43 -3.06,23.74 -5.35,19.28"/>
        <lane id="3450_1" index="1" disallow="rail_fast" speed="36.11" length="24.49" width="2.87" customShape="1" shape="6.74,36.33 3.73,30.28 -0.09,22.33 -2.39,17.77"/>
        <lane id="3450_2" index="2" disallow="rail_fast" speed="36.11" length="24.49" width="3.00" customShape="1" shape="9.49,35.00 6.46,28.95 2.61,21.00 0.26,16.41"/>
        <lane id="3450_3" index="3" disallow="rail_fast" speed="36.11" length="24.49" width="3.02" customShape="1" shape="12.22,33.66 9.13,27.50 5.25,19.55 2.99,15.02"/>
        <lane id="3450_4" index="4" disallow="rail_fast" speed="36.11" length="24.49" width="3.02" customShape="1" shape="14.94,32.27 11.82,26.04 7.93,18.09 5.73,13.62"/>
        <lane id="3450_5" index="5" disallow="rail_fast" speed="36.11" length="24.49" width="3.03" customShape="1" shape="17.72,30.86 14.51,24.54 10.63,16.59 8.45,12.24"/>
    </edge>
    <edge id="3456" from="15" to="16" priority="1" spreadType="center" length="24.71">
        <lane id="3456_0" index="0" disallow="rail_fast" speed="36.11" length="24.71" width="3.05" customShape="1" shape="15.31,5.50 18.48,11.83 22.33,19.75 25.64,26.75"/>
        <lane id="3456_1" index="1" disallow="rail_fast" speed="36.11" length="24.71" width="2.91" customShape="1" shape="12.50,6.91 15.91,13.60 19.59,21.17 22.98,28.09"/>
        <lane id="3456_2" index="2" disallow="rail_fast" speed="36.11" length="24.71" width="2.89" customShape="1" shape="9.79,8.26 13.28,15.16 17.07,22.86 20.38,29.39"/>
    </edge>
    <edge id="3462" from="16" to="17" priority="1" spreadType="center" length="8.47">
        <lane id="3462_0" index="0" disallow="rail_fast" speed="36.11" length="8.47" width="3.05" customShape="1" shape="25.75,26.96 28.86,33.04"/>
        <lane id="3462_1" index="1" disallow="rail_fast" speed="36.11" length="8.47" width="2.91" customShape="1" shape="23.08,28.31 26.14,34.40"/>
        <lane id="3462_2" index="2" disallow="rail_fast" speed="36.11" length="8.47" width="2.89" customShape="1" shape="20.49,29.61 23.50,35.72"/>
    </edge>
    <edge id="3470" from="17" to="18" priority="1" spreadType="center" length="7.64">
        <lane id="3470_0" index="0" disallow="rail_fast" speed="36.11" length="7.64" width="3.05" customShape="1" shape="30.24,35.77 32.98,41.31"/>
        <lane id="3470_1" index="1" disallow="rail_fast" speed="36.11" length="7.64" width="3.00" customShape="1" shape="27.50,37.12 30.26,42.66"/>
        <lane id="3470_2" index="2" disallow="rail_fast" speed="36.11" length="7.64" width="2.94" customShape="1" shape="24.84,38.45 27.59,44.03"/>
    </edge>
    <edge id="3479" from="13" to="14" priority="1" spreadType="center" length="22.65">
        <lane id="3479_0" index="0" disallow="rail_fast" speed="36.11" length="22.65" width="3.23" customShape="1" shape="-47.62,4.27 -46.48,3.69 -36.90,-1.06 -28.96,-5.01"/>
        <lane id="3479_1" index="1" disallow="bus rail_fast" speed="36.11" length="22.65" width="3.02" customShape="1" shape="-46.21,7.06 -45.05,6.47 -35.47,1.72 -27.57,-2.21"/>
        <lane id="3479_2" index="2" disallow="bus rail_fast" speed="36.11" length="22.65" width="3.06" customShape="1" shape="-44.84,9.77 -43.64,9.16 -34.06,4.41 -26.22,0.52"/>
    </edge>
    <edge id="3487" from="11" to="12" priority="1" spreadType="center" length="21.43">
        <lane id="3487_0" index="0" disallow="rail_fast" speed="36.11" length="21.43" width="4.58" acceleration="1" customShape="1" shape="-19.70,10.17 -29.66,14.97 -38.50,19.79 -39.39,20.28"/>
        <lane id="3487_1" index="1" disallow="rail_fast" speed="36.11" length="21.43" width="3.11" customShape="1" shape="-21.54,5.74 -31.55,11.12 -40.20,16.29 -41.23,16.91"/>
        <lane id="3487_2" index="2" disallow="rail_fast" speed="36.11" length="21.43" width="3.66" customShape="1" shape="-22.84,2.60 -33.08,8.09 -41.73,13.26 -42.86,13.94"/>
    </edge>
    <edge id="3495" from="5" to="6" priority="1" spreadType="center" length="15.18">
        <lane id="3495_0" index="0" disallow="rail_fast" speed="36.11" length="15.18" width="3.88" customShape="1" shape="16.47,-32.48 25.37,-36.86 30.28,-39.28"/>
        <lane id="3495_1" index="1" disallow="rail_fast" speed="36.11" length="15.18" width="3.51" customShape="1" shape="18.10,-29.16 27.00,-33.53 31.91,-35.95"/>
        <lane id="3495_2" index="2" disallow="rail_fast" speed="36.11" length="15.18" width="3.38" customShape="1" shape="19.63,-26.06 28.49,-30.41 33.44,-32.85"/>
    </edge>
    <edge id="3502" from="21" to="22" priority="1" spreadType="center" length="11.54">
        <lane id="3502_0" index="0" disallow="rail_fast" speed="36.11" length="11.54" width="3.61" customShape="1" shape="37.98,-23.60 32.93,-21.13 31.24,-20.30"/>
        <lane id="3502_1" index="1" disallow="rail_fast" speed="36.11" length="11.54" width="3.63" customShape="1" shape="36.38,-26.87 31.40,-24.43 29.65,-23.58"/>
    </edge>
    <edge id="3528" from="22" to="23" priority="1" spreadType="center" length="6.58">
        <lane id="3528_0" index="0" disallow="rail_fast" speed="36.11" length="6.58" width="3.25" customShape="1" shape="25.09,-15.13 23.76,-13.31"/>
        <lane id="3528_1" index="1" disallow="rail_fast" speed="36.11" length="6.58" width="3.60" customShape="1" shape="24.00,-16.74 22.28,-15.88"/>
        <lane id="3528_2" index="2" disallow="rail_fast" speed="36.11" length="6.58" width="3.67" customShape="1" shape="21.94,-19.78 20.47,-19.04"/>
    </edge>
    <edge id="3534" from="23" to="24" priority="1" spreadType="center" length="6.61">
        <lane id="3534_0" index="0" disallow="rail_fast" speed="36.11" length="6.61" width="3.19" customShape="1" shape="20.72,-11.32 18.10,-10.05"/>
        <lane id="3534_1" index="1" disallow="rail_fast" speed="36.11" length="6.61" width="3.52" customShape="1" shape="19.25,-14.38 16.65,-13.09"/>
        <lane id="3534_2" index="2" disallow="rail_fast" speed="36.11" length="6.61" width="3.68" customShape="1" shape="17.67,-17.65 15.09,-16.35"/>
    </edge>
    <edge id="3542" from="9" to="10" priority="1" spreadType="center" length="42.05">
        <lane id="3542_0" index="0" disallow="bus rail_fast" speed="36.11" length="42.05" width="2.85" customShape="1" shape="-23.77,-25.32 -27.14,-32.23 -31.20,-41.16 -34.97,-49.88 -38.59,-59.13 -39.99,-62.53"/>
        <lane id="3542_1" index="1" disallow="rail_fast" speed="36.11" length="42.05" width="2.97" customShape="1" shape="-20.92,-26.77 -24.38,-33.74 -28.46,-42.53 -32.20,-51.22 -35.86,-60.34 -37.20,-63.68"/>
        <lane id="3542_2" index="2" disallow="rail_fast" speed="36.11" length="42.05" width="2.96" customShape="1" shape="-18.25,-28.14 -21.71,-35.26 -25.76,-43.98 -29.53,-52.67 -33.03,-61.47 -34.36,-64.84"/>
    </edge>
    <edge id="3573" from="27" to="28" priority="1" spreadType="center" length="41.48">
        <lane id="3573_0" index="0" disallow="rail_fast" speed="36.11" length="41.48" width="3.35" customShape="1" shape="-19.27,-72.51 -17.61,-69.18 -13.36,-60.60 -8.92,-51.67 -4.62,-43.21 -1.39,-37.31"/>
        <lane id="3573_1" index="1" disallow="rail_fast" speed="36.11" length="41.48" width="2.88" customShape="1" shape="-22.13,-71.10 -20.38,-67.61 -16.19,-59.24 -11.65,-50.17 -7.43,-41.74 -4.45,-35.71"/>
        <lane id="3573_2" index="2" disallow="rail_fast" speed="36.11" length="41.48" width="3.08" customShape="1" shape="-24.85,-69.76 -23.07,-66.21 -18.88,-57.84 -14.34,-48.77 -10.12,-40.34 -7.18,-34.27"/>
        <lane id="3573_3" index="3" disallow="rail_fast" speed="36.11" length="41.48" width="2.82" customShape="1" shape="-27.54,-68.44 -25.74,-64.85 -21.55,-56.48 -17.01,-47.41 -12.84,-38.94 -9.88,-32.85"/>
        <lane id="3573_4" index="4" disallow="rail_fast" speed="36.11" length="41.48" width="3.05" customShape="1" shape="-30.25,-67.11 -28.44,-63.43 -24.25,-55.05 -19.71,-45.99 -15.54,-37.51 -12.56,-31.44"/>
    </edge>
    <edge id="3600" from="14" to="9" priority="1" spreadType="center" length="24.20">
        <lane id="3600_0" index="0" disallow="bus truck rail_fast" speed="36.11" length="24.20" width="3.23" customShape="1" shape="-17.67,-12.31 -17.76,-12.49"/>
    </edge>
    <edge id="3602" from="24" to="15" priority="1" spreadType="center" length="16.41">
        <lane id="3602_0" index="0" disallow="bus truck rail_fast" speed="36.11" length="16.41" width="2.93" customShape="1" shape="15.07,-8.04 14.51,-7.45"/>
    </edge>
    <edge id="3604" from="4" to="11" priority="1" spreadType="center" length="15.84">
        <lane id="3604_0" index="0" disallow="bus truck rail_fast" speed="36.11" length="15.84" width="3.84" customShape="1" shape="-8.44,14.21 -9.44,12.97 -10.83,11.57 -12.71,10.34 -14.41,9.76 -16.21,9.56 -18.13,9.78 -27.56,12.84"/>
    </edge>