<routes>
	<vehicle depart="0.1" departLane="0" departPos="69.50546030402896" departSpeed="6.7066248" id="340" type="bicycle">
		<route edges="58425 58395"/>
	</vehicle>
	<vehicle depart="0.1" departLane="0" departPos="62.69602612956813" departSpeed="7.4690917" id="349" type="bus">
		<route edges="58425 58395"/>
	</vehicle>
	<vehicle depart="0.1" departLane="0" departPos="21.554336596029618" departSpeed="0.61469812" id="322" type="passenger">
		<route edges=":68_3 58395 58398"/>
	</vehicle>
	<vehicle depart="0.1" departLane="0" departPos="65.54176645513678" departSpeed="0.5613877" id="332" type="passenger">
		<route edges="58324 58395"/>
	</vehicle>
	<vehicle depart="0.1" departLane="0" departPos="14.59845021445652" departSpeed="8.3503909" id="338" type="passenger">
		<route edges=":68_0 58395 58398"/>
	</vehicle>
	<vehicle depart="0.1" departLane="0" departPos="41.21402671515835" departSpeed="6.8580376" id="352" type="passenger">
		<route edges="58425 58395"/>
	</vehicle>
	<vehicle depart="0.1" departLane="0" departPos="8.108971847145343" departSpeed="14.539601" id="333" type="motorcycle">
		<route edges="58325"/>
	</vehicle>
</routes>
