<routes>
	<vehicle depart="0.1" departLane="0" departPos="5.240623299038953" departSpeed="6.5182487e-05" id="318" type="passenger">
		<route edges="41782 41844"/>
	</vehicle>
	<vehicle depart="0.1" departLane="0" departPos="12.711258452085126" departSpeed="0.0" id="339" type="passenger">
		<route edges="41782 41844"/>
	</vehicle>
	<vehicle depart="0.1" departLane="0" departPos="7.686821469704835" departSpeed="0.0" id="340" type="passenger">
		<route edges="41624 41750"/>
	</vehicle>
	<vehicle depart="0.1" departLane="0" departPos="16.94835173651036" departSpeed="10.893981" id="342" type="passenger">
		<route edges=":65_0 41781 41778"/>
	</vehicle>
	<vehicle depart="0.1" departLane="0" departPos="27.24133394912953" departSpeed="2.429555" id="345" type="passenger">
		<route edges=":67_3 41625 41724"/>
	</vehicle>
	<vehicle depart="0.1" departLane="0" departPos="15.625757226109815" departSpeed="1.8587606" id="356" type="passenger">
		<route edges=":67_1 41746"/>
	</vehicle>
	<vehicle depart="0.1" departLane="0" departPos="47.13362370517151" departSpeed="0.86084865" id="373" type="passenger">
		<route edges="41749 41625"/>
	</vehicle>
	<vehicle depart="0.1" departLane="0" departPos="34.616597234529806" departSpeed="1.2287416" id="379" type="passenger">
		<route edges="41749 41625"/>
	</vehicle>
	<vehicle depart="0.1" departLane="0" departPos="40.238317944501446" departSpeed="0.001553086" id="341" type="truck">
		<route edges=":66_4 41624"/>
	</vehicle>
	<vehicle depart="0.1" departLane="0" departPos="66.152579555715" departSpeed="0.87521735" id="366" type="truck">
		<route edges="41749 41746"/>
	</vehicle>
</routes>
