<routes>
	<vehicle depart="0.1" departLane="0" departPos="23.49194667467453" departSpeed="0.87360481" id="356" type="bus">
		<route edges="9706 9689"/>
	</vehicle>
	<vehicle depart="0.1" departLane="0" departPos="32.43690863053314" departSpeed="0.0" id="31" type="passenger">
		<route edges="9628 9707"/>
	</vehicle>
	<vehicle depart="0.1" departLane="0" departPos="24.96747608452288" departSpeed="0.0" id="325" type="passenger">
		<route edges="9628 9707"/>
	</vehicle>
	<vehicle depart="0.1" departLane="0" departPos="65.8007564937812" departSpeed="0.23821888" id="340" type="passenger">
		<route edges="9706 9689"/>
	</vehicle>
	<vehicle depart="0.1" departLane="0" departPos="53.40707316318761" departSpeed="0.87351311" id="345" type="passenger">
		<route edges="9706 9689"/>
	</vehicle>
	<vehicle depart="0.1" departLane="0" departPos="46.46217478585136" departSpeed="0.82660554" id="347" type="passenger">
		<route edges="9706 9689"/>
	</vehicle>
	<vehicle depart="0.1" departLane="0" departPos="31.58093359226443" departSpeed="0.25048701" id="353" type="passenger">
		<route edges="9706 9689"/>
	</vehicle>
	<vehicle depart="0.1" departLane="0" departPos="23.50802284667749" departSpeed="14.796973" id="355" type="passenger">
		<route edges=":35_7 9707"/>
	</vehicle>
	<vehicle depart="0.1" departLane="0" departPos="57.556604816888665" departSpeed="14.987037" id="359" type="passenger">
		<route edges="9721 9707"/>
	</vehicle>
	<vehicle depart="0.1" departLane="0" departPos="68.97376331372972" departSpeed="0.034972558" id="336" type="motorcycle">
		<route edges="9706 9689"/>
	</vehicle>
</routes>
