<routes>
	<vehicle depart="0.1" departLane="0" departPos="1.0" departSpeed="3.1368282" id="310" type="bicycle">
		<route edges="84065 83741"/>
	</vehicle>
	<vehicle depart="0.1" departLane="0" departPos="26.511157057107496" departSpeed="0.445236" id="329" type="bus">
		<route edges="85543 85540"/>
	</vehicle>
	<vehicle depart="0.1" departLane="0" departPos="2.5" departSpeed="9.4910548" id="33" type="passenger">
		<route edges=":41_1 83743"/>
	</vehicle>
	<vehicle depart="0.1" departLane="0" departPos="2.5" departSpeed="3.7411125" id="38" type="passenger">
		<route edges="94344 85544"/>
	</vehicle>
	<vehicle depart="0.1" departLane="0" departPos="27.826824191604725" departSpeed="3.7092833" id="39" type="passenger">
		<route edges="85474 85477 83741"/>
	</vehicle>
	<vehicle depart="0.1" departLane="0" departPos="16.25345021419635" departSpeed="5.0767901" id="314" type="passenger">
		<route edges="85477 93359 84061"/>
	</vehicle>
	<vehicle depart="0.1" departLane="0" departPos="4.908299006277847" departSpeed="5.6076969" id="318" type="passenger">
		<route edges="96338 85473 83806"/>
	</vehicle>
	<vehicle depart="0.1" departLane="0" departPos="45.34003575442383" departSpeed="1.880875" id="324" type="passenger">
		<route edges="84062 84065 83741"/>
	</vehicle>
	<vehicle depart="0.1" departLane="0" departPos="22.01918036599583" departSpeed="4.0566982" id="326" type="passenger">
		<route edges="84062 84065"/>
	</vehicle>
	<vehicle depart="0.1" departLane="0" departPos="15.840442562224494" departSpeed="1.537158" id="30" type="truck">
		<route edges="85434 94344 85544"/>
	</vehicle>
</routes>
