<!-- generated on Tue Feb  9 22:17:38 2021 by Eclipse SUMO netconvert Version 1.8.0
<configuration xmlns:xsi="http://www.w3.org/2001/XMLSchema-instance" xsi:noNamespaceSchemaLocation="http://sumo.dlr.de/xsd/netconvertConfiguration.xsd">

    <input>
        <node-files value="./converted_scenarios/scenario-factory/ITA_Foggia-4_1_I-1-1/ITA_Foggia-4_1_I-1-1.nod.xml"/>
        <edge-files value="./converted_scenarios/scenario-factory/ITA_Foggia-4_1_I-1-1/ITA_Foggia-4_1_I-1-1.edg.xml"/>
        <connection-files value="./converted_scenarios/scenario-factory/ITA_Foggia-4_1_I-1-1/ITA_Foggia-4_1_I-1-1.con.xml"/>
        <tllogic-files value="./converted_scenarios/scenario-factory/ITA_Foggia-4_1_I-1-1/ITA_Foggia-4_1_I-1-1.tll.xml"/>
        <type-files value="/home/zen/commonroad-interactive-benchmarks/install/commonroad-map-tool/crmapconverter/sumo_map/templates/DEU.typ.xml"/>
    </input>

    <output>
        <output-file value="./converted_scenarios/scenario-factory/ITA_Foggia-4_1_I-1-1/ITA_Foggia-4_1_I-1-1.net.xml"/>
    </output>

    <processing>
        <geometry.remove.keep-edges.explicit value="true"/>
        <geometry.avoid-overlap value="true"/>
        <offset.disable-normalization value="true"/>
    </processing>

    <junctions>
        <no-turnarounds value="true"/>
        <junctions.internal-link-detail value="20"/>
    </junctions>

    <report>
        <aggregate-warnings value="5"/>
    </report>

    <random_number>
        <seed value="1234"/>
    </random_number>

</configuration>
--><net xmlns:xsi="http://www.w3.org/2001/XMLSchema-instance" version="1.6" junctionCornerDetail="5" junctionLinkDetail="20" limitTurnSpeed="5.50" xsi:noNamespaceSchemaLocation="http://sumo.dlr.de/xsd/net_file.xsd">

    <location netOffset="0.00,0.00" convBoundary="817.51,-432.55,1016.09,-256.43" origBoundary="817.51,-432.55,1016.09,-256.43" projParameter="!"/>

    <type id="highway.bridleway" priority="1" speed="2.78" allow="pedestrian" oneway="1" width="2.00"/>
    <type id="highway.bus_guideway" priority="1" speed="27.78" allow="bus" oneway="1"/>
    <type id="highway.cycleway" priority="1" speed="8.33" allow="bicycle" oneway="0" width="1.00"/>
    <type id="highway.footway" priority="1" speed="2.78" allow="pedestrian" oneway="1" width="2.00"/>
    <type id="highway.ford" priority="1" speed="2.78" allow="army" oneway="0"/>
    <type id="highway.living_street" priority="2" speed="2.78" disallow="tram rail_urban rail rail_electric rail_fast ship" oneway="0"/>
    <type id="highway.motorway" priority="14" speed="39.44" allow="private emergency authority army vip passenger hov taxi bus coach delivery truck trailer motorcycle evehicle custom1 custom2" oneway="1"/>
    <type id="highway.motorway_link" priority="9" speed="22.22" allow="private emergency authority army vip passenger hov taxi bus coach delivery truck trailer motorcycle evehicle custom1 custom2" oneway="1"/>
    <type id="highway.path" priority="1" speed="2.78" allow="pedestrian bicycle" oneway="0" width="2.00"/>
    <type id="highway.pedestrian" priority="1" speed="2.78" allow="pedestrian" oneway="1" width="2.00"/>
    <type id="highway.primary" priority="12" speed="27.78" disallow="pedestrian tram rail_urban rail rail_electric rail_fast ship" oneway="0"/>
    <type id="highway.primary_link" priority="7" speed="22.22" disallow="pedestrian tram rail_urban rail rail_electric rail_fast ship" oneway="0"/>
    <type id="highway.raceway" priority="15" speed="83.33" allow="vip" oneway="0"/>
    <type id="highway.residential" priority="3" speed="13.89" disallow="pedestrian tram rail_urban rail rail_electric rail_fast ship" oneway="0"/>
    <type id="highway.secondary" priority="11" speed="27.78" disallow="pedestrian tram rail_urban rail rail_electric rail_fast ship" oneway="0"/>
    <type id="highway.secondary_link" priority="6" speed="22.22" disallow="pedestrian tram rail_urban rail rail_electric rail_fast ship" oneway="0"/>
    <type id="highway.service" priority="1" speed="5.56" allow="pedestrian delivery bicycle" oneway="0"/>
    <type id="highway.stairs" priority="1" speed="1.39" allow="pedestrian" oneway="1" width="2.00"/>
    <type id="highway.step" priority="1" speed="1.39" allow="pedestrian" oneway="1" width="2.00"/>
    <type id="highway.steps" priority="1" speed="1.39" allow="pedestrian" oneway="1" width="2.00"/>
    <type id="highway.tertiary" priority="10" speed="22.22" disallow="pedestrian tram rail_urban rail rail_electric rail_fast ship" oneway="0"/>
    <type id="highway.tertiary_link" priority="5" speed="22.22" disallow="pedestrian tram rail_urban rail rail_electric rail_fast ship" oneway="0"/>
    <type id="highway.track" priority="1" speed="5.56" allow="pedestrian motorcycle moped bicycle" oneway="0"/>
    <type id="highway.trunk" priority="13" speed="27.78" disallow="pedestrian bicycle tram rail_urban rail rail_electric rail_fast ship" oneway="0"/>
    <type id="highway.trunk_link" priority="8" speed="22.22" disallow="pedestrian bicycle tram rail_urban rail rail_electric rail_fast ship" oneway="0"/>
    <type id="highway.unclassified" priority="4" speed="13.89" disallow="pedestrian tram rail_urban rail rail_electric rail_fast ship" oneway="0"/>
    <type id="highway.unsurfaced" priority="1" speed="8.33" disallow="tram rail_urban rail rail_electric rail_fast ship" oneway="0"/>
    <type id="railway.highspeed" priority="21" speed="69.44" allow="rail_fast" oneway="1"/>
    <type id="railway.light_rail" priority="19" speed="27.78" allow="rail_urban" oneway="1"/>
    <type id="railway.preserved" priority="16" speed="27.78" allow="rail" oneway="1"/>
    <type id="railway.rail" priority="20" speed="44.44" allow="rail" oneway="1"/>
    <type id="railway.subway" priority="18" speed="27.78" allow="rail_urban" oneway="1"/>
    <type id="railway.tram" priority="17" speed="13.89" allow="tram" oneway="1"/>

    <edge id=":10_0" function="internal">
        <lane id=":10_0_0" index="0" disallow="pedestrian tram rail_urban rail rail_electric rail_fast ship" speed="36.11" length="2.99" width="3.50" shape="889.02,-344.62 886.63,-346.42"/>
    </edge>
    <edge id=":12_0" function="internal">
        <lane id=":12_0_0" index="0" disallow="pedestrian tram rail_urban rail rail_electric rail_fast ship" speed="36.11" length="3.00" width="3.50" shape="906.51,-301.23 905.80,-298.32"/>
    </edge>
    <edge id=":30_0" function="internal">
        <lane id=":30_0_0" index="0" disallow="pedestrian tram rail_urban rail rail_electric rail_fast ship" speed="36.11" length="3.00" width="3.50" shape="902.40,-299.15 903.11,-302.06"/>
    </edge>
    <edge id=":32_0" function="internal">
        <lane id=":32_0_0" index="0" disallow="pedestrian tram rail_urban rail rail_electric rail_fast ship" speed="36.11" length="3.00" width="3.50" shape="888.73,-349.22 891.13,-347.42"/>
    </edge>
    <edge id=":34_0" function="internal">
        <lane id=":34_0_0" index="0" disallow="pedestrian tram rail_urban rail rail_electric rail_fast ship" speed="36.11" length="3.00" width="3.50" shape="920.12,-357.68 919.41,-354.77"/>
    </edge>
    <edge id=":41_0" function="internal">
        <lane id=":41_0_0" index="0" disallow="pedestrian tram rail_urban rail rail_electric rail_fast ship" speed="4.18" length="2.14" width="3.50" shape="942.56,-339.38 943.38,-341.12 943.50,-341.30"/>
    </edge>
    <edge id=":41_1" function="internal">
        <lane id=":41_1_0" index="0" disallow="pedestrian tram rail_urban rail rail_electric rail_fast ship" speed="36.11" length="6.82" width="3.50" shape="935.90,-341.49 942.05,-344.43"/>
    </edge>
    <edge id=":42_0" function="internal">
        <lane id=":42_0_0" index="0" disallow="pedestrian tram rail_urban rail rail_electric rail_fast ship" speed="36.11" length="38.52" width="3.50" shape="864.99,-362.66 861.66,-365.15 844.03,-378.12 833.81,-385.28"/>
    </edge>
    <edge id=":42_1" function="internal">
        <lane id=":42_1_0" index="0" disallow="pedestrian tram rail_urban rail rail_electric rail_fast ship" speed="12.58" length="34.51" width="3.50" shape="864.99,-362.66 863.05,-364.23 861.22,-365.97 859.55,-367.90 858.10,-370.02 856.92,-372.35 856.08,-374.83 855.62,-377.42 855.55,-380.03 855.83,-382.60 856.41,-385.09 857.22,-387.48 858.24,-389.79 860.03,-393.04"/>
    </edge>
    <edge id=":42_2" function="internal">
        <lane id=":42_2_0" index="0" disallow="pedestrian tram rail_urban rail rail_electric rail_fast ship" speed="11.62" length="29.29" width="3.50" shape="863.01,-391.21 861.44,-388.36 860.56,-386.37 859.86,-384.32 859.36,-382.21 859.12,-380.05 859.16,-377.89 859.53,-375.75 860.22,-373.69 861.19,-371.76 862.41,-369.96 863.83,-368.32 865.40,-366.82 867.09,-365.46"/>
    </edge>
    <edge id=":42_3" function="internal">
        <lane id=":42_3_0" index="0" disallow="pedestrian tram rail_urban rail rail_electric rail_fast ship" speed="36.11" length="38.71" width="3.50" shape="835.76,-388.19 846.05,-380.97 863.74,-367.97 867.09,-365.46"/>
    </edge>
    <edge id=":43_0" function="internal">
        <lane id=":43_0_0" index="0" disallow="pedestrian tram rail_urban rail rail_electric rail_fast ship" speed="36.11" length="27.70" width="3.50" shape="952.01,-299.61 940.64,-307.52 929.27,-315.43"/>
    </edge>
    <edge id=":43_1" function="internal">
        <lane id=":43_1_0" index="0" disallow="pedestrian tram rail_urban rail rail_electric rail_fast ship" speed="14.05" length="22.85" width="3.50" shape="952.01,-299.61 949.94,-301.24 948.07,-303.09 946.43,-305.15 944.77,-307.82 943.42,-310.67 942.22,-314.15 941.36,-317.73 941.16,-319.01"/>
    </edge>
    <edge id=":43_2" function="internal">
        <lane id=":43_2_0" index="0" disallow="pedestrian tram rail_urban rail rail_electric rail_fast ship" speed="36.11" length="27.70" width="3.50" shape="931.27,-318.30 942.64,-310.40 954.01,-302.49"/>
    </edge>
    <edge id=":44_0" function="internal">
        <lane id=":44_0_0" index="0" disallow="pedestrian tram rail_urban rail rail_electric rail_fast ship" speed="6.03" length="9.63" width="3.50" shape="918.10,-323.20 916.86,-324.00 915.93,-324.42 914.94,-324.65 913.93,-324.56 913.03,-324.08 912.34,-323.33 911.84,-322.45 911.47,-321.49 911.19,-320.51"/>
    </edge>
    <edge id=":44_1" function="internal">
        <lane id=":44_1_0" index="0" disallow="pedestrian tram rail_urban rail rail_electric rail_fast ship" speed="36.11" length="18.44" width="3.50" shape="918.10,-323.20 915.01,-325.36 903.16,-334.01"/>
    </edge>
    <edge id=":44_2" function="internal">
        <lane id=":44_2_0" index="0" disallow="pedestrian tram rail_urban rail rail_electric rail_fast ship" speed="10.72" length="18.76" width="3.50" shape="918.10,-323.20 915.63,-325.11 914.67,-326.03 913.80,-327.04 913.01,-328.11 912.35,-329.27 911.83,-330.49 911.46,-331.77 911.26,-333.09 911.21,-334.42 911.32,-335.75 912.11,-339.31"/>
    </edge>
    <edge id=":44_3" function="internal">
        <lane id=":44_3_0" index="0" disallow="pedestrian tram rail_urban rail rail_electric rail_fast ship" speed="7.07" length="14.93" width="3.50" shape="918.10,-323.20 916.13,-324.79 915.28,-325.87 914.96,-326.48 914.76,-327.14 914.70,-327.83 914.78,-328.52 915.00,-329.17 915.71,-330.36 916.65,-331.37 918.26,-332.67 920.59,-334.11"/>
    </edge>
    <edge id=":44_4" function="internal">
        <lane id=":44_4_0" index="0" disallow="pedestrian tram rail_urban rail rail_electric rail_fast ship" speed="9.49" length="14.52" width="3.50" shape="915.51,-338.51 914.79,-335.30 914.72,-334.34 914.76,-333.40 914.91,-332.48 915.18,-331.58 915.57,-330.71 916.06,-329.88 916.65,-329.09 917.33,-328.34 918.05,-327.64 920.06,-326.09"/>
    </edge>
    <edge id=":44_5" function="internal">
        <lane id=":44_5_0" index="0" disallow="pedestrian tram rail_urban rail rail_electric rail_fast ship" speed="36.11" length="18.51" width="3.50" shape="915.51,-338.51 913.08,-328.38 911.19,-320.51"/>
    </edge>
    <edge id=":44_6" function="internal">
        <lane id=":44_6_0" index="0" disallow="pedestrian tram rail_urban rail rail_electric rail_fast ship" speed="7.86" length="17.77" width="3.50" shape="915.51,-338.51 914.42,-334.52 913.42,-332.78 911.62,-331.34 909.35,-330.92 907.35,-331.38 905.73,-332.19 903.16,-334.01"/>
    </edge>
    <edge id=":44_7" function="internal">
        <lane id=":44_7_0" index="0" disallow="pedestrian tram rail_urban rail rail_electric rail_fast ship" speed="6.22" length="10.58" width="3.50" shape="905.24,-336.82 907.22,-335.39 908.09,-334.94 909.02,-334.66 909.98,-334.75 910.77,-335.30 911.26,-336.13 912.11,-339.31"/>
    </edge>
    <edge id=":44_8" function="internal">
        <lane id=":44_8_0" index="0" disallow="pedestrian tram rail_urban rail rail_electric rail_fast ship" speed="10.61" length="16.35" width="3.50" shape="905.24,-336.82 908.26,-334.75 910.25,-333.84 912.37,-333.28 914.55,-333.08 916.74,-333.23 918.88,-333.70 920.51,-334.28"/>
    </edge>
    <edge id=":44_9" function="internal">
        <lane id=":44_9_0" index="0" disallow="pedestrian tram rail_urban rail rail_electric rail_fast ship" speed="36.11" length="18.30" width="3.50" shape="905.24,-336.82 917.04,-328.22 920.06,-326.09"/>
    </edge>
    <edge id=":44_10" function="internal">
        <lane id=":44_10_0" index="0" disallow="pedestrian tram rail_urban rail rail_electric rail_fast ship" speed="10.91" length="18.70" width="3.50" shape="905.24,-336.82 907.44,-335.10 908.39,-334.18 909.25,-333.16 910.00,-332.07 910.62,-330.90 911.11,-329.67 911.47,-328.39 911.69,-327.09 911.79,-325.77 911.78,-324.44 911.47,-321.81 911.19,-320.51"/>
    </edge>
    <edge id=":44_11" function="internal">
        <lane id=":44_11_0" index="0" disallow="pedestrian tram rail_urban rail rail_electric rail_fast ship" speed="9.65" length="14.60" width="3.50" shape="907.79,-321.32 908.01,-322.36 908.27,-324.51 908.29,-325.51 908.22,-326.52 908.06,-327.50 907.80,-328.46 907.45,-329.36 907.00,-330.23 906.45,-331.04 905.82,-331.80 905.10,-332.50 903.16,-334.01"/>
    </edge>
    <edge id=":44_12" function="internal">
        <lane id=":44_12_0" index="0" disallow="pedestrian tram rail_urban rail rail_electric rail_fast ship" speed="36.11" length="18.50" width="3.50" shape="907.79,-321.32 909.68,-329.20 912.11,-339.31"/>
    </edge>
    <edge id=":44_13" function="internal">
        <lane id=":44_13_0" index="0" disallow="pedestrian tram rail_urban rail rail_electric rail_fast ship" speed="13.12" length="18.62" width="3.50" shape="907.78,-321.32 908.48,-323.34 909.51,-325.20 911.15,-327.29 913.05,-329.14 915.57,-331.10 918.71,-333.09 920.60,-334.09"/>
    </edge>
    <edge id=":44_14" function="internal">
        <lane id=":44_14_0" index="0" disallow="pedestrian tram rail_urban rail rail_electric rail_fast ship" speed="7.72" length="16.64" width="3.50" shape="907.79,-321.32 908.23,-322.87 908.84,-324.40 909.75,-325.92 911.11,-327.29 912.96,-328.17 914.96,-328.32 916.78,-327.91 918.34,-327.19 920.06,-326.09"/>
    </edge>
    <edge id=":8_0" function="internal">
        <lane id=":8_0_0" index="0" disallow="pedestrian tram rail_urban rail rail_electric rail_fast ship" speed="36.11" length="3.00" width="3.50" shape="916.01,-355.60 916.72,-358.51"/>
    </edge>

    <edge id="83741" from="44" to="41" priority="3" type="highway.residential" spreadType="center" length="16.99">
        <lane id="83741_0" index="0" disallow="pedestrian tram rail_urban rail rail_electric rail_fast ship" speed="36.11" length="16.99" width="3.50" customShape="1" shape="920.57,-334.16 922.57,-335.13 935.85,-341.58"/>
    </edge>
    <edge id="83743" from="41" to="7" priority="3" type="highway.residential" spreadType="center" length="81.58">
        <lane id="83743_0" index="0" disallow="pedestrian tram rail_urban rail rail_electric rail_fast ship" speed="36.11" length="81.58" width="3.50" customShape="1" shape="942.02,-344.50 998.67,-370.65 1016.09,-378.70"/>
    </edge>
    <edge id="83805" from="28" to="42" priority="3" type="highway.residential" spreadType="center" length="63.30" shape="911.71,-429.37 855.24,-379.64">
        <lane id="83805_0" index="0" disallow="pedestrian tram rail_urban rail rail_electric rail_fast ship" speed="36.11" length="63.30" width="3.50" customShape="1" shape="911.71,-429.37 902.20,-424.97 895.10,-421.35 889.05,-417.90 883.60,-414.42 878.34,-410.65 876.05,-408.74 873.64,-406.22 870.86,-402.72 866.77,-397.07 862.97,-391.15"/>
    </edge>
    <edge id="83806" from="42" to="27" priority="3" type="highway.residential" spreadType="center" length="65.29" shape="852.93,-382.26 910.25,-432.55">
        <lane id="83806_0" index="0" disallow="pedestrian tram rail_urban rail rail_electric rail_fast ship" speed="36.11" length="65.29" width="3.50" customShape="1" shape="860.03,-393.04 863.90,-399.07 868.10,-404.88 871.01,-408.53 873.58,-411.22 876.03,-413.28 881.45,-417.19 887.06,-420.79 893.29,-424.35 900.56,-428.07 910.25,-432.55"/>
    </edge>
    <edge id="84061" from="12" to="13" priority="3" type="highway.residential" spreadType="center" length="43.11">
        <lane id="84061_0" index="0" disallow="pedestrian tram rail_urban rail rail_electric rail_fast ship" speed="36.11" length="43.11" width="3.50" customShape="1" shape="905.80,-298.32 900.89,-278.10 895.62,-256.43"/>
    </edge>
    <edge id="84062" from="31" to="30" priority="3" type="highway.residential" spreadType="center" length="43.12">
        <lane id="84062_0" index="0" disallow="pedestrian tram rail_urban rail rail_electric rail_fast ship" speed="36.11" length="43.12" width="3.50" customShape="1" shape="892.22,-257.25 897.49,-278.92 902.40,-299.15"/>
    </edge>
    <edge id="84065" from="30" to="44" priority="3" type="highway.residential" spreadType="center" length="19.85" shape="902.75,-300.60 911.25,-330.47">
        <lane id="84065_0" index="0" disallow="pedestrian tram rail_urban rail rail_electric rail_fast ship" speed="36.11" length="19.85" width="3.50" customShape="1" shape="903.11,-302.06 905.24,-310.85 907.73,-321.09 907.76,-321.21 907.79,-321.35"/>
    </edge>
    <edge id="85427" from="43" to="16" priority="3" type="highway.residential" spreadType="center" length="11.56" shape="942.44,-313.69 963.50,-295.89">
        <lane id="85427_0" index="0" disallow="pedestrian tram rail_urban rail rail_electric rail_fast ship" speed="36.11" length="11.56" width="3.50" customShape="1" shape="954.01,-302.49 958.75,-299.19 963.50,-295.89"/>
    </edge>
    <edge id="85428" from="22" to="43" priority="3" type="highway.residential" spreadType="center" length="11.57" shape="961.50,-293.01 940.19,-311.02">
        <lane id="85428_0" index="0" disallow="pedestrian tram rail_urban rail rail_electric rail_fast ship" speed="36.11" length="11.57" width="3.50" customShape="1" shape="961.50,-293.01 956.75,-296.32 952.00,-299.62"/>
    </edge>
    <edge id="85430" from="44" to="43" priority="3" type="highway.residential" spreadType="center" length="13.65" shape="913.75,-331.43 942.32,-313.77">
        <lane id="85430_0" index="0" disallow="pedestrian tram rail_urban rail rail_electric rail_fast ship" speed="36.11" length="13.65" width="3.50" customShape="1" shape="920.06,-326.09 925.50,-322.32 931.06,-318.45 931.17,-318.38 931.27,-318.30"/>
    </edge>
    <edge id="85434" from="43" to="44" priority="3" type="highway.residential" spreadType="center" length="13.61" shape="940.48,-310.79 911.91,-328.46">
        <lane id="85434_0" index="0" disallow="pedestrian tram rail_urban rail rail_electric rail_fast ship" speed="36.11" length="13.61" width="3.50" customShape="1" shape="929.27,-315.43 929.17,-315.50 929.07,-315.57 923.50,-319.44 918.10,-323.20"/>
    </edge>
    <edge id="85470" from="42" to="26" priority="3" type="highway.residential" spreadType="center" length="19.90" shape="853.42,-379.37 817.51,-396.69">
        <lane id="85470_0" index="0" disallow="pedestrian tram rail_urban rail rail_electric rail_fast ship" speed="36.11" length="19.90" width="3.50" customShape="1" shape="833.81,-385.28 825.39,-391.02 817.51,-396.69"/>
    </edge>
    <edge id="85471" from="29" to="42" priority="3" type="highway.residential" spreadType="center" length="19.74" shape="819.61,-399.50 854.94,-382.52">
        <lane id="85471_0" index="0" disallow="pedestrian tram rail_urban rail rail_electric rail_fast ship" speed="36.11" length="19.74" width="3.50" customShape="1" shape="819.61,-399.50 827.41,-393.88 835.78,-388.18"/>
    </edge>
    <edge id="85473" from="10" to="42" priority="3" type="highway.residential" spreadType="center" length="27.08" shape="887.83,-345.52 852.84,-379.77">
        <lane id="85473_0" index="0" disallow="pedestrian tram rail_urban rail rail_electric rail_fast ship" speed="36.11" length="27.08" width="3.50" customShape="1" shape="886.63,-346.42 876.41,-354.09 864.97,-362.67"/>
    </edge>
    <edge id="85474" from="42" to="32" priority="3" type="highway.residential" spreadType="center" length="27.06" shape="855.29,-382.27 889.93,-348.32">
        <lane id="85474_0" index="0" disallow="pedestrian tram rail_urban rail rail_electric rail_fast ship" speed="36.11" length="27.06" width="3.50" customShape="1" shape="867.09,-365.46 878.51,-356.89 888.73,-349.22"/>
    </edge>
    <edge id="85477" from="32" to="44" priority="3" type="highway.residential" spreadType="center" length="17.65" shape="889.93,-348.32 914.00,-331.26">
        <lane id="85477_0" index="0" disallow="pedestrian tram rail_urban rail rail_electric rail_fast ship" speed="36.11" length="17.65" width="3.50" customShape="1" shape="891.13,-347.42 898.07,-342.21 905.24,-336.82"/>
    </edge>
    <edge id="85540" from="34" to="44" priority="3" type="highway.residential" spreadType="center" length="16.72" shape="919.76,-356.23 914.60,-329.46">
        <lane id="85540_0" index="0" disallow="pedestrian tram rail_urban rail rail_electric rail_fast ship" speed="36.11" length="16.72" width="3.50" customShape="1" shape="919.41,-354.77 917.40,-346.36 915.51,-338.51"/>
    </edge>
    <edge id="85543" from="36" to="34" priority="3" type="highway.residential" spreadType="center" length="57.11">
        <lane id="85543_0" index="0" disallow="pedestrian tram rail_urban rail rail_electric rail_fast ship" speed="36.11" length="57.11" width="3.50" customShape="1" shape="933.84,-413.12 926.80,-384.67 920.12,-357.68"/>
    </edge>
    <edge id="85544" from="8" to="9" priority="3" type="highway.residential" spreadType="center" length="57.12">
        <lane id="85544_0" index="0" disallow="pedestrian tram rail_urban rail rail_electric rail_fast ship" speed="36.11" length="57.12" width="3.50" customShape="1" shape="916.72,-358.51 923.40,-385.51 930.44,-413.96"/>
    </edge>
    <edge id="86291" from="43" to="41" priority="3" type="highway.residential" spreadType="center" length="20.27">
        <lane id="86291_0" index="0" disallow="pedestrian tram rail_urban rail rail_electric rail_fast ship" speed="36.11" length="20.27" width="3.50" customShape="1" shape="940.77,-319.00 940.44,-325.68 939.79,-339.25"/>
    </edge>
    <edge id="93359" from="44" to="12" priority="3" type="highway.residential" spreadType="center" length="19.84" shape="914.61,-329.52 906.15,-299.78">
        <lane id="93359_0" index="0" disallow="pedestrian tram rail_urban rail rail_electric rail_fast ship" speed="36.11" length="19.84" width="3.50" customShape="1" shape="911.19,-320.51 911.16,-320.39 911.13,-320.27 908.64,-310.02 906.51,-301.23"/>
    </edge>
    <edge id="94344" from="44" to="8" priority="3" type="highway.residential" spreadType="center" length="16.75" shape="911.17,-330.12 916.36,-357.06">
        <lane id="94344_0" index="0" disallow="pedestrian tram rail_urban rail rail_electric rail_fast ship" speed="36.11" length="16.75" width="3.50" customShape="1" shape="912.11,-339.31 913.99,-347.18 916.01,-355.60"/>
    </edge>
    <edge id="96338" from="44" to="10" priority="3" type="highway.residential" spreadType="center" length="17.68" shape="911.98,-328.41 887.83,-345.52">
        <lane id="96338_0" index="0" disallow="pedestrian tram rail_urban rail rail_electric rail_fast ship" speed="36.11" length="17.68" width="3.50" customShape="1" shape="903.16,-334.01 895.97,-339.41 889.02,-344.62"/>
    </edge>

    <junction id="10" type="priority" x="887.83" y="-345.52" incLanes="96338_0" intLanes=":10_0_0" shape="887.97,-343.22 890.08,-346.02 887.68,-347.82 885.57,-345.02" rightOfWay="edgePriority">
        <request index="0" response="0" foes="0" cont="0"/>
    </junction>
    <junction id="12" type="priority" x="906.15" y="-299.78" incLanes="93359_0" intLanes=":12_0_0" shape="908.21,-300.82 904.81,-301.65 904.10,-298.73 907.50,-297.91" rightOfWay="edgePriority">
        <request index="0" response="0" foes="0" cont="0"/>
    </junction>
    <junction id="13" type="dead_end" x="895.62" y="-256.43" incLanes="84061_0" intLanes="" shape="897.32,-256.02 893.92,-256.84" rightOfWay="edgePriority"/>
    <junction id="16" type="dead_end" x="963.50" y="-295.89" incLanes="85427_0" intLanes="" shape="964.49,-297.32 962.50,-294.45" rightOfWay="edgePriority"/>
    <junction id="22" type="dead_end" x="961.50" y="-293.01" incLanes="" intLanes="" shape="962.50,-294.45 960.50,-291.58" rightOfWay="edgePriority"/>
    <junction id="26" type="dead_end" x="817.51" y="-396.69" incLanes="85470_0" intLanes="" shape="816.49,-395.27 818.54,-398.11" rightOfWay="edgePriority"/>
    <junction id="27" type="dead_end" x="910.25" y="-432.55" incLanes="83806_0" intLanes="" shape="909.51,-434.14 910.98,-430.97" rightOfWay="edgePriority"/>
    <junction id="28" type="dead_end" x="911.71" y="-429.37" incLanes="" intLanes="" shape="910.98,-430.96 912.44,-427.79" rightOfWay="edgePriority"/>
    <junction id="29" type="dead_end" x="819.61" y="-399.50" incLanes="" intLanes="" shape="818.58,-398.07 820.63,-400.92" rightOfWay="edgePriority"/>
    <junction id="30" type="priority" x="902.75" y="-300.60" incLanes="84062_0" intLanes=":30_0_0" shape="904.81,-301.65 901.41,-302.47 900.70,-299.56 904.10,-298.73" rightOfWay="edgePriority">
        <request index="0" response="0" foes="0" cont="0"/>
    </junction>
    <junction id="31" type="dead_end" x="892.22" y="-257.25" incLanes="" intLanes="" shape="893.92,-256.83 890.52,-257.66" rightOfWay="edgePriority"/>
    <junction id="32" type="priority" x="889.93" y="-348.32" incLanes="85474_0" intLanes=":32_0_0" shape="890.08,-346.02 892.18,-348.82 889.78,-350.62 887.68,-347.82" rightOfWay="edgePriority">
        <request index="0" response="0" foes="0" cont="0"/>
    </junction>
    <junction id="34" type="priority" x="919.76" y="-356.23" incLanes="85543_0" intLanes=":34_0_0" shape="921.82,-357.26 918.42,-358.10 917.71,-355.18 921.11,-354.36" rightOfWay="edgePriority">
        <request index="0" response="0" foes="0" cont="0"/>
    </junction>
    <junction id="36" type="dead_end" x="933.84" y="-413.12" incLanes="" intLanes="" shape="932.14,-413.54 935.54,-412.70" rightOfWay="edgePriority"/>
    <junction id="41" type="priority" x="938.55" y="-336.78" incLanes="86291_0 83741_0" intLanes=":41_0_0 :41_1_0" shape="938.04,-339.16 941.53,-339.33 941.61,-341.04 941.77,-341.70 942.01,-342.23 942.34,-342.64 942.75,-342.91 941.29,-346.09 935.09,-343.15 936.62,-340.01 937.37,-340.20 937.65,-340.12 937.85,-339.92 937.98,-339.60">
        <request index="0" response="10" foes="10" cont="0"/>
        <request index="1" response="00" foes="01" cont="0"/>
    </junction>
    <junction id="42" type="priority" x="854.11" y="-380.97" incLanes="85473_0 83805_0 85471_0" intLanes=":42_0_0 :42_1_0 :42_2_0 :42_3_0" shape="863.94,-361.26 868.14,-366.86 864.53,-370.14 862.12,-373.66 860.91,-377.42 860.89,-381.44 862.07,-385.70 864.44,-390.20 858.56,-393.98 855.57,-390.15 852.32,-387.56 848.82,-386.21 845.06,-386.11 841.04,-387.24 836.77,-389.62 832.82,-383.84">
        <request index="0" response="0000" foes="0000" cont="0"/>
        <request index="1" response="1000" foes="1000" cont="0"/>
        <request index="2" response="1000" foes="1000" cont="0"/>
        <request index="3" response="0000" foes="0110" cont="0"/>
    </junction>
    <junction id="43" type="priority" x="941.40" y="-312.28" incLanes="85428_0 85430_0" intLanes=":43_0_0 :43_1_0 :43_2_0" shape="951.01,-298.18 955.01,-303.92 951.28,-306.70 948.21,-309.37 945.80,-311.95 944.05,-314.42 942.95,-316.80 942.51,-319.08 939.02,-318.91 938.36,-317.23 937.43,-317.12 936.11,-317.50 934.39,-318.38 932.27,-319.74 928.28,-313.99">
        <request index="0" response="000" foes="000" cont="0"/>
        <request index="1" response="100" foes="100" cont="0"/>
        <request index="2" response="000" foes="010" cont="0"/>
    </junction>
    <junction id="44" type="priority" x="912.91" y="-329.90" incLanes="85434_0 85540_0 85477_0 84065_0" intLanes=":44_0_0 :44_1_0 :44_2_0 :44_3_0 :44_4_0 :44_5_0 :44_6_0 :44_7_0 :44_8_0 :44_9_0 :44_10_0 :44_11_0 :44_12_0 :44_13_0 :44_14_0" shape="917.12,-321.75 921.04,-327.54 919.23,-329.39 919.04,-330.25 919.33,-331.07 920.09,-331.84 921.33,-332.58 919.80,-335.73 917.93,-335.22 917.37,-335.46 917.06,-336.01 917.01,-336.90 917.21,-338.10 910.41,-339.72 909.53,-337.83 908.91,-337.40 908.16,-337.33 907.28,-337.61 906.28,-338.23 902.12,-332.60 903.79,-331.13 905.05,-329.52 905.91,-327.78 906.37,-325.90 906.43,-323.88 906.09,-321.73 912.89,-320.10 913.78,-322.03 914.42,-322.48 915.19,-322.58 916.09,-322.34">
        <request index="0" response="000000000000000" foes="000010000100000" cont="0"/>
        <request index="1" response="000000000000000" foes="111110001100000" cont="0"/>
        <request index="2" response="000011110000000" foes="111011111100000" cont="0"/>
        <request index="3" response="000001100000000" foes="110001100010000" cont="0"/>
        <request index="4" response="000001100001000" foes="110001100001000" cont="0"/>
        <request index="5" response="000011100000111" foes="110011100000111" cont="0"/>
        <request index="6" response="001111100000110" foes="001111100000110" cont="0"/>