<routes>
	<vehicle depart="0.1" departLane="0" departPos="14.366624183047204" departSpeed="0.041626029" id="326" type="bus">
		<route edges="1547 1550"/>
	</vehicle>
	<vehicle depart="0.1" departLane="0" departPos="91.43333822048665" departSpeed="0.028624904" id="32" type="passenger">
		<route edges="1423 1546"/>
	</vehicle>
	<vehicle depart="0.1" departLane="0" departPos="2.5" departSpeed="1.8569837" id="324" type="passenger">
		<route edges=":33_1 1422"/>
	</vehicle>
	<vehicle depart="0.1" departLane="0" departPos="14.148247028471518" departSpeed="13.579627" id="349" type="passenger">
		<route edges=":33_5 1546 1543"/>
	</vehicle>
	<vehicle depart="0.1" departLane="0" departPos="16.575120750811408" departSpeed="13.521774" id="351" type="passenger">
		<route edges="1549 1422 2425"/>
	</vehicle>
	<vehicle depart="0.1" departLane="0" departPos="2.5" departSpeed="11.84668" id="359" type="passenger">
		<route edges=":32_5 1549 1546"/>
	</vehicle>
	<vehicle depart="0.1" departLane="0" departPos="16.40315228922977" departSpeed="7.4512438" id="363" type="passenger">
		<route edges="1552 1549"/>
	</vehicle>
</routes>
