<!-- generated on Tue Feb  9 22:06:03 2021 by Eclipse SUMO netconvert Version 1.8.0
<configuration xmlns:xsi="http://www.w3.org/2001/XMLSchema-instance" xsi:noNamespaceSchemaLocation="http://sumo.dlr.de/xsd/netconvertConfiguration.xsd">

    <input>
        <node-files value="./converted_scenarios/scenario-factory/ITA_Empoli-2_4_I-1-1/ITA_Empoli-2_4_I-1-1.nod.xml"/>
        <edge-files value="./converted_scenarios/scenario-factory/ITA_Empoli-2_4_I-1-1/ITA_Empoli-2_4_I-1-1.edg.xml"/>
        <connection-files value="./converted_scenarios/scenario-factory/ITA_Empoli-2_4_I-1-1/ITA_Empoli-2_4_I-1-1.con.xml"/>
        <tllogic-files value="./converted_scenarios/scenario-factory/ITA_Empoli-2_4_I-1-1/ITA_Empoli-2_4_I-1-1.tll.xml"/>
        <type-files value="/home/zen/commonroad-interactive-benchmarks/install/commonroad-map-tool/crmapconverter/sumo_map/templates/DEU.typ.xml"/>
    </input>

    <output>
        <output-file value="./converted_scenarios/scenario-factory/ITA_Empoli-2_4_I-1-1/ITA_Empoli-2_4_I-1-1.net.xml"/>
    </output>

    <processing>
        <geometry.remove.keep-edges.explicit value="true"/>
        <geometry.avoid-overlap value="true"/>
        <offset.disable-normalization value="true"/>
    </processing>

    <junctions>
        <no-turnarounds value="true"/>
        <junctions.internal-link-detail value="20"/>
    </junctions>

    <report>
        <aggregate-warnings value="5"/>
    </report>

    <random_number>
        <seed value="1234"/>
    </random_number>

</configuration>
--><net xmlns:xsi="http://www.w3.org/2001/XMLSchema-instance" version="1.6" junctionCornerDetail="5" junctionLinkDetail="20" limitTurnSpeed="5.50" xsi:noNamespaceSchemaLocation="http://sumo.dlr.de/xsd/net_file.xsd">

    <location netOffset="0.00,0.00" convBoundary="54.91,462.96,208.96,681.50" origBoundary="54.91,462.96,210.14,681.50" projParameter="!"/>

    <type id="highway.bridleway" priority="1" speed="2.78" allow="pedestrian" oneway="1" width="2.00"/>
    <type id="highway.bus_guideway" priority="1" speed="27.78" allow="bus" oneway="1"/>
    <type id="highway.cycleway" priority="1" speed="8.33" allow="bicycle" oneway="0" width="1.00"/>
    <type id="highway.footway" priority="1" speed="2.78" allow="pedestrian" oneway="1" width="2.00"/>
    <type id="highway.ford" priority="1" speed="2.78" allow="army" oneway="0"/>
    <type id="highway.living_street" priority="2" speed="2.78" disallow="tram rail_urban rail rail_electric rail_fast ship" oneway="0"/>
    <type id="highway.motorway" priority="14" speed="39.44" allow="private emergency authority army vip passenger hov taxi bus coach delivery truck trailer motorcycle evehicle custom1 custom2" oneway="1"/>
    <type id="highway.motorway_link" priority="9" speed="22.22" allow="private emergency authority army vip passenger hov taxi bus coach delivery truck trailer motorcycle evehicle custom1 custom2" oneway="1"/>
    <type id="highway.path" priority="1" speed="2.78" allow="pedestrian bicycle" oneway="0" width="2.00"/>
    <type id="highway.pedestrian" priority="1" speed="2.78" allow="pedestrian" oneway="1" width="2.00"/>
    <type id="highway.primary" priority="12" speed="27.78" disallow="pedestrian tram rail_urban rail rail_electric rail_fast ship" oneway="0"/>
    <type id="highway.primary_link" priority="7" speed="22.22" disallow="pedestrian tram rail_urban rail rail_electric rail_fast ship" oneway="0"/>
    <type id="highway.raceway" priority="15" speed="83.33" allow="vip" oneway="0"/>
    <type id="highway.residential" priority="3" speed="13.89" disallow="pedestrian tram rail_urban rail rail_electric rail_fast ship" oneway="0"/>
    <type id="highway.secondary" priority="11" speed="27.78" disallow="pedestrian tram rail_urban rail rail_electric rail_fast ship" oneway="0"/>
    <type id="highway.secondary_link" priority="6" speed="22.22" disallow="pedestrian tram rail_urban rail rail_electric rail_fast ship" oneway="0"/>
    <type id="highway.service" priority="1" speed="5.56" allow="pedestrian delivery bicycle" oneway="0"/>
    <type id="highway.stairs" priority="1" speed="1.39" allow="pedestrian" oneway="1" width="2.00"/>
    <type id="highway.step" priority="1" speed="1.39" allow="pedestrian" oneway="1" width="2.00"/>
    <type id="highway.steps" priority="1" speed="1.39" allow="pedestrian" oneway="1" width="2.00"/>
    <type id="highway.tertiary" priority="10" speed="22.22" disallow="pedestrian tram rail_urban rail rail_electric rail_fast ship" oneway="0"/>
    <type id="highway.tertiary_link" priority="5" speed="22.22" disallow="pedestrian tram rail_urban rail rail_electric rail_fast ship" oneway="0"/>
    <type id="highway.track" priority="1" speed="5.56" allow="pedestrian motorcycle moped bicycle" oneway="0"/>
    <type id="highway.trunk" priority="13" speed="27.78" disallow="pedestrian bicycle tram rail_urban rail rail_electric rail_fast ship" oneway="0"/>
    <type id="highway.trunk_link" priority="8" speed="22.22" disallow="pedestrian bicycle tram rail_urban rail rail_electric rail_fast ship" oneway="0"/>
    <type id="highway.unclassified" priority="4" speed="13.89" disallow="pedestrian tram rail_urban rail rail_electric rail_fast ship" oneway="0"/>
    <type id="highway.unsurfaced" priority="1" speed="8.33" disallow="tram rail_urban rail rail_electric rail_fast ship" oneway="0"/>
    <type id="railway.highspeed" priority="21" speed="69.44" allow="rail_fast" oneway="1"/>
    <type id="railway.light_rail" priority="19" speed="27.78" allow="rail_urban" oneway="1"/>
    <type id="railway.preserved" priority="16" speed="27.78" allow="rail" oneway="1"/>
    <type id="railway.rail" priority="20" speed="44.44" allow="rail" oneway="1"/>
    <type id="railway.subway" priority="18" speed="27.78" allow="rail_urban" oneway="1"/>
    <type id="railway.tram" priority="17" speed="13.89" allow="tram" oneway="1"/>

    <edge id=":10_0" function="internal">
        <lane id=":10_0_0" index="0" disallow="pedestrian tram rail_urban rail rail_electric rail_fast ship" speed="36.11" length="3.11" width="3.50" shape="196.54,534.86 193.60,535.88"/>
    </edge>
    <edge id=":3_0" function="internal">
        <lane id=":3_0_0" index="0" disallow="pedestrian tram rail_urban rail rail_electric rail_fast ship" speed="36.11" length="3.11" width="3.50" shape="192.50,532.56 195.44,531.54"/>
    </edge>
    <edge id=":31_0" function="internal">
        <lane id=":31_0_0" index="0" disallow="pedestrian tram rail_urban rail rail_electric rail_fast ship" speed="36.11" length="38.36" width="3.50" shape="113.35,645.02 107.46,626.76 101.57,608.51"/>
    </edge>
    <edge id=":31_1" function="internal">
        <lane id=":31_1_0" index="0" disallow="pedestrian tram rail_urban rail rail_electric rail_fast ship" speed="13.01" length="34.31" width="3.50" shape="113.35,645.02 112.99,643.80 112.44,641.35 112.13,638.82 112.13,636.24 112.47,633.66 113.19,631.15 114.26,628.77 115.64,626.58 117.27,624.60 119.08,622.84 121.04,621.25 124.13,619.21 127.36,617.47"/>
    </edge>
    <edge id=":31_2" function="internal">
        <lane id=":31_2_0" index="0" disallow="pedestrian tram rail_urban rail rail_electric rail_fast ship" speed="12.05" length="29.32" width="3.50" shape="128.95,620.58 126.04,622.15 123.32,623.93 121.62,625.29 120.06,626.79 118.67,628.45 117.49,630.28 116.58,632.24 115.96,634.32 115.66,636.47 115.65,638.63 115.90,640.79 116.37,642.90 116.68,643.94"/>
    </edge>
    <edge id=":31_3" function="internal">
        <lane id=":31_3_0" index="0" disallow="pedestrian tram rail_urban rail rail_electric rail_fast ship" speed="11.75" length="35.61" width="3.50" shape="128.96,620.59 126.41,621.73 123.83,622.65 121.18,623.31 118.46,623.64 117.10,623.65 115.73,623.55 114.38,623.31 113.07,622.94 111.80,622.44 110.58,621.81 109.44,621.05 108.38,620.19 107.40,619.24 105.67,617.13 104.22,614.80 103.02,612.35 101.57,608.51"/>
    </edge>
    <edge id=":31_4" function="internal">
        <lane id=":31_4_0" index="0" disallow="pedestrian tram rail_urban rail rail_electric rail_fast ship" speed="10.72" length="29.43" width="3.50" shape="104.89,607.41 106.16,610.78 107.18,612.86 108.39,614.81 109.83,616.58 110.60,617.32 111.44,618.01 112.33,618.60 113.28,619.10 114.26,619.49 115.29,619.78 116.35,619.97 117.43,620.05 118.51,620.05 120.78,619.78 123.01,619.22 125.21,618.43 127.36,617.47"/>
    </edge>
    <edge id=":31_5" function="internal">
        <lane id=":31_5_0" index="0" disallow="pedestrian tram rail_urban rail rail_electric rail_fast ship" speed="36.11" length="38.39" width="3.50" shape="104.89,607.41 110.79,625.69 116.68,643.94"/>
    </edge>
    <edge id=":32_0" function="internal">
        <lane id=":32_0_0" index="0" disallow="pedestrian tram rail_urban rail rail_electric rail_fast ship" speed="36.11" length="38.91" width="3.50" shape="76.05,529.49 70.07,510.98 64.09,492.46"/>
    </edge>
    <edge id=":32_1" function="internal">
        <lane id=":32_1_0" index="0" disallow="pedestrian tram rail_urban rail rail_electric rail_fast ship" speed="12.18" length="34.23" width="3.50" shape="76.05,529.49 75.35,527.05 74.83,524.53 74.53,521.95 74.52,519.32 74.86,516.70 75.19,515.36 75.63,514.07 76.18,512.82 76.84,511.63 77.60,510.50 78.45,509.44 79.40,508.44 81.40,506.74 83.61,505.32 85.93,504.14 89.50,502.78"/>
    </edge>
    <edge id=":32_2" function="internal">
        <lane id=":32_2_0" index="0" disallow="pedestrian tram rail_urban rail rail_electric rail_fast ship" speed="11.18" length="28.64" width="3.50" shape="90.57,506.12 87.48,507.29 85.51,508.29 83.67,509.48 81.99,510.90 81.23,511.71 80.54,512.57 79.93,513.48 79.40,514.45 78.96,515.46 78.60,516.50 78.34,517.57 78.06,519.75 78.07,521.95 78.32,524.14 78.77,526.30 79.38,528.42"/>
    </edge>
    <edge id=":32_3" function="internal">
        <lane id=":32_3_0" index="0" disallow="pedestrian tram rail_urban rail rail_electric rail_fast ship" speed="12.19" length="34.16" width="3.50" shape="90.57,506.12 86.76,507.12 84.16,507.53 81.54,507.66 78.92,507.47 77.63,507.23 76.36,506.89 75.12,506.45 73.93,505.89 72.79,505.24 71.71,504.49 70.70,503.65 68.89,501.75 67.35,499.62 66.06,497.33 64.98,494.94 64.09,492.46"/>
    </edge>
    <edge id=":32_4" function="internal">
        <lane id=":32_4_0" index="0" disallow="pedestrian tram rail_urban rail rail_electric rail_fast ship" speed="11.19" length="28.60" width="3.50" shape="67.42,491.37 68.20,493.54 69.12,495.60 70.22,497.55 71.50,499.32 73.01,500.91 73.80,501.56 74.67,502.17 75.58,502.69 76.54,503.13 77.53,503.49 78.55,503.77 79.58,503.96 81.77,504.12 83.98,504.00 86.18,503.66 89.50,502.78"/>
    </edge>
    <edge id=":32_5" function="internal">
        <lane id=":32_5_0" index="0" disallow="pedestrian tram rail_urban rail rail_electric rail_fast ship" speed="36.11" length="38.93" width="3.50" shape="67.42,491.37 73.40,509.90 79.38,528.42"/>
    </edge>
    <edge id=":33_0" function="internal">
        <lane id=":33_0_0" index="0" disallow="pedestrian tram rail_urban rail rail_electric rail_fast ship" speed="36.11" length="38.63" width="3.50" shape="94.34,586.11 88.39,567.70 82.47,549.35"/>
    </edge>
    <edge id=":33_1" function="internal">
        <lane id=":33_1_0" index="0" disallow="pedestrian tram rail_urban rail rail_electric rail_fast ship" speed="12.22" length="34.55" width="3.50" shape="94.34,586.11 93.30,582.23 92.88,579.61 92.73,576.96 92.91,574.31 93.15,573.01 93.49,571.72 93.93,570.47 94.48,569.27 95.14,568.11 95.90,567.02 96.75,566.00 97.67,565.05 99.72,563.36 101.96,561.94 104.34,560.76 108.07,559.36"/>
    </edge>
    <edge id=":33_2" function="internal">
        <lane id=":33_2_0" index="0" disallow="pedestrian tram rail_urban rail rail_electric rail_fast ship" speed="11.22" length="28.96" width="3.50" shape="109.14,562.69 105.87,563.91 103.85,564.92 101.96,566.11 100.24,567.53 99.51,568.29 98.83,569.12 98.22,569.99 97.69,570.91 97.25,571.88 96.89,572.89 96.62,573.93 96.43,574.96 96.28,577.19 96.40,579.42 96.76,581.65 97.67,585.04"/>
    </edge>
    <edge id=":33_3" function="internal">
        <lane id=":33_3_0" index="0" disallow="pedestrian tram rail_urban rail rail_electric rail_fast ship" speed="12.19" length="34.07" width="3.50" shape="109.14,562.69 106.69,563.38 104.18,563.89 101.61,564.18 98.99,564.18 96.39,563.85 95.05,563.52 93.77,563.09 92.52,562.55 91.33,561.90 90.20,561.15 89.14,560.31 88.14,559.37 86.43,557.37 85.00,555.18 83.82,552.87 82.47,549.35"/>
    </edge>
    <edge id=":33_4" function="internal">
        <lane id=":33_4_0" index="0" disallow="pedestrian tram rail_urban rail rail_electric rail_fast ship" speed="11.19" length="28.53" width="3.50" shape="85.79,548.24 86.97,551.31 87.96,553.27 89.17,555.10 90.59,556.77 91.40,557.52 92.26,558.20 93.17,558.80 94.14,559.33 95.15,559.76 96.19,560.11 97.25,560.37 99.43,560.65 101.62,560.64 103.80,560.39 105.95,559.95 108.07,559.36"/>
    </edge>
    <edge id=":33_5" function="internal">
        <lane id=":33_5_0" index="0" disallow="pedestrian tram rail_urban rail rail_electric rail_fast ship" speed="36.11" length="38.67" width="3.50" shape="85.79,548.24 91.72,566.62 97.67,585.04"/>
    </edge>

    <edge id="1350" from="27" to="31" priority="3" type="highway.residential" spreadType="center" length="69.99" shape="190.44,587.31 116.23,625.40">
        <lane id="1350_0" index="0" disallow="pedestrian tram rail_urban rail rail_electric rail_fast ship" speed="36.11" length="69.99" width="3.50" customShape="1" shape="190.44,587.31 186.23,589.19 178.98,592.82 169.63,597.91 148.56,610.07 137.48,616.23 128.91,620.61"/>
    </edge>
    <edge id="1351" from="31" to="23" priority="3" type="highway.residential" spreadType="center" length="70.00" shape="114.63,622.28 188.90,584.17">
        <lane id="1351_0" index="0" disallow="pedestrian tram rail_urban rail rail_electric rail_fast ship" speed="36.11" length="70.00" width="3.50" customShape="1" shape="127.36,617.47 136.02,613.04 147.22,606.80 168.63,594.46 178.18,589.29 185.63,585.61 188.90,584.17"/>
    </edge>
    <edge id="1416" from="26" to="32" priority="3" type="highway.residential" spreadType="center" length="70.00" shape="157.23,484.76 78.33,510.11">
        <lane id="1416_0" index="0" disallow="pedestrian tram rail_urban rail rail_electric rail_fast ship" speed="36.11" length="70.00" width="3.50" customShape="1" shape="157.23,484.76 134.27,492.12 90.57,506.12"/>
    </edge>
    <edge id="1417" from="32" to="19" priority="3" type="highway.residential" spreadType="center" length="70.00" shape="77.26,506.78 156.16,481.43">
        <lane id="1417_0" index="0" disallow="pedestrian tram rail_urban rail rail_electric rail_fast ship" speed="36.11" length="70.00" width="3.50" customShape="1" shape="89.50,502.78 133.20,488.78 156.16,481.43"/>
    </edge>
    <edge id="1422" from="33" to="3" priority="3" type="highway.residential" spreadType="center" length="88.58" shape="95.68,563.47 193.98,532.09">
        <lane id="1422_0" index="0" disallow="pedestrian tram rail_urban rail rail_electric rail_fast ship" speed="36.11" length="88.58" width="3.50" customShape="1" shape="108.07,559.36 151.02,545.73 192.50,532.56"/>
    </edge>
    <edge id="1423" from="10" to="33" priority="3" type="highway.residential" spreadType="center" length="88.62" shape="195.08,535.41 96.75,566.80">
        <lane id="1423_0" index="0" disallow="pedestrian tram rail_urban rail rail_electric rail_fast ship" speed="36.11" length="88.62" width="3.50" customShape="1" shape="193.60,535.88 152.08,549.06 109.13,562.69"/>
    </edge>
    <edge id="1543" from="31" to="22" priority="3" type="highway.residential" spreadType="center" length="38.33" shape="117.17,623.43 128.46,680.42">
        <lane id="1543_0" index="0" disallow="pedestrian tram rail_urban rail rail_electric rail_fast ship" speed="36.11" length="38.33" width="3.50" customShape="1" shape="116.68,643.94 122.57,662.18 128.46,680.42"/>
    </edge>
    <edge id="1544" from="29" to="31" priority="3" type="highway.residential" spreadType="center" length="38.35" shape="125.13,681.50 113.73,624.11">
        <lane id="1544_0" index="0" disallow="pedestrian tram rail_urban rail rail_electric rail_fast ship" speed="36.11" length="38.35" width="3.50" customShape="1" shape="125.13,681.50 119.24,663.26 113.35,645.00"/>
    </edge>
    <edge id="1546" from="33" to="31" priority="3" type="highway.residential" spreadType="center" length="23.53" shape="97.89,564.53 117.12,623.28">
        <lane id="1546_0" index="0" disallow="pedestrian tram rail_urban rail rail_electric rail_fast ship" speed="36.11" length="23.53" width="3.50" customShape="1" shape="97.67,585.04 101.28,596.22 104.90,607.43"/>
    </edge>
    <edge id="1547" from="31" to="33" priority="3" type="highway.residential" spreadType="center" length="23.57" shape="113.80,624.37 94.56,565.62">
        <lane id="1547_0" index="0" disallow="pedestrian tram rail_urban rail rail_electric rail_fast ship" speed="36.11" length="23.57" width="3.50" customShape="1" shape="101.57,608.51 97.95,597.30 94.33,586.08"/>
    </edge>
    <edge id="1549" from="32" to="33" priority="3" type="highway.residential" spreadType="center" length="20.86" shape="79.50,507.90 97.92,564.64">
        <lane id="1549_0" index="0" disallow="pedestrian tram rail_urban rail rail_electric rail_fast ship" speed="36.11" length="20.86" width="3.50" customShape="1" shape="79.38,528.42 82.58,538.33 85.80,548.27"/>
    </edge>
    <edge id="1550" from="33" to="32" priority="3" type="highway.residential" spreadType="center" length="20.89" shape="94.59,565.72 76.17,508.98">
        <lane id="1550_0" index="0" disallow="pedestrian tram rail_urban rail rail_electric rail_fast ship" speed="36.11" length="20.89" width="3.50" customShape="1" shape="82.47,549.35 79.25,539.40 76.04,529.47"/>
    </edge>
    <edge id="1552" from="28" to="32" priority="3" type="highway.residential" spreadType="center" length="29.88" shape="58.24,462.96 79.44,507.74">
        <lane id="1552_0" index="0" disallow="pedestrian tram rail_urban rail rail_electric rail_fast ship" speed="36.11" length="29.88" width="3.50" customShape="1" shape="58.24,462.96 62.83,477.17 67.42,491.39"/>
    </edge>
    <edge id="1553" from="32" to="21" priority="3" type="highway.residential" spreadType="center" length="29.88" shape="76.28,509.24 54.91,464.03">
        <lane id="1553_0" index="0" disallow="pedestrian tram rail_urban rail rail_electric rail_fast ship" speed="36.11" length="29.88" width="3.50" customShape="1" shape="64.09,492.46 59.50,478.25 54.91,464.03"/>
    </edge>
    <edge id="2425" from="3" to="11" priority="3" type="highway.residential" spreadType="center" length="26.62">
        <lane id="2425_0" index="0" disallow="pedestrian tram rail_urban rail rail_electric rail_fast ship" speed="36.11" length="26.62" width="3.50" customShape="1" shape="195.44,531.54 197.02,530.94 198.96,529.97 200.78,528.80 202.45,527.42 203.20,526.64 203.89,525.80 204.51,524.91 205.05,523.97 205.51,522.99 205.89,521.97 206.40,519.87 206.61,517.71 206.56,515.54 206.30,513.39 205.58,510.22"/>
    </edge>
    <edge id="2429" from="30" to="10" priority="3" type="highway.residential" spreadType="center" length="31.98">
        <lane id="2429_0" index="0" disallow="pedestrian tram rail_urban rail rail_electric rail_fast ship" speed="36.11" length="31.98" width="3.50" customShape="1" shape="208.96,509.32 209.77,512.93 210.09,515.47 210.14,518.04 209.89,520.64 209.27,523.17 208.80,524.45 208.23,525.66 207.55,526.82 206.79,527.91 205.94,528.94 205.00,529.91 203.01,531.56 200.84,532.95 198.55,534.10 196.54,534.86"/>
    </edge>

    <junction id="10" type="priority" x="195.08" y="535.41" incLanes="2429_0" intLanes=":10_0_0" shape="197.16,536.50 195.92,533.23 193.07,534.21 194.13,537.55" rightOfWay="edgePriority">
        <request index="0" response="0" foes="0" cont="0"/>
    </junction>
    <junction id="11" type="dead_end" x="205.58" y="510.22" incLanes="2425_0" intLanes="" shape="203.87,510.61 207.29,509.84" rightOfWay="edgePriority"/>
    <junction id="19" type="dead_end" x="156.16" y="481.43" incLanes="1417_0" intLanes="" shape="155.63,479.76 156.70,483.10" rightOfWay="edgePriority"/>
    <junction id="21" type="dead_end" x="54.91" y="464.03" incLanes="1553_0" intLanes="" shape="53.25,464.57 56.58,463.49" rightOfWay="edgePriority"/>
    <junction id="22" type="dead_end" x="128.46" y="680.42" incLanes="1543_0" intLanes="" shape="130.13,679.88 126.80,680.96" rightOfWay="edgePriority"/>
    <junction id="23" type="dead_end" x="188.90" y="584.17" incLanes="1351_0" intLanes="" shape="188.19,582.57 189.60,585.78" rightOfWay="edgePriority"/>
    <junction id="26" type="dead_end" x="157.23" y="484.76" incLanes="" intLanes="" shape="156.70,483.10 157.76,486.43" rightOfWay="edgePriority"/>
    <junction id="27" type="dead_end" x="190.44" y="587.31" incLanes="" intLanes="" shape="189.73,585.71 191.16,588.90" rightOfWay="edgePriority"/>
    <junction id="28" type="dead_end" x="58.24" y="462.96" incLanes="" intLanes="" shape="56.58,463.49 59.91,462.42" rightOfWay="edgePriority"/>
    <junction id="29" type="dead_end" x="125.13" y="681.50" incLanes="" intLanes="" shape="126.80,680.96 123.47,682.04" rightOfWay="edgePriority"/>
    <junction id="3" type="priority" x="193.98" y="532.09" incLanes="1422_0" intLanes=":3_0_0" shape="196.06,533.18 194.82,529.90 191.97,530.90 193.02,534.23" rightOfWay="edgePriority">
        <request index="0" response="0" foes="0" cont="0"/>
    </junction>
    <junction id="30" type="dead_end" x="208.96" y="509.32" incLanes="" intLanes="" shape="207.25,509.71 210.67,508.94" rightOfWay="edgePriority"/>
    <junction id="31" type="priority" x="115.46" y="623.82" incLanes="1544_0 1350_0 1546_0" intLanes=":31_0_0 :31_1_0 :31_2_0 :31_3_0 :31_4_0 :31_5_0" shape="111.69,645.55 118.35,643.40 117.48,639.13 117.72,635.16 119.06,631.47 121.52,628.07 125.08,624.96 129.75,622.14 126.56,615.91 121.93,617.75 117.82,618.25 114.23,617.41 111.16,615.24 108.60,611.74 106.56,606.90 99.90,609.05">
        <request index="0" response="000000" foes="001000" cont="0"/>
        <request index="1" response="110000" foes="111000" cont="0"/>
        <request index="2" response="100000" foes="100000" cont="0"/>
        <request index="3" response="100011" foes="100011" cont="0"/>
        <request index="4" response="000000" foes="000010" cont="0"/>
        <request index="5" response="000000" foes="001110" cont="0"/>
    </junction>
    <junction id="32" type="priority" x="77.83" y="508.44" incLanes="1550_0 1416_0 1552_0" intLanes=":32_0_0 :32_1_0 :32_2_0 :32_3_0 :32_4_0 :32_5_0" shape="74.39,530.03 81.05,527.88 79.95,523.07 79.97,518.85 81.09,515.21 83.32,512.15 86.66,509.67 91.10,507.78 88.97,501.12 84.24,502.17 80.09,502.11 76.49,500.96 73.46,498.69 70.99,495.32 69.09,490.85 62.43,493.00">
        <request index="0" response="000000" foes="001000" cont="0"/>
        <request index="1" response="110000" foes="111000" cont="0"/>
        <request index="2" response="100000" foes="100000" cont="0"/>
        <request index="3" response="100011" foes="100011" cont="0"/>
        <request index="4" response="000000" foes="000010" cont="0"/>
        <request index="5" response="000000" foes="001110" cont="0"/>
    </junction>
    <junction id="33" type="priority" x="96.24" y="565.13" incLanes="1547_0 1423_0 1549_0" intLanes=":33_0_0 :33_1_0 :33_2_0 :33_3_0 :33_4_0 :33_5_0" shape="92.67,586.65 99.33,584.50 98.25,579.69 98.28,575.46 99.44,571.82 101.72,568.75 105.13,566.26 109.66,564.36 107.54,557.69 102.73,558.76 98.51,558.74 94.87,557.63 91.82,555.42 89.35,552.13 87.46,547.74 80.80,549.89">
        <request index="0" response="000000" foes="001000" cont="0"/>
        <request index="1" response="110000" foes="111000" cont="0"/>
        <request index="2" response="100000" foes="100000" cont="0"/>
        <request index="3" response="100011" foes="100011" cont="0"/>
        <request index="4" response="000000" foes="000010" cont="0"/>
        <request index="5" response="000000" foes="001110" cont="0"/>
    </junction>

    <connection from="1350" to="1543" fromLane="0" toLane="0" contPos="-4.00" shape="128.91,620.61 126.04,622.15 123.32,623.93 121.62,625.29 120.06,626.79 118.67,628.45 117.49,630.28 116.58,632.24 115.96,634.32 115.66,636.47 115.65,638.63 115.90,640.79 116.37,642.90 116.68,643.94" via=":31_2_0" dir="r" state="m"/>
    <connection from="1350" to="1547" fromLane="0" toLane="0" contPos="-4.00" shape="128.91,620.61 126.41,621.73 123.83,622.65 121.18,623.31 118.46,623.64 117.10,623.65 115.73,623.55 114.38,623.31 113.07,622.94 111.80,622.44 110.58,621.81 109.44,621.05 108.38,620.19 107.40,619.24 105.67,617.13 104.22,614.80 103.02,612.35 101.57,608.51" via=":31_3_0" dir="l" state="m"/>
    <connection from="1416" to="1549" fromLane="0" toLane="0" contPos="-4.00" shape="90.57,506.12 87.48,507.29 85.51,508.29 83.67,509.48 81.99,510.90 81.23,511.71 80.54,512.57 79.93,513.48 79.40,514.45 78.96,515.46 78.60,516.50 78.34,517.57 78.06,519.75 78.07,521.95 78.32,524.14 78.77,526.30 79.38,528.42" via=":32_2_0" dir="r" state="m"/>
    <connection from="1416" to="1553" fromLane="0" toLane="0" contPos="-4.00" shape="90.57,506.12 86.76,507.12 84.16,507.53 81.54,507.66 78.92,507.47 77.63,507.23 76.36,506.89 75.12,506.45 73.93,505.89 72.79,505.24 71.71,504.49 70.70,503.65 68.89,501.75 67.35,499.62 66.06,497.33 64.98,494.94 64.09,492.46" via=":32_3_0" dir="l" state="m"/>
    <connection from="1422" to="2425" fromLane="0" toLane="0" contPos="-4.00" via=":3_0_0" dir="r" state="M"/>
    <connection from="1423" to="1546" fromLane="0" toLane="0" contPos="-4.00" shape="109.14,562.69 105.87,563.91 103.85,564.92 101.96,566.11 100.24,567.53 99.51,568.29 98.83,569.12 98.22,569.99 97.69,570.91 97.25,571.88 96.89,572.89 96.62,573.93 96.43,574.96 96.28,577.19 96.40,579.42 96.76,581.65 97.67,585.04" via=":33_2_0" dir="r" state="m"/>
    <connection from="1423" to="1550" fromLane="0" toLane="0" contPos="-4.00" shape="109.14,562.69 106.69,563.38 104.18,563.89 101.61,564.18 98.99,564.18 96.39,563.85 95.05,563.52 93.77,563.09 92.52,562.55 91.33,561.90 90.20,561.15 89.14,560.31 88.14,559.37 86.43,557.37 85.00,555.18 83.82,552.87 82.47,549.35" via=":33_3_0" dir="l" state="m"/>
    <connection from="1544" to="1547" fromLane="0" toLane="0" contPos="-4.00" shape="113.35,645.00 107.46,626.76 101.57,608.51" via=":31_0_0" dir="s" state="M"/>
    <connection from="1544" to="1351" fromLane="0" toLane="0" contPos="-4.00" shape="113.35,645.00 112.99,643.80 112.44,641.35 112.13,638.82 112.13,636.24 112.47,633.66 113.19,631.15 114.26,628.77 115.64,626.58 117.27,624.60 119.08,622.84 121.04,621.25 124.13,619.21 127.36,617.47" via=":31_1_0" dir="l" state="m"/>
    <connection from="1546" to="1351" fromLane="0" toLane="0" contPos="-4.00" shape="104.89,607.41 106.16,610.78 107.18,612.86 108.39,614.81 109.83,616.58 110.60,617.32 111.44,618.01 112.33,618.60 113.28,619.10 114.26,619.49 115.29,619.78 116.35,619.97 117.43,620.05 118.51,620.05 120.78,619.78 123.01,619.22 125.21,618.43 127.36,617.47" via=":31_4_0" dir="r" state="M"/>
    <connection from="1546" to="1543" fromLane="0" toLane="0" contPos="-4.00" shape="104.89,607.41 110.79,625.69 116.68,643.94" via=":31_5_0" dir="s" state="M"/>
    <connection from="1547" to="1550" fromLane="0" toLane="0" contPos="-4.00" shape="94.33,586.08 88.39,567.70 82.47,549.35" via=":33_0_0" dir="s" state="M"/>
    <connection from="1547" to="1422" fromLane="0" toLane="0" contPos="-4.00" shape="94.33,586.08 93.30,582.23 92.88,579.61 92.73,576.96 92.91,574.31 93.15,573.01 93.49,571.72 93.93,570.47 94.48,569.27 95.14,568.11 95.90,567.02 96.75,566.00 97.67,565.05 99.72,563.36 101.96,561.94 104.34,560.76 108.07,559.36" via=":33_1_0" dir="l" state="m"/>
    <connection from="1549" to="1422" fromLane="0" toLane="0" contPos="-4.00" shape="85.79,548.24 86.97,551.31 87.96,553.27 89.17,555.10 90.59,556.77 91.40,557.52 92.26,558.20 93.17,558.80 94.14,559.33 95.15,559.76 96.19,560.11 97.25,560.37 99.43,560.65 101.62,560.64 103.80,560.39 105.95,559.95 108.07,559.36" via=":33_4_0" dir="r" state="M"/>
    <connection from="1549" to="1546" fromLane="0" toLane="0" contPos="-4.00" shape="85.79,548.24 91.72,566.62 97.67,585.04" via=":33_5_0" dir="s" state="M"/>
    <connection from="1550" to="1553" fromLane="0" toLane="0" contPos="-4.00" shape="76.04,529.47 70.07,510.98 64.09,492.46" via=":32_0_0" dir="s" state="M"/>
    <connection from="1550" to="1417" fromLane="0" toLane="0" contPos="-4.00" shape="76.04,529.47 75.35,527.05 74.83,524.53 74.53,521.95 74.52,519.32 74.86,516.70 75.19,515.36 75.63,514.07 76.18,512.82 76.84,511.63 77.60,510.50 78.45,509.44 79.40,508.44 81.40,506.74 83.61,505.32 85.93,504.14 89.50,502.78" via=":32_1_0" dir="l" state="m"/>
    <connection from="1552" to="1417" fromLane="0" toLane="0" contPos="-4.00" shape="67.42,491.37 68.20,493.54 69.12,495.60 70.22,497.55 71.50,499.32 73.01,500.91 73.80,501.56 74.67,502.17 75.58,502.69 76.54,503.13 77.53,503.49 78.55,503.77 79.58,503.96 81.77,504.12 83.98,504.00 86.18,503.66 89.50,502.78" via=":32_4_0" dir="r" state="M"/>
    <connection from="1552" to="1549" fromLane="0" toLane="0" contPos="-4.00" shape="67.42,491.37 73.40,509.90 79.38,528.42" via=":32_5_0" dir="s" state="M"/>
    <connection from="2429" to="1423" fromLane="0" toLane="0" contPos="-4.00" via=":10_0_0" dir="l" state="M"/>

    <connection from=":10_0" to="1423" fromLane="0" toLane="0" dir="l" state="M"/>
    <connection from=":3_0" to="2425" fromLane="0" toLane="0" dir="r" state="M"/>
    <connection from=":31_0" to="1547" fromLane="0" toLane="0" dir="s" state="M"/>
    <connection from=":31_1" to="1351" fromLane="0" toLane="0" dir="l" state="M"/>
    <connection from=":31_2" to="1543" fromLane="0" toLane="0" dir="r" state="M"/>
    <connection from=":31_3" to="1547" fromLane="0" toLane="0" dir="l" state="M"/>
    <connection from=":31_4" to="1351" fromLane="0" toLane="0" dir="r" state="M"/>