<!-- generated on 2020-12-18 16:02:19.078720 by ipykernel_launcher.py v1_2_0+5214-53edc58fcd
-->
<edges>
	<edge from="1" function="normal" id="3498" length="9.586095898357163" numLanes="1" priority="1" speed="36.11111111111111" spreadType="center" to="2">
		<lane allow="moped bicycle pedestrian custom1 trailer evehicle rail_urban ship private truck vip custom2 authority delivery rail_electric taxi tram army hov coach motorcycle passenger bus rail emergency" index="0" length="9.586095898357163" shape="45.19025,21.8219 35.6095,22.142" speed="36.11111111111111" width="4.771086938004798"/>
	</edge>
	<edge from="2" function="normal" id="3716" length="18.680147901632278" numLanes="1" priority="1" speed="36.11111111111111" spreadType="center" to="3">
		<lane allow="moped bicycle pedestrian custom1 trailer evehicle rail_urban ship private vip custom2 authority delivery rail_electric taxi tram army hov coach motorcycle passenger rail emergency" index="0" length="18.680147901632278" shape="35.6095,22.142 31.62565,23.5834 28.770049999999998,26.08605 27.71855,28.47615 27.015900000000002,30.5044 27.160899999999998,33.6494 28.15205,36.204350000000005" speed="36.11111111111111" width="3.353872355949164"/>
	</edge>
	<edge from="4" function="normal" id="3509" length="15.63298084853255" numLanes="3" priority="1" speed="36.11111111111111" spreadType="center" to="5">
		<lane allow="moped bicycle pedestrian custom1 trailer evehicle rail_urban ship private truck vip custom2 authority delivery rail_electric taxi tram army hov coach motorcycle passenger bus rail emergency" index="0" length="15.63298084853255" shape="-65.6028,-43.19745 -61.206599999999995,-45.378299999999996 -51.59615,-50.16185" speed="36.11111111111111" width="3.2317602711216122"/>
		<lane allow="moped bicycle pedestrian custom1 trailer evehicle rail_urban ship private truck vip custom2 authority delivery rail_electric taxi tram army hov coach motorcycle passenger bus rail emergency" index="1" length="15.63298084853255" shape="-64.21325,-40.3964 -59.77585,-42.5977 -50.165350000000004,-47.381249999999994" speed="36.11111111111111" width="3.021792416761937"/>
		<lane allow="moped bicycle pedestrian custom1 trailer evehicle rail_urban ship private truck vip custom2 authority delivery rail_electric taxi tram army hov coach motorcycle passenger bus rail emergency" index="2" length="15.63298084853255" shape="-62.8621,-37.67275 -58.3695,-39.901399999999995 -48.858599999999996,-44.622" speed="36.11111111111111" width="3.058956104621318"/>
	</edge>
	<edge from="5" function="normal" id="3672" length="43.42964317851892" numLanes="1" priority="1" speed="36.11111111111111" spreadType="center" to="6">
		<lane allow="moped bicycle pedestrian custom1 trailer evehicle rail_urban ship private vip custom2 authority delivery rail_electric taxi tram army hov coach motorcycle passenger rail emergency" index="0" length="43.42964317851892" shape="-48.858599999999996,-44.622 -43.7014,-47.16235 -40.1186,-48.64685 -36.27275,-50.0055 -33.49205,-50.9758 -31.0061,-51.47265 -28.771250000000002,-51.685050000000004 -26.43505,-51.56805 -24.790550000000003,-51.43365 -23.6811,-51.177400000000006 -22.741349999999997,-50.5944 -21.8221,-49.2442 -20.6664,-47.31585 -17.99895,-43.0784 -16.4252,-40.026650000000004 -14.95345,-36.914500000000004" speed="36.11111111111111" width="2.917182176347577"/>
	</edge>
	<edge from="6" function="normal" id="3456" length="24.71092057982316" numLanes="3" priority="1" speed="36.11111111111111" spreadType="center" to="7">
		<lane allow="moped bicycle pedestrian custom1 trailer evehicle rail_urban ship private truck vip custom2 authority delivery rail_electric taxi tram army hov coach motorcycle passenger bus rail emergency" index="0" length="24.71092057982316" shape="-9.4268,-39.6742 -5.8309999999999995,-32.480599999999995 -1.9776500000000001,-24.563499999999998 1.385,-17.4551" speed="36.11111111111111" width="3.047668597469219"/>
		<lane allow="moped bicycle pedestrian custom1 trailer evehicle rail_urban ship private truck vip custom2 authority delivery rail_electric taxi tram army hov coach motorcycle passenger bus rail emergency" index="1" length="24.71092057982316" shape="-12.25565,-38.27995 -8.39555,-30.71305 -4.7173,-23.14745 -1.2784499999999999,-16.117" speed="36.11111111111111" width="2.914824113046961"/>
		<lane allow="moped bicycle pedestrian custom1 trailer evehicle rail_urban ship private truck vip custom2 authority delivery rail_electric taxi tram army hov coach motorcycle passenger bus rail emergency" index="2" length="24.71092057982316" shape="-14.95345,-36.914500000000004 -11.02495,-29.1523 -7.2365,-21.44975 -3.86495,-14.803149999999999" speed="36.11111111111111" width="2.888004380190584"/>
	</edge>
	<edge from="7" function="normal" id="3462" length="8.466645302154802" numLanes="3" priority="1" speed="36.11111111111111" spreadType="center" to="8">
		<lane allow="moped bicycle pedestrian custom1 trailer evehicle rail_urban ship private truck vip custom2 authority delivery rail_electric taxi tram army hov coach motorcycle passenger bus rail emergency" index="0" length="8.466645302154802" shape="1.385,-17.4551 5.2643,-9.89235" speed="36.11111111111111" width="3.047668597469219"/>
		<lane allow="moped bicycle pedestrian custom1 trailer evehicle rail_urban ship private truck vip custom2 authority delivery rail_electric taxi tram army hov coach motorcycle passenger bus rail emergency" index="1" length="8.466645302154802" shape="-1.2784499999999999,-16.117 2.53965,-8.5073" speed="36.11111111111111" width="2.914824113046961"/>
		<lane allow="moped bicycle pedestrian custom1 trailer evehicle rail_urban ship private truck vip custom2 authority delivery rail_electric taxi tram army hov coach motorcycle passenger bus rail emergency" index="2" length="8.466645302154802" shape="-3.86495,-14.803149999999999 -0.12429999999999997,-7.20765" speed="36.11111111111111" width="2.888004380190584"/>
	</edge>
	<edge from="8" function="normal" id="3468" length="22.238196627283088" numLanes="3" priority="1" speed="36.11111111111111" spreadType="center" to="9">
		<lane allow="moped bicycle pedestrian custom1 trailer evehicle rail_urban ship private truck vip custom2 authority delivery rail_electric taxi tram army hov coach motorcycle passenger bus rail emergency" index="0" length="22.238196627283088" shape="5.2643,-9.89235 9.86365,-0.6008 15.2403,10.080200000000001" speed="36.11111111111111" width="3.0326639856733224"/>
		<lane allow="moped bicycle pedestrian custom1 trailer evehicle rail_urban ship private truck vip custom2 authority delivery rail_electric taxi tram army hov coach motorcycle passenger bus rail emergency" index="1" length="22.238196627283088" shape="2.53965,-8.5073 7.1859,0.81445 12.437750000000001,11.42025" speed="36.11111111111111" width="2.9980111023810436"/>
		<lane allow="moped bicycle pedestrian custom1 trailer evehicle rail_urban ship private truck vip custom2 authority delivery rail_electric taxi tram army hov coach motorcycle passenger bus rail emergency" index="2" length="22.238196627283088" shape="-0.12429999999999997,-7.20765 4.49205,2.1914 9.6814,12.75195" speed="36.11111111111111" width="2.9350875710956217"/>
	</edge>
	<edge from="9" function="normal" id="3713" length="29.142816807837434" numLanes="3" priority="1" speed="36.11111111111111" spreadType="center" to="10">
		<lane allow="moped bicycle pedestrian custom1 trailer evehicle rail_urban ship private truck vip custom2 authority delivery rail_electric taxi tram army hov coach motorcycle passenger bus rail emergency" index="0" length="29.142816807837434" shape="15.2403,10.080200000000001 19.15645,18.073349999999998 23.103050000000003,26.0199 26.85915,33.63055 28.0325,36.263099999999994" speed="36.11111111111111" width="3.1576335062828282"/>
		<lane allow="moped bicycle pedestrian custom1 trailer evehicle rail_urban ship private truck vip custom2 authority delivery rail_electric taxi tram army hov coach motorcycle passenger rail emergency" index="1" length="29.142816807837434" shape="12.437750000000001,11.42025 15.875250000000001,18.358249999999998 19.82175,26.304850000000002 23.9924,34.80215 25.2774,37.6165" speed="36.11111111111111" width="2.9348672269797844"/>
		<lane allow="moped bicycle pedestrian custom1 trailer evehicle rail_urban ship private truck vip custom2 authority delivery rail_electric taxi tram army hov coach motorcycle passenger bus rail emergency" index="2" length="29.142816807837434" shape="9.6814,12.75195 12.514,18.451999999999998 16.34875,26.1539 21.1873,35.96525 22.57345,38.94475" speed="36.11111111111111" width="3.0673220453679138"/>
	</edge>
	<edge from="5" function="normal" id="3636" length="10.130444963203743" numLanes="2" priority="1" speed="36.11111111111111" spreadType="center" to="11">
		<lane allow="moped bicycle pedestrian custom1 trailer evehicle rail_urban ship private truck vip custom2 authority delivery rail_electric taxi tram army hov coach motorcycle passenger bus rail emergency" index="0" length="10.130444963203743" shape="-51.59615,-50.16185 -42.58505,-54.8472" speed="36.11111111111111" width="3.2321866189934005"/>
		<lane allow="moped bicycle pedestrian custom1 trailer evehicle rail_urban ship private truck vip custom2 authority delivery rail_electric taxi tram army hov coach motorcycle passenger bus rail emergency" index="1" length="10.130444963203743" shape="-50.165350000000004,-47.381249999999994 -41.14065,-51.9835" speed="36.11111111111111" width="3.025465626973808"/>
	</edge>
	<edge from="11" function="normal" id="3658" length="24.83401336288985" numLanes="2" priority="1" speed="36.11111111111111" spreadType="center" to="12">
		<lane allow="moped bicycle pedestrian custom1 trailer evehicle rail_urban ship private truck vip custom2 authority delivery rail_electric taxi tram army hov coach motorcycle passenger bus rail emergency" index="0" length="24.83401336288985" shape="-42.58505,-54.8472 -39.68925,-56.3531 -37.03375,-57.733850000000004 -34.3168,-59.146550000000005 -31.3285,-60.700450000000004 -28.626849999999997,-62.10535 -25.98215,-63.48049999999999 -23.2666,-64.8925 -20.49485,-66.33375000000001" speed="36.11111111111111" width="3.30890878840744"/>
		<lane allow="moped bicycle pedestrian custom1 trailer evehicle rail_urban ship private truck vip custom2 authority delivery rail_electric taxi tram army hov coach motorcycle passenger bus rail emergency" index="1" length="24.83401336288985" shape="-41.14065,-51.9835 -38.27265,-53.4461 -35.60165,-54.80815 -32.86335,-56.204499999999996 -29.89875,-57.71625 -27.188299999999998,-59.0985 -24.53835,-60.449749999999995 -21.8039,-61.844049999999996 -19.0171,-63.2652" speed="36.11111111111111" width="3.105783426126167"/>
	</edge>
	<edge from="12" function="normal" id="3676" length="16.15592838945516" numLanes="2" priority="1" speed="36.11111111111111" spreadType="center" to="13">
		<lane allow="moped bicycle pedestrian custom1 trailer evehicle rail_urban ship private truck vip custom2 authority delivery rail_electric taxi tram army hov coach motorcycle passenger bus rail emergency" index="0" length="16.15592838945516" shape="-20.49485,-66.33375000000001 -14.47515,-69.34 -6.0411,-73.55199999999999" speed="36.11111111111111" width="3.5034549033775293"/>
		<lane allow="moped bicycle pedestrian custom1 trailer evehicle rail_urban ship private truck vip custom2 authority delivery rail_electric taxi tram army hov coach motorcycle passenger bus rail emergency" index="1" length="16.15592838945516" shape="-19.0171,-63.2652 -12.99245,-66.2505 -4.49625,-70.46039999999999" speed="36.11111111111111" width="3.3082245268421517"/>
	</edge>
	<edge from="13" function="normal" id="3525" length="17.28043527267281" numLanes="3" priority="1" speed="36.11111111111111" spreadType="center" to="14">
		<lane allow="moped bicycle pedestrian custom1 trailer evehicle rail_urban ship private truck vip custom2 authority delivery rail_electric taxi tram army hov coach motorcycle passenger bus rail emergency" index="0" length="17.28043527267281" shape="-7.66415,-76.8801 1.06315,-81.17515 7.85145,-84.51595" speed="36.11111111111111" width="3.8739027478758428"/>
		<lane allow="moped bicycle pedestrian custom1 trailer evehicle rail_urban ship private truck vip custom2 authority delivery rail_electric taxi tram army hov coach motorcycle passenger bus rail emergency" index="1" length="17.28043527267281" shape="-6.0411,-73.55199999999999 2.68605,-77.84555 9.4853,-81.1906" speed="36.11111111111111" width="3.5117895381130184"/>
		<lane allow="moped bicycle pedestrian custom1 trailer evehicle rail_urban ship private truck vip custom2 authority delivery rail_electric taxi tram army hov coach motorcycle passenger bus rail emergency" index="2" length="17.28043527267281" shape="-4.49625,-70.46039999999999 4.18255,-74.729 11.010100000000001,-78.08709999999999" speed="36.11111111111111" width="3.379496749517603"/>
	</edge>
	<edge from="5" function="normal" id="3600" length="24.197467511365534" numLanes="1" priority="1" speed="36.11111111111111" spreadType="center" to="15">
		<lane allow="moped bicycle pedestrian custom1 trailer evehicle rail_urban ship private vip custom2 authority delivery rail_electric taxi tram army hov coach motorcycle passenger rail emergency" index="0" length="24.197467511365534" shape="-51.59615,-50.16185 -47.10785,-52.5568 -45.114850000000004,-53.7469 -43.511799999999994,-54.6575 -42.7687,-55.13745 -42.3446,-55.72505 -42.308800000000005,-56.532 -42.716,-57.9436 -43.5169,-59.90975 -44.49735,-62.0081 -47.29025,-68.01005" speed="36.11111111111111" width="3.2321866189934005"/>
	</edge>
	<edge from="15" function="normal" id="3542" length="74.2461753523541" numLanes="3" priority="1" speed="36.11111111111111" spreadType="center" to="16">
		<lane allow="moped bicycle pedestrian custom1 trailer evehicle rail_urban ship private truck vip custom2 authority delivery rail_electric taxi tram army hov coach motorcycle passenger bus rail emergency" index="0" length="74.2461753523541" shape="-47.29025,-68.01005 -51.45155,-76.54875 -55.5048,-85.47874999999999 -59.276849999999996,-94.19725 -62.9016,-103.44120000000001 -66.6166,-112.49905 -70.30025,-121.52665 -73.9843,-130.5851 -76.27135,-136.3811" speed="36.11111111111111" width="2.8235974571457545"/>
		<lane allow="moped bicycle pedestrian custom1 trailer evehicle rail_urban ship private truck vip custom2 authority delivery rail_electric taxi tram army hov coach motorcycle passenger bus rail emergency" index="1" length="74.2461753523541" shape="-44.446600000000004,-69.5027 -48.69,-78.0575 -52.772149999999996,-86.8409 -56.5128,-95.5291 -60.166799999999995,-104.6494 -63.819900000000004,-113.70824999999999 -67.47135,-122.6439 -71.06265,-131.7037 -73.4539,-137.8274" speed="36.11111111111111" width="2.9693589611227558"/>
		<lane allow="moped bicycle pedestrian custom1 trailer evehicle rail_urban ship private truck vip custom2 authority delivery rail_electric taxi tram army hov coach motorcycle passenger bus rail emergency" index="2" length="74.2461753523541" shape="-41.79855,-70.89265 -46.02135,-79.5726 -50.0717,-88.2949 -53.84325,-96.9827 -57.3381,-105.78205 -60.9936,-115.01015 -64.64545,-123.97665 -68.11225,-132.97655 -70.6234,-139.28045" speed="36.11111111111111" width="2.962201547835665"/>
	</edge>
	<edge from="17" function="normal" id="3532" length="13.634900230131375" numLanes="2" priority="1" speed="36.11111111111111" spreadType="center" to="18">
		<lane allow="moped bicycle pedestrian custom1 trailer evehicle rail_urban ship private truck vip custom2 authority delivery rail_electric taxi tram army hov coach motorcycle passenger bus rail emergency" index="0" length="13.634900230131375" shape="15.5558,-68.83525 8.623149999999999,-65.4464 3.27875,-62.83385" speed="36.11111111111111" width="3.607231317783766"/>
		<lane allow="moped bicycle pedestrian custom1 trailer evehicle rail_urban ship private truck vip custom2 authority delivery rail_electric taxi tram army hov coach motorcycle passenger bus rail emergency" index="1" length="13.634900230131375" shape="13.95115,-72.1012 7.09265,-68.748 1.7018,-66.11255" speed="36.11111111111111" width="3.623546501702443"/>
	</edge>
	<edge from="18" function="normal" id="3534" length="6.5755773961303206" numLanes="3" priority="1" speed="36.11111111111111" spreadType="center" to="19">
		<lane allow="moped bicycle pedestrian custom1 trailer evehicle rail_urban ship private truck vip custom2 authority delivery rail_electric taxi tram army hov coach motorcycle passenger bus rail emergency" index="0" length="6.5755773961303206" shape="3.27875,-62.83385 -1.1441000000000001,-56.812" speed="36.11111111111111" width="3.2457372413675167"/>
		<lane allow="moped bicycle pedestrian custom1 trailer evehicle rail_urban ship private truck vip custom2 authority delivery rail_electric taxi tram army hov coach motorcycle passenger bus rail emergency" index="1" length="6.5755773961303206" shape="3.27875,-62.83385 -2.6332500000000003,-59.89385" speed="36.11111111111111" width="3.602433613545151"/>
		<lane allow="moped bicycle pedestrian custom1 trailer evehicle rail_urban ship private truck vip custom2 authority delivery rail_electric taxi tram army hov coach motorcycle passenger bus rail emergency" index="2" length="6.5755773961303206" shape="1.7018,-66.11255 -4.18625,-63.185249999999996" speed="36.11111111111111" width="3.671307975367907"/>
	</edge>
	<edge from="19" function="normal" id="3536" length="6.608363657139335" numLanes="3" priority="1" speed="36.11111111111111" spreadType="center" to="20">
		<lane allow="moped bicycle pedestrian custom1 trailer evehicle rail_urban ship private truck vip custom2 authority delivery rail_electric taxi tram army hov coach motorcycle passenger bus rail emergency" index="0" length="6.608363657139335" shape="-1.1441000000000001,-56.812 -7.12365,-53.92255" speed="36.11111111111111" width="3.190167196245363"/>
		<lane allow="moped bicycle pedestrian custom1 trailer evehicle rail_urban ship private truck vip custom2 authority delivery rail_electric taxi tram army hov coach motorcycle passenger bus rail emergency" index="1" length="6.608363657139335" shape="-2.6332500000000003,-59.89385 -8.5734,-56.9491" speed="36.11111111111111" width="3.5215687697388507"/>
		<lane allow="moped bicycle pedestrian custom1 trailer evehicle rail_urban ship private truck vip custom2 authority delivery rail_electric taxi tram army hov coach motorcycle passenger bus rail emergency" index="2" length="6.608363657139335" shape="-4.18625,-63.185249999999996 -10.0963,-60.2286" speed="36.11111111111111" width="3.677371487897302"/>
	</edge>
	<edge from="20" function="normal" id="3620" length="6.669397413559939" numLanes="2" priority="1" speed="36.11111111111111" spreadType="center" to="21">
		<lane allow="moped bicycle pedestrian custom1 trailer evehicle rail_urban ship private truck vip custom2 authority delivery rail_electric taxi tram army hov coach motorcycle passenger bus rail emergency" index="0" length="6.669397413559939" shape="-8.5734,-56.9491 -14.550899999999999,-53.991" speed="36.11111111111111" width="3.4558219456447743"/>
		<lane allow="moped bicycle pedestrian custom1 trailer evehicle rail_urban ship private truck vip custom2 authority delivery rail_electric taxi tram army hov coach motorcycle passenger bus rail emergency" index="1" length="6.669397413559939" shape="-10.0963,-60.2286 -16.103749999999998,-57.215500000000006" speed="36.11111111111111" width="3.7020390124902796"/>
	</edge>
	<edge from="21" function="normal" id="3662" length="24.644895567957" numLanes="2" priority="1" speed="36.11111111111111" spreadType="center" to="22">
		<lane allow="moped bicycle pedestrian custom1 trailer evehicle rail_urban ship private truck vip custom2 authority delivery rail_electric taxi tram army hov coach motorcycle passenger bus rail emergency" index="0" length="24.644895567957" shape="-14.550899999999999,-53.991 -17.367449999999998,-52.59715 -20.14425,-51.223 -22.79365,-49.9118 -25.51575,-48.56465 -28.38745,-47.14345 -31.17625,-45.7633 -33.8783,-44.4261 -36.6389,-43.059799999999996" speed="36.11111111111111" width="3.2133408160355454"/>
		<lane allow="moped bicycle pedestrian custom1 trailer evehicle rail_urban ship private truck vip custom2 authority delivery rail_electric taxi tram army hov coach motorcycle passenger bus rail emergency" index="1" length="24.644895567957" shape="-16.103749999999998,-57.215500000000006 -18.908250000000002,-55.808800000000005 -21.668799999999997,-54.424949999999995 -24.316850000000002,-53.0963 -27.033549999999998,-51.734849999999994 -29.93535,-50.277249999999995 -32.7041,-48.88715 -35.393950000000004,-47.537949999999995 -38.1905,-46.1349" speed="36.11111111111111" width="3.675404375031407"/>
	</edge>
	<edge from="22" function="normal" id="3640" length="10.509859510002979" numLanes="2" priority="1" speed="36.11111111111111" spreadType="center" to="23">
		<lane allow="moped bicycle pedestrian custom1 trailer evehicle rail_urban ship private truck vip custom2 authority delivery rail_electric taxi tram army hov coach motorcycle passenger bus rail emergency" index="0" length="10.509859510002979" shape="-36.6389,-43.059799999999996 -46.4724,-38.2384" speed="36.11111111111111" width="3.1673785817296913"/>
		<lane allow="moped bicycle pedestrian custom1 trailer evehicle rail_urban ship private truck vip custom2 authority delivery rail_electric taxi tram army hov coach motorcycle passenger bus rail emergency" index="1" length="10.509859510002979" shape="-38.1905,-46.1349 -47.6081,-41.4695" speed="36.11111111111111" width="3.675404375031407"/>
	</edge>
	<edge from="23" function="normal" id="3517" length="14.496753904957334" numLanes="3" priority="1" speed="36.11111111111111" spreadType="center" to="24">
		<lane allow="moped bicycle pedestrian custom1 trailer evehicle rail_urban ship private truck vip custom2 authority delivery rail_electric taxi tram army hov coach motorcycle passenger bus rail emergency" index="0" length="14.496753904957334" shape="-44.7551,-33.78445 -53.9686,-29.34505 -57.7171,-27.3012" speed="36.11111111111111" width="5.130906839926057"/>
		<lane allow="moped bicycle pedestrian custom1 trailer evehicle rail_urban ship private truck vip custom2 authority delivery rail_electric taxi tram army hov coach motorcycle passenger bus rail emergency" index="1" length="14.496753904957334" shape="-46.4724,-38.2384 -55.86285,-33.196349999999995 -59.54835,-30.992649999999998" speed="36.11111111111111" width="3.110520139783699"/>
		<lane allow="moped bicycle pedestrian custom1 trailer evehicle rail_urban ship private truck vip custom2 authority delivery rail_electric taxi tram army hov coach motorcycle passenger bus rail emergency" index="2" length="14.496753904957334" shape="-47.6081,-41.4695 -57.3898,-36.22185 -61.0552,-34.0302" speed="36.11111111111111" width="3.664585112942531"/>
	</edge>
	<edge from="20" function="normal" id="3668" length="38.24329000786905" numLanes="1" priority="1" speed="36.11111111111111" spreadType="center" to="15">
		<lane allow="moped bicycle pedestrian custom1 trailer evehicle rail_urban ship private vip custom2 authority delivery rail_electric taxi tram army hov coach motorcycle passenger rail emergency" index="0" length="38.24329000786905" shape="-10.0963,-60.2286 -13.43335,-59.1199 -16.3675,-58.313050000000004 -18.863149999999997,-57.56545 -21.2785,-57.2619 -23.48035,-57.176950000000005 -25.01655,-57.3053 -26.9868,-57.512100000000004 -28.590899999999998,-57.78945 -30.5387,-58.1028 -32.3474,-58.8598 -33.8833,-60.109899999999996 -35.32295,-62.0195 -38.023250000000004,-65.69725 -41.79855,-70.89265" speed="36.11111111111111" width="3.0119886487169896"/>
	</edge>
	<edge from="20" function="normal" id="3602" length="16.407319351256646" numLanes="1" priority="1" speed="36.11111111111111" spreadType="center" to="6">
		<lane allow="moped bicycle pedestrian custom1 trailer evehicle rail_urban ship private vip custom2 authority delivery rail_electric taxi tram army hov coach motorcycle passenger rail emergency" index="0" length="16.407319351256646" shape="-7.12365,-53.92255 -8.97625,-52.638400000000004 -10.1263,-51.4217 -11.054,-49.792699999999996 -11.631450000000001,-47.983999999999995 -11.689350000000001,-46.613550000000004 -11.326899999999998,-44.487300000000005 -10.4758,-42.112049999999996 -9.4268,-39.6742" speed="36.11111111111111" width="2.934720000272598"/>
	</edge>
	<edge from="9" function="normal" id="3718" length="22.83123774153202" numLanes="1" priority="1" speed="36.11111111111111" spreadType="center" to="25">
		<lane allow="moped bicycle pedestrian custom1 trailer evehicle rail_urban ship private vip custom2 authority delivery rail_electric taxi tram army hov coach motorcycle passenger rail emergency" index="0" length="22.83123774153202" shape="15.2403,10.080200000000001 17.862000000000002,13.451899999999998 19.92675,15.3671 22.52055,16.5408 27.14885,16.9447 35.3988,17.08195" speed="36.11111111111111" width="3.1576335062828282"/>
	</edge>
	<edge from="25" function="normal" id="3500" length="9.586145870473699" numLanes="1" priority="1" speed="36.11111111111111" spreadType="center" to="26">
		<lane allow="moped bicycle pedestrian custom1 trailer evehicle rail_urban ship private truck vip custom2 authority delivery rail_electric taxi tram army hov coach motorcycle passenger bus rail emergency" index="0" length="9.586145870473699" shape="35.3988,17.08195 44.9796,16.76185" speed="36.11111111111111" width="5.358070392408073"/>
	</edge>
	<edge from="27" function="normal" id="3555" length="8.747302513489485" numLanes="4" priority="1" speed="36.11111111111111" spreadType="center" to="28">
		<lane allow="moped bicycle pedestrian custom1 trailer evehicle rail_urban ship private truck vip custom2 authority delivery rail_electric taxi tram army hov coach motorcycle passenger bus rail emergency" index="0" length="8.747302513489485" shape="-57.9519,-145.78539999999998 -53.9757,-137.99405000000002" speed="36.11111111111111" width="3.5111446353005813"/>
		<lane allow="moped bicycle pedestrian custom1 trailer evehicle rail_urban ship private truck vip custom2 authority delivery rail_electric taxi tram army hov coach motorcycle passenger bus rail emergency" index="1" length="8.747302513489485" shape="-60.895700000000005,-144.2742 -56.865300000000005,-136.39225" speed="36.11111111111111" width="2.9942633818687394"/>
		<lane allow="moped bicycle pedestrian custom1 trailer evehicle rail_urban ship private truck vip custom2 authority delivery rail_electric taxi tram army hov coach motorcycle passenger bus rail emergency" index="2" length="8.747302513489485" shape="-63.595200000000006,-142.88844999999998 -59.507000000000005,-134.8551" speed="36.11111111111111" width="3.012211639310895"/>
		<lane allow="moped bicycle pedestrian custom1 trailer evehicle rail_urban ship private truck vip custom2 authority delivery rail_electric taxi tram army hov coach motorcycle passenger bus rail emergency" index="3" length="8.747302513489485" shape="-66.37315000000001,-141.46235000000001 -62.1922,-133.4167" speed="36.11111111111111" width="3.0805742451692346"/>
	</edge>
	<edge from="28" function="normal" id="3559" length="17.692935382095456" numLanes="5" priority="1" speed="36.11111111111111" spreadType="center" to="29">
		<lane allow="moped bicycle pedestrian custom1 trailer evehicle rail_urban ship private truck vip custom2 authority delivery rail_electric taxi tram army hov coach motorcycle passenger bus rail emergency" index="0" length="17.692935382095456" shape="-53.9757,-137.99405000000002 -50.629999999999995,-131.02640000000002 -46.12095,-121.9476" speed="36.11111111111111" width="3.5111446353005813"/>
		<lane allow="moped bicycle pedestrian custom1 trailer evehicle rail_urban ship private truck vip custom2 authority delivery rail_electric taxi tram army hov coach motorcycle passenger bus rail emergency" index="1" length="17.692935382095456" shape="-56.865300000000005,-136.39225 -53.4705,-129.46710000000002 -48.9102,-120.35655" speed="36.11111111111111" width="2.891120158346934"/>
		<lane allow="moped bicycle pedestrian custom1 trailer evehicle rail_urban ship private truck vip custom2 authority delivery rail_electric taxi tram army hov coach motorcycle passenger bus rail emergency" index="2" length="17.692935382095456" shape="-59.507000000000005,-134.8551 -56.1605,-128.06775 -51.6002,-118.95724999999999" speed="36.11111111111111" width="3.012211639310895"/>
		<lane allow="moped bicycle pedestrian custom1 trailer evehicle rail_urban ship private truck vip custom2 authority delivery rail_electric taxi tram army hov coach motorcycle passenger bus rail emergency" index="3" length="17.692935382095456" shape="-62.1922,-133.4167 -58.83135,-126.70655 -54.271,-117.596" speed="36.11111111111111" width="2.8198292501497306"/>
		<lane allow="moped bicycle pedestrian custom1 trailer evehicle rail_urban ship private truck vip custom2 authority delivery rail_electric taxi tram army hov coach motorcycle passenger rail emergency" index="4" length="17.692935382095456" shape="-62.1922,-133.4167 -60.3596,-125.68155 -56.87875,-116.14325" speed="36.11111111111111" width="2.9068515975192115"/>
	</edge>
	<edge from="29" function="normal" id="3568" length="47.08668512312134" numLanes="5" priority="1" speed="36.11111111111111" spreadType="center" to="30">
		<lane allow="moped bicycle pedestrian custom1 trailer evehicle rail_urban ship private truck vip custom2 authority delivery rail_electric taxi tram army hov coach motorcycle passenger bus rail emergency" index="0" length="47.08668512312134" shape="-46.12095,-121.9476 -41.92195,-113.49260000000001 -37.6643,-104.91805 -33.22585,-95.98205 -28.92725,-87.52109999999999 -24.74175,-79.872" speed="36.11111111111111" width="3.346148869969773"/>