<!-- generated on 2020-12-18 16:02:19.170739 by ipykernel_launcher.py v1_2_0+5214-53edc58fcd
-->
<nodes>
	<node id="1" type="from" x="45.19025" y="21.8219"/>
	<node id="2" type="to" x="35.6095" y="22.142"/>
	<node id="3" type="to" x="28.15205" y="36.204350000000005"/>
	<node id="4" type="from" x="-64.22605" y="-40.422200000000004"/>
	<node id="5" type="to" x="-50.206700000000005" y="-47.38836666666666"/>
	<node id="6" type="to" x="-14.95345" y="-36.914500000000004"/>
	<node id="7" type="to" x="-1.2528" y="-16.125083333333336"/>
	<node id="8" type="to" x="2.5598833333333335" y="-8.535766666666667"/>
	<node id="9" type="to" x="12.453149999999999" y="11.417466666666668"/>
	<node id="10" type="to" x="25.29445" y="37.60811666666667"/>
	<node id="11" type="to" x="-41.86285" y="-53.415350000000004"/>
	<node id="12" type="to" x="-19.755975" y="-64.799475"/>
	<node id="13" type="to" x="-5.268675" y="-72.00619999999999"/>
	<node id="14" type="to" x="9.448950000000002" y="-81.26455"/>
	<node id="15" type="to" x="-47.29025" y="-68.01005"/>
	<node id="16" type="to" x="-73.44955" y="-137.82965000000002"/>
	<node id="17" type="from" x="14.753475" y="-70.468225"/>
	<node id="18" type="to" x="2.490275" y="-64.47319999999999"/>
	<node id="19" type="to" x="-2.6545333333333336" y="-59.963699999999996"/>
	<node id="20" type="to" x="-8.597783333333332" y="-57.033416666666675"/>
	<node id="21" type="to" x="-15.327324999999998" y="-55.60325"/>
	<node id="22" type="to" x="-37.414699999999996" y="-44.59735"/>
	<node id="23" type="to" x="-47.04025" y="-39.85395"/>
	<node id="24" type="to" x="-59.440216666666664" y="-30.774683333333332"/>
	<node id="25" type="to" x="35.3988" y="17.08195"/>
	<node id="26" type="to" x="44.9796" y="16.76185"/>
	<node id="27" type="from" x="-62.203987500000004" y="-143.6026"/>
	<node id="28" type="to" x="-58.13505000000001" y="-135.664525"/>
	<node id="29" type="to" x="-51.55622000000001" y="-119.00012999999998"/>
	<node id="30" type="to" x="-30.5014" y="-76.83536000000001"/>
	<node id="31" type="to" x="-25.351916666666668" y="-65.76143333333333"/>
	<node id="32" type="to" x="-17.9919" y="-50.385933333333334"/>
	<node id="33" type="from" x="14.419060000000002" y="42.95038000000001"/>
	<node id="34" type="to" x="1.46042" y="16.57546"/>
	<node id="35" type="to" x="-8.30115" y="-3.10154"/>
	<node id="36" type="to" x="-13.475308333333333" y="-10.017116666666666"/>
	<node id="37" type="to" x="-24.471525000000003" y="-32.11309166666667"/>
	<node id="38" type="to" x="-31.803600000000003" y="-43.63503333333333"/>
	<node id="39" type="to" x="-39.1299" y="-58.52921666666666"/>
</nodes>
