<routes>
	<vehicle depart="0.1" departLane="4" departPos="24.323579793917283" departSpeed="0.018288" id="2716" type="passenger">
		<route edges="3450 3664 3525"/>
	</vehicle>
	<vehicle depart="0.1" departLane="4" departPos="18.307611991904533" departSpeed="0.0" id="2749" type="passenger">
		<route edges="3450 3664 3525"/>
	</vehicle>
	<vehicle depart="0.1" departLane="1" departPos="0" departSpeed="7.5133" id="2755" type="passenger">
		<route edges="3568 3632 3652 3616 3456 3462 3468 3713"/>
	</vehicle>
	<vehicle depart="0.1" departLane="0" departPos="0" departSpeed="13.4661" id="2763" type="passenger">
		<route edges="3713"/>
	</vehicle>
	<vehicle depart="0.1" departLane="1" departPos="0" departSpeed="15.6362" id="2764" type="passenger">
		<route edges="3713"/>
	</vehicle>
	<vehicle depart="0.1" departLane="1" departPos="11.162124974824117" departSpeed="15.301" id="2765" type="passenger">
		<route edges="3468 3713"/>
	</vehicle>
	<vehicle depart="0.1" departLane="4" departPos="0" departSpeed="0.0" id="2770" type="passenger">
		<route edges="3450 3664 3525"/>
	</vehicle>
	<vehicle depart="0.1" departLane="0" departPos="0" departSpeed="14.859" id="2773" type="passenger">
		<route edges="3468 3713"/>
	</vehicle>
	<vehicle depart="0.1" departLane="2" departPos="0" departSpeed="15.6667" id="2783" type="passenger">
		<route edges="3713"/>
	</vehicle>
	<vehicle depart="0.1" departLane="0" departPos="0" departSpeed="10.9606" id="2784" type="passenger">
		<route edges="3456 3462 3468 3713"/>
	</vehicle>
	<vehicle depart="0.1" departLane="0" departPos="0" departSpeed="9.8908" id="2785" type="passenger">
		<route edges="3616 3456 3462 3468 3713"/>
	</vehicle>
	<vehicle depart="0.1" departLane="1" departPos="0" departSpeed="11.8019" id="2786" type="passenger">
		<route edges="3456 3462 3468 3713"/>
	</vehicle>
	<vehicle depart="0.1" departLane="0" departPos="0" departSpeed="8.7447" id="2787" type="passenger">
		<route edges="3652 3616 3456 3462 3468 3713"/>
	</vehicle>
	<vehicle depart="0.1" departLane="1" departPos="0" departSpeed="11.814" id="2788" type="passenger">
		<route edges="3616 3456 3462 3468 3713"/>
	</vehicle>
	<vehicle depart="0.1" departLane="0" departPos="0" departSpeed="12.2834" id="2792" type="passenger">
		<route edges="3632 3652 3616 3456 3462 3468 3713"/>
	</vehicle>
	<vehicle depart="0.1" departLane="4" departPos="6.174798566497735" departSpeed="0.048768" id="2793" type="passenger">
		<route edges="3438 3450 3664 3525"/>
	</vehicle>
	<vehicle depart="0.1" departLane="1" departPos="0" departSpeed="9.9578" id="2794" type="passenger">
		<route edges="3652 3616 3456 3462 3468 3713"/>
	</vehicle>
	<vehicle depart="0.1" departLane="1" departPos="31.790046383377415" departSpeed="9.4183" id="2797" type="passenger">
		<route edges="3568 3632 3652 3616 3456 3462 3468 3713"/>
	</vehicle>
	<vehicle depart="0.1" departLane="2" departPos="0" departSpeed="15.6393" id="2798" type="passenger">
		<route edges="3468 3713"/>
	</vehicle>
	<vehicle depart="0.1" departLane="2" departPos="47.11691666699787" departSpeed="8.9184" id="2802" type="passenger">
		<route edges="3568 3632 3652 3616 3456 3462 3468 3713"/>
	</vehicle>
	<vehicle depart="0.1" departLane="0" departPos="0" departSpeed="0.0" id="2808" type="passenger">
		<route edges="3620 3662 3640 3517"/>
	</vehicle>
	<vehicle depart="0.1" departLane="1" departPos="0" departSpeed="4.6726" id="2809" type="passenger">
		<route edges="3559 3568 3680 3525"/>
	</vehicle>
	<vehicle depart="0.1" departLane="1" departPos="0" departSpeed="0.18593" id="2810" type="passenger">
		<route edges="3620 3662 3640 3517"/>
	</vehicle>
	<vehicle depart="0.1" departLane="2" departPos="13.013281231055188" departSpeed="15.6362" id="2813" type="passenger">
		<route edges="3456 3462 3468 3468 3713"/>
	</vehicle>
	<vehicle depart="0.1" departLane="4" departPos="0" departSpeed="0.0" id="2815" type="passenger">
		<route edges="3450 3664 3525"/>
	</vehicle>
	<vehicle depart="0.1" departLane="2" departPos="22.604753412505016" departSpeed="8.51" id="2817" type="passenger">
		<route edges="3568 3632 3652 3616 3456 3462 3468 3713"/>
	</vehicle>
	<vehicle depart="0.1" departLane="2" departPos="7.794794725203666" departSpeed="11.5854" id="2820" type="passenger">
		<route edges="3632 3652 3616 3672 3616 3456 3462 3468 3713"/>
	</vehicle>
	<vehicle depart="0.1" departLane="2" departPos="0" departSpeed="7.2299" id="2823" type="passenger">
		<route edges="3568 3632 3632 3652 3616 3456 3462 3468 3713"/>
	</vehicle>
	<vehicle depart="0.1" departLane="0" departPos="0" departSpeed="7.5042" id="2825" type="passenger">
		<route edges="3680 3680 3525"/>
	</vehicle>
	<vehicle depart="0.1" departLane="1" departPos="64.4706047327537" departSpeed="12.637" id="2826" type="passenger">
		<route edges="3542"/>
	</vehicle>
	<vehicle depart="0.1" departLane="2" departPos="10.950769358561303" departSpeed="11.5306" id="2827" type="passenger">
		<route edges="3652 3616 3672 3616 3456 3462 3468 3713"/>
	</vehicle>
	<vehicle depart="0.1" departLane="0" departPos="74.28443874208685" departSpeed="14.158" id="2828" type="passenger">
		<route edges="3542"/>
	</vehicle>
	<vehicle depart="0.1" departLane="5" departPos="24.215080531370393" departSpeed="0.0" id="2829" type="passenger">
		<route edges="3450 3664 3525"/>
	</vehicle>
	<vehicle depart="0.1" departLane="1" departPos="40.195920803371756" departSpeed="14.2494" id="2831" type="passenger">
		<route edges="3542"/>
	</vehicle>
	<vehicle depart="0.1" departLane="0" departPos="38.35633597227436" departSpeed="13.1216" id="2832" type="passenger">
		<route edges="3542"/>
	</vehicle>
	<vehicle depart="0.1" departLane="1" departPos="14.22255996870725" departSpeed="4.9621" id="2833" type="passenger">
		<route edges="3559 3568 3680 3525"/>
	</vehicle>
	<vehicle depart="0.1" departLane="2" departPos="46.33502572115245" departSpeed="15.6362" id="2834" type="passenger">
		<route edges="3542"/>
	</vehicle>
	<vehicle depart="0.1" departLane="0" departPos="0" departSpeed="7.5773" id="2835" type="passenger">
		<route edges="3517"/>
	</vehicle>
	<vehicle depart="0.1" departLane="2" departPos="6.812440425089073" departSpeed="15.1943" id="2836" type="passenger">
		<route edges="3626 3542"/>
	</vehicle>
	<vehicle depart="0.1" departLane="0" departPos="47.200910188760794" departSpeed="2.3348" id="2837" type="passenger">
		<route edges="3568 3680 3525"/>
	</vehicle>
	<vehicle depart="0.1" departLane="0" departPos="0" departSpeed="7.0134" id="2838" type="passenger">
		<route edges="3604 3517"/>
	</vehicle>
	<vehicle depart="0.1" departLane="5" departPos="0" departSpeed="5.2548" id="2839" type="passenger">
		<route edges="3450 3664 3525"/>
	</vehicle>
	<vehicle depart="0.1" departLane="1" departPos="14.418943604700384" departSpeed="14.5024" id="2840" type="passenger">
		<route edges="3450 3610 3646 3626 3542"/>
	</vehicle>
	<vehicle depart="0.1" departLane="0" departPos="27.044253734980224" departSpeed="2.5725" id="2841" type="passenger">
		<route edges="3568 3680 3525"/>
	</vehicle>
	<vehicle depart="0.1" departLane="1" departPos="0" departSpeed="14.5664" id="2843" type="passenger">
		<route edges="3438 3450 3610 3646 3626 3542"/>
	</vehicle>
	<vehicle depart="0.1" departLane="2" departPos="0" departSpeed="11.4544" id="2844" type="passenger">
		<route edges="3705 3426 3438 3450 3610 3646 3626 3542"/>
	</vehicle>
	<vehicle depart="0.1" departLane="0" departPos="0" departSpeed="3.9533" id="2864" type="passenger">
		<route edges="3568 3680 3525"/>
	</vehicle>
	<vehicle depart="0.1" departLane="0" departPos="0" departSpeed="15.6393" id="2865" type="passenger">
		<route edges="3426 3438 3450 3610 3646 3626 3600 3542"/>
	</vehicle>
	<vehicle depart="0.1" departLane="0" departPos="0" departSpeed="0.0" id="2869" type="passenger">
		<route edges="3602 3456 3462 3468 3713"/>
	</vehicle>
	<vehicle depart="0.1" departLane="3" departPos="17.56122166709016" departSpeed="3.5448" id="2870" type="passenger">
		<route edges="3426 3438 3450 3664 3525"/>
	</vehicle>
	<vehicle depart="0.1" departLane="0" departPos="0" departSpeed="13.9812" id="2871" type="passenger">
		<route edges="3705 3426 3438 3450 3610 3646 3626 3542"/>
	</vehicle>
	<vehicle depart="0.1" departLane="2" departPos="9.63223605207725" departSpeed="5.7089" id="2875" type="passenger">
		<route edges="3559 3568 3632 3652 3616 3456 3462 3468 3713"/>
	</vehicle>
	<vehicle depart="0.1" departLane="1" departPos="0" departSpeed="4.1392" id="2881" type="passenger">
		<route edges="3555 3559 3568 3680 3525"/>
	</vehicle>
	<vehicle depart="0.1" departLane="2" departPos="9.013772321425684" departSpeed="4.444" id="2887" type="passenger">
		<route edges="3555 3559 3568 3632 3652 3616 3456 3462 3468 3713"/>
	</vehicle>
	<vehicle depart="0.1" departLane="0" departPos="0" departSpeed="0.0" id="2892" type="passenger">
		<route edges="3536 3602 3456 3462 3468 3713"/>
	</vehicle>
</routes>
