<routes>
	<vehicle depart="0.1" departLane="0" departPos="1.0" departSpeed="1.7496141" id="313" type="bicycle">
		<route edges=":28_2 54894"/>
	</vehicle>
	<vehicle depart="0.1" departLane="0" departPos="11.35101835594422" departSpeed="1.2385152" id="336" type="bus">
		<route edges="52162 54405"/>
	</vehicle>
	<vehicle depart="0.1" departLane="0" departPos="11.776303933676823" departSpeed="0.90031958" id="38" type="passenger">
		<route edges=":28_3 54405"/>
	</vehicle>
	<vehicle depart="0.1" departLane="1" departPos="18.76963106269223" departSpeed="1.5782283" id="311" type="passenger">
		<route edges="52542 52550 54405"/>
	</vehicle>
	<vehicle depart="0.1" departLane="0" departPos="2.5" departSpeed="3.2028127" id="319" type="passenger">
		<route edges=":28_2 54894 52152"/>
	</vehicle>
	<vehicle depart="0.1" departLane="1" departPos="6.3889972521473135" departSpeed="4.0566934" id="328" type="passenger">
		<route edges="52154 52162 54245"/>
	</vehicle>
	<vehicle depart="0.1" departLane="0" departPos="16.789461605509786" departSpeed="0.81686082" id="329" type="passenger">
		<route edges="52542 52550 54894"/>
	</vehicle>
	<vehicle depart="0.1" departLane="0" departPos="2.5" departSpeed="0.77677955" id="337" type="passenger">
		<route edges="52154 52162"/>
	</vehicle>
	<vehicle depart="0.1" departLane="0" departPos="21.037971052346418" departSpeed="5.9620117" id="39" type="motorcycle">
		<route edges=":28_1 54245 52540 54251"/>
	</vehicle>
	<vehicle depart="0.1" departLane="0" departPos="1.25" departSpeed="1.8556158" id="327" type="motorcycle">
		<route edges="52550 54894"/>
	</vehicle>
</routes>
