<routes>
	<vehicle depart="0.1" departLane="0" departPos="10.058773795168225" departSpeed="4.5982161" id="337" type="bicycle">
		<route edges=":68_0 67639 67641 67643 67383"/>
	</vehicle>
	<vehicle depart="0.1" departLane="0" departPos="23.794883822263007" departSpeed="0.15043453" id="334" type="bus">
		<route edges=":68_1 68159"/>
	</vehicle>
	<vehicle depart="0.1" departLane="0" departPos="42.88541125646995" departSpeed="2.3177009" id="345" type="passenger">
		<route edges="68157 68159"/>
	</vehicle>
	<vehicle depart="0.1" departLane="0" departPos="32.110488408670285" departSpeed="3.6332644" id="347" type="passenger">
		<route edges="68157 68159"/>
	</vehicle>
	<vehicle depart="0.1" departLane="0" departPos="20.324554572245233" departSpeed="3.0369128" id="351" type="passenger">
		<route edges="68157 68159"/>
	</vehicle>
	<vehicle depart="0.1" departLane="0" departPos="6.703057650539914" departSpeed="2.9759639" id="356" type="passenger">
		<route edges="68157 68159"/>
	</vehicle>
</routes>
