<routes>
	<vehicle depart="0.1" departLane="0" departPos="69.61198009602613" departSpeed="0.0" id="37" type="bicycle">
		<route edges="164 71"/>
	</vehicle>
	<vehicle depart="0.1" departLane="0" departPos="65.0707767819439" departSpeed="6.9293775" id="39" type="bicycle">
		<route edges="62 65 68"/>
	</vehicle>
	<vehicle depart="0.1" departLane="0" departPos="12.99939853015981" departSpeed="1.7538247" id="359" type="bicycle">
		<route edges="164 71"/>
	</vehicle>
	<vehicle depart="0.1" departLane="0" departPos="104.4002817490173" departSpeed="8.3284211" id="31" type="passenger">
		<route edges="142 383 7"/>
	</vehicle>
	<vehicle depart="0.1" departLane="0" departPos="17.916905716064804" departSpeed="15.219764" id="32" type="passenger">
		<route edges="61 10"/>
	</vehicle>
	<vehicle depart="0.1" departLane="0" departPos="17.126278786350593" departSpeed="0.0" id="35" type="passenger">
		<route edges="7 65"/>
	</vehicle>
	<vehicle depart="0.1" departLane="0" departPos="24.30212928299136" departSpeed="0.0" id="38" type="passenger">
		<route edges="161 68 71 74"/>
	</vehicle>
	<vehicle depart="0.1" departLane="0" departPos="69.82331164190201" departSpeed="0.0" id="315" type="passenger">
		<route edges="164 71"/>
	</vehicle>
	<vehicle depart="0.1" departLane="0" departPos="2.5" departSpeed="6.0144568" id="317" type="passenger">
		<route edges="383 7"/>
	</vehicle>
	<vehicle depart="0.1" departLane="0" departPos="5.232161110291614" departSpeed="9.5741191" id="318" type="passenger">
		<route edges="142 383"/>
	</vehicle>
	<vehicle depart="0.1" departLane="0" departPos="41.792921320048" departSpeed="0.0" id="322" type="passenger">
		<route edges="145 10"/>
	</vehicle>
	<vehicle depart="0.1" departLane="0" departPos="56.787035193793265" departSpeed="19.069897" id="327" type="passenger">
		<route edges="61 10"/>
	</vehicle>
	<vehicle depart="0.1" departLane="0" departPos="34.565053241007284" departSpeed="0.0" id="328" type="passenger">
		<route edges="145 10"/>
	</vehicle>
	<vehicle depart="0.1" departLane="0" departPos="62.52349353021148" departSpeed="0.033301848" id="331" type="passenger">
		<route edges="164 71"/>
	</vehicle>
	<vehicle depart="0.1" departLane="0" departPos="17.432106353365203" departSpeed="0.0" id="334" type="passenger">
		<route edges="161 64"/>
	</vehicle>
	<vehicle depart="0.1" departLane="0" departPos="69.89916722968246" departSpeed="0.0" id="335" type="passenger">
		<route edges="11 142"/>
	</vehicle>
	<vehicle depart="0.1" departLane="0" departPos="62.3984716294829" departSpeed="0.0" id="336" type="passenger">
		<route edges="11 142"/>
	</vehicle>
	<vehicle depart="0.1" departLane="0" departPos="22.596318659448563" departSpeed="0.00011826052" id="337" type="passenger">
		<route edges="145 10"/>
	</vehicle>
	<vehicle depart="0.1" departLane="0" departPos="22.94121279611117" departSpeed="11.378692" id="338" type="passenger">
		<route edges="163"/>
	</vehicle>
	<vehicle depart="0.1" departLane="0" departPos="54.85362834021428" departSpeed="0.20667999" id="339" type="passenger">
		<route edges="164 71"/>
	</vehicle>
	<vehicle depart="0.1" departLane="0" departPos="55.26918896723294" departSpeed="0.0" id="342" type="passenger">
		<route edges="11 142"/>
	</vehicle>
	<vehicle depart="0.1" departLane="0" departPos="46.891569277042734" departSpeed="0.60776963" id="343" type="passenger">
		<route edges="164 71"/>
	</vehicle>
	<vehicle depart="0.1" departLane="0" departPos="15.346599384369107" departSpeed="0.00058105232" id="346" type="passenger">
		<route edges="145 10"/>
	</vehicle>
	<vehicle depart="0.1" departLane="0" departPos="48.53985097215806" departSpeed="3.8855681e-05" id="347" type="passenger">
		<route edges="11 142"/>
	</vehicle>
	<vehicle depart="0.1" departLane="0" departPos="38.735391855324586" departSpeed="1.0833741" id="348" type="passenger">
		<route edges="164 71"/>
	</vehicle>
	<vehicle depart="0.1" departLane="0" departPos="41.66599436885336" departSpeed="0.00029941175" id="349" type="passenger">
		<route edges="11 142"/>
	</vehicle>
	<vehicle depart="0.1" departLane="0" departPos="76.60248865918945" departSpeed="17.319083" id="350" type="passenger">
		<route edges="70 67 64 61 146"/>
	</vehicle>
	<vehicle depart="0.1" departLane="0" departPos="30.149212855272282" departSpeed="1.4826583" id="351" type="passenger">
		<route edges="164 71"/>
	</vehicle>
	<vehicle depart="0.1" departLane="0" departPos="34.390999868836914" departSpeed="0.0015272951" id="352" type="passenger">
		<route edges="11 142"/>
	</vehicle>
	<vehicle depart="0.1" departLane="0" departPos="27.284607301206673" departSpeed="0.0060273938" id="353" type="passenger">
		<route edges="11 142"/>
	</vehicle>
	<vehicle depart="0.1" departLane="0" departPos="20.93298978654772" departSpeed="1.7239934" id="355" type="passenger">
		<route edges="164 71"/>
	</vehicle>
	<vehicle depart="0.1" departLane="0" departPos="8.149395679083572" departSpeed="0.0021896444" id="356" type="passenger">
		<route edges="145 10"/>
	</vehicle>
	<vehicle depart="0.1" departLane="0" departPos="20.565028930592224" departSpeed="0.019209875" id="357" type="passenger">
		<route edges="11 142"/>
	</vehicle>
	<vehicle depart="0.1" departLane="0" departPos="7.508646001217317" departSpeed="10.462906" id="360" type="passenger">
		<route edges="70 67 64 8 242 143 62"/>
	</vehicle>
	<vehicle depart="0.1" departLane="0" departPos="13.413018606088416" departSpeed="0.051699527" id="361" type="passenger">
		<route edges="11 142"/>
	</vehicle>
	<vehicle depart="0.1" departLane="0" departPos="5.80803570999034" departSpeed="0.10931015" id="364" type="passenger">
		<route edges="11 142"/>
	</vehicle>
	<vehicle depart="0.1" departLane="0" departPos="42.12777328196598" departSpeed="0.0" id="33" type="motorcycle">
		<route edges="145 10"/>
	</vehicle>
	<vehicle depart="0.1" departLane="0" departPos="27.31530836060833" departSpeed="1.3984622e-05" id="333" type="motorcycle">
		<route edges="145 10"/>
	</vehicle>
	<vehicle depart="0.1" departLane="0" departPos="6.597009621282938" departSpeed="3.4638888" id="325" type="truck">
		<route edges="7 65"/>
	</vehicle>
	<vehicle depart="0.1" departLane="0" departPos="10.330317451958432" departSpeed="0.0" id="341" type="truck">
		<route edges="161 68"/>
	</vehicle>
	<vehicle depart="0.1" departLane="0" departPos="7.916025517519299" departSpeed="0.76105235" id="368" type="truck">
		<route edges="164 71"/>
	</vehicle>
</routes>
