<routes>
	<vehicle depart="0.1" departLane="1" departPos="0" departSpeed="11.317389" id="1" type="passenger">
		<route edges="26 28 24"/>
	</vehicle>
	<vehicle depart="0.1" departLane="0" departPos="86.42996991440313" departSpeed="12.23698" id="2" type="passenger">
		<route edges="26 27 24"/>
	</vehicle>
	<vehicle depart="0.1" departLane="0" departPos="101.43227596411484" departSpeed="12.236202" id="3" type="passenger">
		<route edges="26 26 28 24"/>
	</vehicle>
</routes>
