<routes>
	<vehicle depart="0.1" departLane="0" departPos="27.65919055461149" departSpeed="6.6969328" id="1" type="passenger">
		<route edges="50201 50213 50197"/>
	</vehicle>
	<vehicle depart="0.1" departLane="0" departPos="91.51429246301001" departSpeed="3.6846794" id="2" type="passenger">
		<route edges="50195 50209 50203"/>
	</vehicle>
	<vehicle depart="0.1" departLane="0" departPos="93.14221972365945" departSpeed="5.2428937" id="4" type="passenger">
		<route edges="50205 50207 50197"/>
	</vehicle>
	<vehicle depart="0.1" departLane="0" departPos="101.14235683721571" departSpeed="6.6035643" id="5" type="passenger">
		<route edges="50205 50217 50199"/>
	</vehicle>
	<vehicle depart="0.1" departLane="0" departPos="19.656275369532803" departSpeed="3.246125" id="7" type="passenger">
		<route edges="50201 50213 50197"/>
	</vehicle>
</routes>
