<routes>
	<vehicle depart="0.1" departLane="0" departPos="10.778054009275033" departSpeed="0.24185585" id="33" type="passenger">
		<route edges=":29_5 592"/>
	</vehicle>
	<vehicle depart="0.1" departLane="0" departPos="22.6883301341461" departSpeed="1.5647075" id="312" type="passenger">
		<route edges="648 612"/>
	</vehicle>
	<vehicle depart="0.1" departLane="0" departPos="48.56041460413074" departSpeed="2.7104424" id="323" type="passenger">
		<route edges="648 612"/>
	</vehicle>
	<vehicle depart="0.1" departLane="0" departPos="35.503089655816794" departSpeed="0.61331877" id="332" type="passenger">
		<route edges="648 612"/>
	</vehicle>
	<vehicle depart="0.1" departLane="0" departPos="28.896137075815624" departSpeed="8.9742017" id="351" type="passenger">
		<route edges=":29_1 612 609"/>
	</vehicle>
	<vehicle depart="0.1" departLane="0" departPos="53.93755698061278" departSpeed="0.0" id="352" type="passenger">
		<route edges="591 649"/>
	</vehicle>
	<vehicle depart="0.1" departLane="0" departPos="45.44764039687377" departSpeed="1.1712127" id="357" type="passenger">
		<route edges="591 649"/>
	</vehicle>
</routes>
