<!-- generated on Tue Feb  9 22:09:18 2021 by Eclipse SUMO netconvert Version 1.8.0
<configuration xmlns:xsi="http://www.w3.org/2001/XMLSchema-instance" xsi:noNamespaceSchemaLocation="http://sumo.dlr.de/xsd/netconvertConfiguration.xsd">

    <input>
        <node-files value="./converted_scenarios/scenario-factory/DEU_BadWaldsee-4_2_I-1-1/DEU_BadWaldsee-4_2_I-1-1.nod.xml"/>
        <edge-files value="./converted_scenarios/scenario-factory/DEU_BadWaldsee-4_2_I-1-1/DEU_BadWaldsee-4_2_I-1-1.edg.xml"/>
        <connection-files value="./converted_scenarios/scenario-factory/DEU_BadWaldsee-4_2_I-1-1/DEU_BadWaldsee-4_2_I-1-1.con.xml"/>
        <tllogic-files value="./converted_scenarios/scenario-factory/DEU_BadWaldsee-4_2_I-1-1/DEU_BadWaldsee-4_2_I-1-1.tll.xml"/>
        <type-files value="/home/zen/commonroad-interactive-benchmarks/install/commonroad-map-tool/crmapconverter/sumo_map/templates/DEU.typ.xml"/>
    </input>

    <output>
        <output-file value="./converted_scenarios/scenario-factory/DEU_BadWaldsee-4_2_I-1-1/DEU_BadWaldsee-4_2_I-1-1.net.xml"/>
    </output>

    <processing>
        <geometry.remove.keep-edges.explicit value="true"/>
        <geometry.avoid-overlap value="true"/>
        <offset.disable-normalization value="true"/>
    </processing>

    <junctions>
        <no-turnarounds value="true"/>
        <junctions.internal-link-detail value="20"/>
    </junctions>

    <report>
        <aggregate-warnings value="5"/>
    </report>

    <random_number>
        <seed value="1234"/>
    </random_number>

</configuration>
--><net xmlns:xsi="http://www.w3.org/2001/XMLSchema-instance" version="1.6" junctionCornerDetail="5" junctionLinkDetail="20" limitTurnSpeed="5.50" xsi:noNamespaceSchemaLocation="http://sumo.dlr.de/xsd/net_file.xsd">

    <location netOffset="0.00,0.00" convBoundary="278.45,-860.79,459.28,-621.89" origBoundary="278.45,-860.79,459.28,-621.89" projParameter="!"/>

    <type id="highway.bridleway" priority="1" speed="2.78" allow="pedestrian" oneway="1" width="2.00"/>
    <type id="highway.bus_guideway" priority="1" speed="27.78" allow="bus" oneway="1"/>
    <type id="highway.cycleway" priority="1" speed="8.33" allow="bicycle" oneway="0" width="1.00"/>
    <type id="highway.footway" priority="1" speed="2.78" allow="pedestrian" oneway="1" width="2.00"/>
    <type id="highway.ford" priority="1" speed="2.78" allow="army" oneway="0"/>
    <type id="highway.living_street" priority="2" speed="2.78" disallow="tram rail_urban rail rail_electric rail_fast ship" oneway="0"/>
    <type id="highway.motorway" priority="14" speed="39.44" allow="private emergency authority army vip passenger hov taxi bus coach delivery truck trailer motorcycle evehicle custom1 custom2" oneway="1"/>
    <type id="highway.motorway_link" priority="9" speed="22.22" allow="private emergency authority army vip passenger hov taxi bus coach delivery truck trailer motorcycle evehicle custom1 custom2" oneway="1"/>
    <type id="highway.path" priority="1" speed="2.78" allow="pedestrian bicycle" oneway="0" width="2.00"/>
    <type id="highway.pedestrian" priority="1" speed="2.78" allow="pedestrian" oneway="1" width="2.00"/>
    <type id="highway.primary" priority="12" speed="27.78" disallow="pedestrian tram rail_urban rail rail_electric rail_fast ship" oneway="0"/>
    <type id="highway.primary_link" priority="7" speed="22.22" disallow="pedestrian tram rail_urban rail rail_electric rail_fast ship" oneway="0"/>
    <type id="highway.raceway" priority="15" speed="83.33" allow="vip" oneway="0"/>
    <type id="highway.residential" priority="3" speed="13.89" disallow="pedestrian tram rail_urban rail rail_electric rail_fast ship" oneway="0"/>
    <type id="highway.secondary" priority="11" speed="27.78" disallow="pedestrian tram rail_urban rail rail_electric rail_fast ship" oneway="0"/>
    <type id="highway.secondary_link" priority="6" speed="22.22" disallow="pedestrian tram rail_urban rail rail_electric rail_fast ship" oneway="0"/>
    <type id="highway.service" priority="1" speed="5.56" allow="pedestrian delivery bicycle" oneway="0"/>
    <type id="highway.stairs" priority="1" speed="1.39" allow="pedestrian" oneway="1" width="2.00"/>
    <type id="highway.step" priority="1" speed="1.39" allow="pedestrian" oneway="1" width="2.00"/>
    <type id="highway.steps" priority="1" speed="1.39" allow="pedestrian" oneway="1" width="2.00"/>
    <type id="highway.tertiary" priority="10" speed="22.22" disallow="pedestrian tram rail_urban rail rail_electric rail_fast ship" oneway="0"/>
    <type id="highway.tertiary_link" priority="5" speed="22.22" disallow="pedestrian tram rail_urban rail rail_electric rail_fast ship" oneway="0"/>
    <type id="highway.track" priority="1" speed="5.56" allow="pedestrian motorcycle moped bicycle" oneway="0"/>
    <type id="highway.trunk" priority="13" speed="27.78" disallow="pedestrian bicycle tram rail_urban rail rail_electric rail_fast ship" oneway="0"/>
    <type id="highway.trunk_link" priority="8" speed="22.22" disallow="pedestrian bicycle tram rail_urban rail rail_electric rail_fast ship" oneway="0"/>
    <type id="highway.unclassified" priority="4" speed="13.89" disallow="pedestrian tram rail_urban rail rail_electric rail_fast ship" oneway="0"/>
    <type id="highway.unsurfaced" priority="1" speed="8.33" disallow="tram rail_urban rail rail_electric rail_fast ship" oneway="0"/>
    <type id="railway.highspeed" priority="21" speed="69.44" allow="rail_fast" oneway="1"/>
    <type id="railway.light_rail" priority="19" speed="27.78" allow="rail_urban" oneway="1"/>
    <type id="railway.preserved" priority="16" speed="27.78" allow="rail" oneway="1"/>
    <type id="railway.rail" priority="20" speed="44.44" allow="rail" oneway="1"/>
    <type id="railway.subway" priority="18" speed="27.78" allow="rail_urban" oneway="1"/>
    <type id="railway.tram" priority="17" speed="13.89" allow="tram" oneway="1"/>

    <edge id=":29_0" function="internal">
        <lane id=":29_0_0" index="0" disallow="pedestrian tram rail_urban rail rail_electric rail_fast ship" speed="10.54" length="30.19" width="3.50" shape="421.98,-678.78 419.66,-681.37 417.96,-682.95 416.09,-684.34 415.10,-684.94 414.06,-685.46 412.98,-685.88 411.86,-686.19 410.72,-686.38 409.56,-686.43 408.40,-686.33 407.26,-686.10 406.16,-685.74 405.09,-685.27 404.08,-684.70 402.19,-683.35 400.48,-681.78 398.92,-680.06 397.48,-678.24"/>
    </edge>
    <edge id=":29_1" function="internal">
        <lane id=":29_1_0" index="0" disallow="pedestrian tram rail_urban rail rail_electric rail_fast ship" speed="36.11" length="39.84" width="3.50" shape="421.98,-678.78 418.77,-682.74 396.72,-709.59"/>
    </edge>
    <edge id=":29_2" function="internal">
        <lane id=":29_2_0" index="0" disallow="pedestrian tram rail_urban rail rail_electric rail_fast ship" speed="36.11" length="39.86" width="3.50" shape="399.41,-711.83 421.48,-684.95 424.68,-681.00"/>
    </edge>
    <edge id=":29_3" function="internal">
        <lane id=":29_3_0" index="0" disallow="pedestrian tram rail_urban rail rail_electric rail_fast ship" speed="13.93" length="36.74" width="3.50" shape="399.41,-711.83 400.92,-709.86 402.22,-707.79 403.31,-705.60 404.15,-703.30 404.72,-700.92 404.99,-698.49 404.98,-696.04 404.69,-693.61 404.16,-691.22 403.42,-688.89 401.97,-685.52 400.21,-682.30 398.20,-679.23 397.48,-678.24"/>
    </edge>
    <edge id=":29_4" function="internal">
        <lane id=":29_4_0" index="0" disallow="pedestrian tram rail_urban rail rail_electric rail_fast ship" speed="13.04" length="32.06" width="3.50" shape="394.66,-680.31 395.30,-681.20 397.13,-683.98 398.72,-686.86 400.02,-689.86 400.68,-691.88 401.16,-693.95 401.43,-696.04 401.46,-698.13 401.25,-700.20 400.79,-702.22 400.09,-704.19 399.16,-706.07 398.04,-707.87 396.72,-709.59"/>
    </edge>
    <edge id=":29_5" function="internal">
        <lane id=":29_5_0" index="0" disallow="pedestrian tram rail_urban rail rail_electric rail_fast ship" speed="11.58" length="36.77" width="3.50" shape="394.66,-680.31 396.33,-682.44 398.17,-684.46 400.21,-686.33 402.48,-687.95 403.77,-688.67 405.10,-689.26 406.51,-689.71 407.97,-690.01 409.47,-690.14 410.98,-690.08 412.45,-689.84 413.88,-689.44 415.24,-688.91 416.52,-688.27 417.76,-687.52 419.98,-685.87 422.01,-683.99 424.68,-681.00"/>
    </edge>
    <edge id=":30_0" function="internal">
        <lane id=":30_0_0" index="0" disallow="pedestrian tram rail_urban rail rail_electric rail_fast ship" speed="10.50" length="30.10" width="3.50" shape="346.92,-770.02 344.59,-772.60 342.88,-774.16 341.00,-775.51 339.99,-776.09 338.94,-776.58 337.85,-776.96 336.73,-777.23 335.58,-777.37 334.42,-777.37 333.27,-777.22 332.15,-776.95 331.06,-776.55 330.02,-776.05 329.02,-775.45 327.17,-774.06 325.49,-772.47 323.96,-770.74 322.54,-768.91"/>
    </edge>
    <edge id=":30_1" function="internal">
        <lane id=":30_1_0" index="0" disallow="pedestrian tram rail_urban rail rail_electric rail_fast ship" speed="13.84" length="36.38" width="3.50" shape="346.92,-770.02 344.71,-772.92 342.72,-775.96 341.02,-779.18 340.08,-781.41 339.34,-783.72 338.82,-786.09 338.55,-788.50 338.57,-790.93 338.87,-793.33 339.46,-795.68 340.31,-797.95 341.40,-800.12 342.69,-802.18 343.39,-803.16"/>
    </edge>
    <edge id=":30_2" function="internal">
        <lane id=":30_2_0" index="0" disallow="pedestrian tram rail_urban rail rail_electric rail_fast ship" speed="12.94" length="31.70" width="3.50" shape="346.20,-801.07 345.59,-800.22 344.46,-798.41 343.53,-796.54 342.81,-794.60 342.33,-792.60 342.09,-790.55 342.10,-788.49 342.35,-786.43 342.82,-784.39 343.48,-782.38 344.31,-780.43 345.85,-777.57 347.64,-774.84 349.62,-772.24"/>
    </edge>
    <edge id=":30_3" function="internal">
        <lane id=":30_3_0" index="0" disallow="pedestrian tram rail_urban rail rail_electric rail_fast ship" speed="36.11" length="39.93" width="3.50" shape="346.20,-801.07 328.56,-777.18 322.54,-768.91"/>
    </edge>
    <edge id=":30_4" function="internal">
        <lane id=":30_4_0" index="0" disallow="pedestrian tram rail_urban rail rail_electric rail_fast ship" speed="36.11" length="39.97" width="3.50" shape="319.71,-770.96 325.74,-779.25 343.39,-803.16"/>
    </edge>
    <edge id=":30_5" function="internal">
        <lane id=":30_5_0" index="0" disallow="pedestrian tram rail_urban rail rail_electric rail_fast ship" speed="11.56" length="36.71" width="3.50" shape="319.71,-770.96 321.35,-773.09 323.16,-775.12 325.16,-777.01 327.38,-778.68 328.64,-779.42 329.95,-780.05 331.33,-780.55 332.78,-780.90 334.26,-781.08 335.76,-781.08 337.25,-780.89 338.69,-780.55 340.07,-780.05 341.38,-779.44 342.63,-778.71 344.87,-777.09 346.92,-775.24 349.62,-772.24"/>
    </edge>
    <edge id=":31_0" function="internal">
        <lane id=":31_0_0" index="0" disallow="pedestrian tram rail_urban rail rail_electric rail_fast ship" speed="10.56" length="30.11" width="3.50" shape="384.57,-724.20 382.22,-726.76 380.49,-728.31 378.61,-729.66 377.61,-730.24 376.56,-730.73 375.47,-731.13 374.34,-731.41 373.20,-731.57 372.04,-731.59 370.88,-731.47 369.75,-731.21 368.66,-730.84 367.60,-730.36 366.60,-729.78 364.72,-728.42 363.02,-726.85 361.46,-725.13 360.04,-723.33"/>
    </edge>
    <edge id=":31_1" function="internal">
        <lane id=":31_1_0" index="0" disallow="pedestrian tram rail_urban rail rail_electric rail_fast ship" speed="36.11" length="39.55" width="3.50" shape="384.57,-724.20 371.99,-739.46 359.41,-754.72"/>
    </edge>
    <edge id=":31_2" function="internal">
        <lane id=":31_2_0" index="0" disallow="pedestrian tram rail_urban rail rail_electric rail_fast ship" speed="36.11" length="39.50" width="3.50" shape="362.12,-756.93 374.69,-741.69 387.25,-726.46"/>
    </edge>
    <edge id=":31_3" function="internal">
        <lane id=":31_3_0" index="0" disallow="pedestrian tram rail_urban rail rail_electric rail_fast ship" speed="13.98" length="36.66" width="3.50" shape="362.12,-756.93 362.88,-755.95 364.25,-753.94 365.44,-751.77 366.39,-749.47 367.07,-747.07 367.46,-744.60 367.55,-742.11 367.36,-739.63 366.92,-737.20 366.26,-734.85 365.40,-732.56 363.86,-729.32 362.04,-726.24 360.04,-723.33"/>
    </edge>
    <edge id=":31_4" function="internal">
        <lane id=":31_4_0" index="0" disallow="pedestrian tram rail_urban rail rail_electric rail_fast ship" speed="13.09" length="32.03" width="3.50" shape="357.22,-725.40 359.03,-728.02 360.67,-730.78 362.06,-733.67 362.82,-735.66 363.41,-737.72 363.82,-739.81 364.01,-741.94 363.95,-744.08 363.64,-746.19 363.08,-748.25 362.28,-750.23 361.26,-752.11 360.07,-753.88 359.41,-754.72"/>
    </edge>
    <edge id=":31_5" function="internal">
        <lane id=":31_5_0" index="0" disallow="pedestrian tram rail_urban rail rail_electric rail_fast ship" speed="11.61" length="36.64" width="3.50" shape="357.22,-725.40 358.88,-727.50 360.70,-729.52 362.73,-731.39 364.98,-733.02 366.25,-733.74 367.57,-734.34 368.97,-734.81 370.42,-735.14 371.91,-735.29 373.41,-735.26 374.88,-735.06 376.31,-734.70 377.68,-734.20 378.98,-733.58 380.24,-732.86 382.48,-731.25 384.53,-729.41 387.25,-726.46"/>
    </edge>

    <edge id="591" from="28" to="29" priority="3" type="highway.residential" spreadType="center" length="54.94" shape="456.56,-636.12 404.56,-688.76">
        <lane id="591_0" index="0" disallow="pedestrian tram rail_urban rail rail_electric rail_fast ship" speed="36.11" length="54.94" width="3.50" customShape="1" shape="456.56,-636.12 439.27,-657.45 421.96,-678.80"/>
    </edge>
    <edge id="592" from="29" to="19" priority="3" type="highway.residential" spreadType="center" length="54.94" shape="407.04,-691.21 459.28,-638.33">
        <lane id="592_0" index="0" disallow="pedestrian tram rail_urban rail rail_electric rail_fast ship" speed="36.11" length="54.94" width="3.50" customShape="1" shape="424.68,-681.00 441.99,-659.65 459.28,-638.33"/>
    </edge>
    <edge id="609" from="31" to="30" priority="3" type="highway.residential" spreadType="center" length="19.76" shape="367.01,-734.16 336.61,-780.10">
        <lane id="609_0" index="0" disallow="pedestrian tram rail_urban rail rail_electric rail_fast ship" speed="36.11" length="19.76" width="3.50" customShape="1" shape="359.41,-754.72 353.17,-762.37 346.91,-770.03"/>
    </edge>
    <edge id="610" from="30" to="31" priority="3" type="highway.residential" spreadType="center" length="19.78" shape="339.53,-782.03 369.93,-736.09">
        <lane id="610_0" index="0" disallow="pedestrian tram rail_urban rail rail_electric rail_fast ship" speed="36.11" length="19.78" width="3.50" customShape="1" shape="349.62,-772.24 355.88,-764.58 362.13,-756.92"/>
    </edge>
    <edge id="612" from="29" to="31" priority="3" type="highway.residential" spreadType="center" length="19.02" shape="404.48,-688.84 367.06,-734.10">
        <lane id="612_0" index="0" disallow="pedestrian tram rail_urban rail rail_electric rail_fast ship" speed="36.11" length="19.02" width="3.50" customShape="1" shape="396.72,-709.59 390.66,-716.89 384.56,-724.22"/>
    </edge>
    <edge id="613" from="31" to="29" priority="3" type="highway.residential" spreadType="center" length="19.05" shape="369.75,-736.33 407.18,-691.07">
        <lane id="613_0" index="0" disallow="pedestrian tram rail_urban rail rail_electric rail_fast ship" speed="36.11" length="19.05" width="3.50" customShape="1" shape="387.25,-726.46 393.35,-719.12 399.43,-711.81"/>
    </edge>
    <edge id="627" from="31" to="6" priority="3" type="highway.residential" spreadType="center" length="70.00" shape="369.85,-734.14 318.49,-666.99">
        <lane id="627_0" index="0" disallow="pedestrian tram rail_urban rail rail_electric rail_fast ship" speed="36.11" length="70.00" width="3.50" customShape="1" shape="360.04,-723.33 321.35,-670.87 318.49,-666.99"/>
    </edge>
    <edge id="628" from="10" to="31" priority="3" type="highway.residential" spreadType="center" length="70.00" shape="315.67,-669.07 367.07,-736.26">
        <lane id="628_0" index="0" disallow="pedestrian tram rail_urban rail rail_electric rail_fast ship" speed="36.11" length="70.00" width="3.50" customShape="1" shape="315.67,-669.07 318.54,-672.95 357.22,-725.40"/>
    </edge>
    <edge id="642" from="30" to="21" priority="3" type="highway.residential" spreadType="center" length="70.00" shape="339.42,-779.95 281.27,-712.37">
        <lane id="642_0" index="0" disallow="pedestrian tram rail_urban rail rail_electric rail_fast ship" speed="36.11" length="70.00" width="3.50" customShape="1" shape="322.54,-768.91 292.85,-727.91 286.03,-718.62 281.27,-712.37"/>
    </edge>
    <edge id="643" from="26" to="30" priority="3" type="highway.residential" spreadType="center" length="70.00" shape="278.45,-714.44 336.76,-782.23">
        <lane id="643_0" index="0" disallow="pedestrian tram rail_urban rail rail_electric rail_fast ship" speed="36.11" length="70.00" width="3.50" customShape="1" shape="278.45,-714.44 283.19,-720.65 290.00,-729.93 319.72,-770.98"/>
    </edge>
    <edge id="645" from="27" to="30" priority="3" type="highway.residential" spreadType="center" length="70.03" shape="385.41,-858.56 339.56,-780.15">
        <lane id="645_0" index="0" disallow="pedestrian tram rail_urban rail rail_electric rail_fast ship" speed="36.11" length="70.03" width="3.50" customShape="1" shape="385.41,-858.56 385.39,-858.40 384.77,-855.95 383.43,-852.13 382.34,-849.85 381.24,-848.15 378.28,-844.68 374.30,-839.45 358.43,-817.19 346.18,-801.04"/>
    </edge>
    <edge id="646" from="30" to="22" priority="3" type="highway.residential" spreadType="center" length="70.00" shape="336.54,-781.91 382.14,-860.79">
        <lane id="646_0" index="0" disallow="pedestrian tram rail_urban rail rail_electric rail_fast ship" speed="36.11" length="70.00" width="3.50" customShape="1" shape="343.39,-803.16 355.59,-819.24 371.42,-841.44 375.43,-846.73 378.35,-850.13 379.32,-851.61 380.30,-853.71 381.53,-857.34 382.04,-859.59 382.14,-860.79"/>
    </edge>
    <edge id="648" from="25" to="29" priority="3" type="highway.residential" spreadType="center" length="69.99" shape="353.14,-623.98 404.46,-691.05">
        <lane id="648_0" index="0" disallow="pedestrian tram rail_urban rail rail_electric rail_fast ship" speed="36.11" length="69.99" width="3.50" customShape="1" shape="353.14,-623.98 358.65,-631.45 394.67,-680.32"/>
    </edge>
    <edge id="649" from="29" to="20" priority="3" type="highway.residential" spreadType="center" length="70.00" shape="407.24,-688.92 355.95,-621.89">
        <lane id="649_0" index="0" disallow="pedestrian tram rail_urban rail rail_electric rail_fast ship" speed="36.11" length="70.00" width="3.50" customShape="1" shape="397.48,-678.24 361.46,-629.37 355.95,-621.89"/>
    </edge>

    <junction id="10" type="dead_end" x="315.67" y="-669.07" incLanes="" intLanes="" shape="317.08,-668.03 314.27,-670.11" rightOfWay="edgePriority"/>
    <junction id="19" type="dead_end" x="459.28" y="-638.33" incLanes="592_0" intLanes="" shape="460.64,-639.43 457.92,-637.23" rightOfWay="edgePriority"/>
    <junction id="20" type="dead_end" x="355.95" y="-621.89" incLanes="649_0" intLanes="" shape="357.36,-620.85 354.54,-622.93" rightOfWay="edgePriority"/>
    <junction id="21" type="dead_end" x="281.27" y="-712.37" incLanes="642_0" intLanes="" shape="282.66,-711.31 279.88,-713.43" rightOfWay="edgePriority"/>
    <junction id="22" type="dead_end" x="382.14" y="-860.79" incLanes="646_0" intLanes="" shape="380.40,-860.94 383.89,-860.64" rightOfWay="edgePriority"/>
    <junction id="25" type="dead_end" x="353.14" y="-623.98" incLanes="" intLanes="" shape="354.55,-622.94 351.73,-625.01" rightOfWay="edgePriority"/>
    <junction id="26" type="dead_end" x="278.45" y="-714.44" incLanes="" intLanes="" shape="279.84,-713.38 277.06,-715.50" rightOfWay="edgePriority"/>
    <junction id="27" type="dead_end" x="385.41" y="-858.56" incLanes="" intLanes="" shape="383.68,-858.80 387.14,-858.33" rightOfWay="edgePriority"/>
    <junction id="28" type="dead_end" x="456.56" y="-636.12" incLanes="" intLanes="" shape="457.92,-637.22 455.20,-635.02" rightOfWay="edgePriority"/>
    <junction id="29" type="priority" x="405.83" y="-689.96" incLanes="591_0 613_0 648_0" intLanes=":29_0_0 :29_1_0 :29_2_0 :29_3_0 :29_4_0 :29_5_0" shape="420.61,-677.70 426.04,-682.10 400.76,-712.95 395.38,-708.47 397.95,-704.56 399.35,-700.40 399.58,-696.00 398.64,-691.36 396.54,-686.47 393.26,-681.35 398.89,-677.20 402.42,-681.18 405.98,-683.61 409.59,-684.47 413.22,-683.77 416.90,-681.51">
        <request index="0" response="000000" foes="001000" cont="0"/>
        <request index="1" response="000000" foes="111000" cont="0"/>
        <request index="2" response="000000" foes="100000" cont="0"/>
        <request index="3" response="000011" foes="100011" cont="0"/>
        <request index="4" response="000010" foes="000010" cont="0"/>
        <request index="5" response="001110" foes="001110" cont="0"/>
    </junction>
    <junction id="30" type="priority" x="338.07" y="-781.06" incLanes="609_0 645_0 643_0" intLanes=":30_0_0 :30_1_0 :30_2_0 :30_3_0 :30_4_0 :30_5_0" shape="345.56,-768.93 350.98,-773.35 347.49,-778.25 345.16,-782.97 344.01,-787.50 344.03,-791.85 345.22,-796.01 347.58,-799.99 342.00,-804.22 318.29,-771.98 323.96,-767.88 327.49,-771.96 331.05,-774.48 334.64,-775.43 338.25,-774.82 341.89,-772.66">
        <request index="0" response="001000" foes="001000" cont="0"/>
        <request index="1" response="111000" foes="111000" cont="0"/>
        <request index="2" response="000000" foes="100000" cont="0"/>
        <request index="3" response="000000" foes="100011" cont="0"/>
        <request index="4" response="000000" foes="000010" cont="0"/>
        <request index="5" response="001100" foes="001110" cont="0"/>
    </junction>
    <junction id="31" type="priority" x="368.44" y="-735.17" incLanes="612_0 610_0 628_0" intLanes=":31_0_0 :31_1_0 :31_2_0 :31_3_0 :31_4_0 :31_5_0" shape="383.21,-723.10 388.59,-727.58 363.48,-758.04 358.06,-753.61 360.59,-749.68 361.96,-745.50 362.17,-741.09 361.21,-736.45 359.10,-731.56 355.81,-726.44 361.45,-722.29 364.98,-726.28 368.55,-728.74 372.16,-729.64 375.81,-729.01 379.49,-726.83">
        <request index="0" response="000000" foes="001000" cont="0"/>
        <request index="1" response="000000" foes="111000" cont="0"/>
        <request index="2" response="000000" foes="100000" cont="0"/>
        <request index="3" response="000011" foes="100011" cont="0"/>
        <request index="4" response="000010" foes="000010" cont="0"/>
        <request index="5" response="001110" foes="001110" cont="0"/>
    </junction>
    <junction id="6" type="dead_end" x="318.49" y="-666.99" incLanes="627_0" intLanes="" shape="319.90,-665.95 317.08,-668.03" rightOfWay="edgePriority"/>

    <connection from="591" to="649" fromLane="0" toLane="0" contPos="-4.00" shape="421.98,-678.78 419.66,-681.37 417.96,-682.95 416.09,-684.34 415.10,-684.94 414.06,-685.46 412.98,-685.88 411.86,-686.19 410.72,-686.38 409.56,-686.43 408.40,-686.33 407.26,-686.10 406.16,-685.74 405.09,-685.27 404.08,-684.70 402.19,-683.35 400.48,-681.78 398.92,-680.06 397.48,-678.24" via=":29_0_0" dir="r" state="M"/>
    <connection from="591" to="612" fromLane="0" toLane="0" contPos="-4.00" shape="421.98,-678.78 418.77,-682.74 396.72,-709.59" via=":29_1_0" dir="s" state="M"/>
    <connection from="609" to="642" fromLane="0" toLane="0" contPos="-4.00" shape="346.92,-770.02 344.59,-772.60 342.88,-774.16 341.00,-775.51 339.99,-776.09 338.94,-776.58 337.85,-776.96 336.73,-777.23 335.58,-777.37 334.42,-777.37 333.27,-777.22 332.15,-776.95 331.06,-776.55 330.02,-776.05 329.02,-775.45 327.17,-774.06 325.49,-772.47 323.96,-770.74 322.54,-768.91" via=":30_0_0" dir="r" state="m"/>
    <connection from="609" to="646" fromLane="0" toLane="0" contPos="-4.00" shape="346.92,-770.02 344.71,-772.92 342.72,-775.96 341.02,-779.18 340.08,-781.41 339.34,-783.72 338.82,-786.09 338.55,-788.50 338.57,-790.93 338.87,-793.33 339.46,-795.68 340.31,-797.95 341.40,-800.12 342.69,-802.18 343.39,-803.16" via=":30_1_0" dir="l" state="m"/>
    <connection from="610" to="613" fromLane="0" toLane="0" contPos="-4.00" shape="362.13,-756.92 374.69,-741.69 387.25,-726.46" via=":31_2_0" dir="s" state="M"/>
    <connection from="610" to="627" fromLane="0" toLane="0" contPos="-4.00" shape="362.13,-756.92 362.88,-755.95 364.25,-753.94 365.44,-751.77 366.39,-749.47 367.07,-747.07 367.46,-744.60 367.55,-742.11 367.36,-739.63 366.92,-737.20 366.26,-734.85 365.40,-732.56 363.86,-729.32 362.04,-726.24 360.04,-723.33" via=":31_3_0" dir="l" state="m"/>
    <connection from="612" to="627" fromLane="0" toLane="0" contPos="-4.00" shape="384.57,-724.20 382.22,-726.76 380.49,-728.31 378.61,-729.66 377.61,-730.24 376.56,-730.73 375.47,-731.13 374.34,-731.41 373.20,-731.57 372.04,-731.59 370.88,-731.47 369.75,-731.21 368.66,-730.84 367.60,-730.36 366.60,-729.78 364.72,-728.42 363.02,-726.85 361.46,-725.13 360.04,-723.33" via=":31_0_0" dir="r" state="M"/>
    <connection from="612" to="609" fromLane="0" toLane="0" contPos="-4.00" shape="384.57,-724.20 371.99,-739.46 359.41,-754.72" via=":31_1_0" dir="s" state="M"/>
    <connection from="613" to="592" fromLane="0" toLane="0" contPos="-4.00" shape="399.43,-711.81 421.48,-684.95 424.68,-681.00" via=":29_2_0" dir="s" state="M"/>
    <connection from="613" to="649" fromLane="0" toLane="0" contPos="-4.00" shape="399.43,-711.81 400.92,-709.86 402.22,-707.79 403.31,-705.60 404.15,-703.30 404.72,-700.92 404.99,-698.49 404.98,-696.04 404.69,-693.61 404.16,-691.22 403.42,-688.89 401.97,-685.52 400.21,-682.30 398.20,-679.23 397.48,-678.24" via=":29_3_0" dir="l" state="m"/>
    <connection from="628" to="609" fromLane="0" toLane="0" contPos="-4.00" shape="357.22,-725.40 359.03,-728.02 360.67,-730.78 362.06,-733.67 362.82,-735.66 363.41,-737.72 363.82,-739.81 364.01,-741.94 363.95,-744.08 363.64,-746.19 363.08,-748.25 362.28,-750.23 361.26,-752.11 360.07,-753.88 359.41,-754.72" via=":31_4_0" dir="r" state="m"/>
    <connection from="628" to="613" fromLane="0" toLane="0" contPos="-4.00" shape="357.22,-725.40 358.88,-727.50 360.70,-729.52 362.73,-731.39 364.98,-733.02 366.25,-733.74 367.57,-734.34 368.97,-734.81 370.42,-735.14 371.91,-735.29 373.41,-735.26 374.88,-735.06 376.31,-734.70 377.68,-734.20 378.98,-733.58 380.24,-732.86 382.48,-731.25 384.53,-729.41 387.25,-726.46" via=":31_5_0" dir="l" state="m"/>
    <connection from="643" to="646" fromLane="0" toLane="0" contPos="-4.00" shape="319.72,-770.98 325.74,-779.25 343.39,-803.16" via=":30_4_0" dir="s" state="M"/>
    <connection from="643" to="610" fromLane="0" toLane="0" contPos="-4.00" shape="319.72,-770.98 321.35,-773.09 323.16,-775.12 325.16,-777.01 327.38,-778.68 328.64,-779.42 329.95,-780.05 331.33,-780.55 332.78,-780.90 334.26,-781.08 335.76,-781.08 337.25,-780.89 338.69,-780.55 340.07,-780.05 341.38,-779.44 342.63,-778.71 344.87,-777.09 346.92,-775.24 349.62,-772.24" via=":30_5_0" dir="l" state="m"/>
    <connection from="645" to="610" fromLane="0" toLane="0" contPos="-4.00" shape="346.20,-801.07 345.59,-800.22 344.46,-798.41 343.53,-796.54 342.81,-794.60 342.33,-792.60 342.09,-790.55 342.10,-788.49 342.35,-786.43 342.82,-784.39 343.48,-782.38 344.31,-780.43 345.85,-777.57 347.64,-774.84 349.62,-772.24" via=":30_2_0" dir="r" state="M"/>
    <connection from="645" to="642" fromLane="0" toLane="0" contPos="-4.00" shape="346.20,-801.07 328.56,-777.18 322.54,-768.91" via=":30_3_0" dir="s" state="M"/>
    <connection from="648" to="612" fromLane="0" toLane="0" contPos="-4.00" shape="394.67,-680.32 395.30,-681.20 397.13,-683.98 398.72,-686.86 400.02,-689.86 400.68,-691.88 401.16,-693.95 401.43,-696.04 401.46,-698.13 401.25,-700.20 400.79,-702.22 400.09,-704.19 399.16,-706.07 398.04,-707.87 396.72,-709.59" via=":29_4_0" dir="r" state="m"/>
    <connection from="648" to="592" fromLane="0" toLane="0" contPos="-4.00" shape="394.67,-680.32 396.33,-682.44 398.17,-684.46 400.21,-686.33 402.48,-687.95 403.77,-688.67 405.10,-689.26 406.51,-689.71 407.97,-690.01 409.47,-690.14 410.98,-690.08 412.45,-689.84 413.88,-689.44 415.24,-688.91 416.52,-688.27 417.76,-687.52 419.98,-685.87 422.01,-683.99 424.68,-681.00" via=":29_5_0" dir="l" state="m"/>

    <connection from=":29_0" to="649" fromLane="0" toLane="0" dir="r" state="M"/>
    <connection from=":29_1" to="612" fromLane="0" toLane="0" dir="s" state="M"/>
    <connection from=":29_2" to="592" fromLane="0" toLane="0" dir="s" state="M"/>
    <connection from=":29_3" to="649" fromLane="0" toLane="0" dir="l" state="M"/>
    <connection from=":29_4" to="612" fromLane="0" toLane="0" dir="r" state="M"/>
    <connection from=":29_5" to="592" fromLane="0" toLane="0" dir="l" state="M"/>
    <connection from=":30_0" to="642" fromLane="0" toLane="0" dir="r" state="M"/>
    <connection from=":30_1" to="646" fromLane="0" toLane="0" dir="l" state="M"/>
    <connection from=":30_2" to="610" fromLane="0" toLane="0" dir="r" state="M"/>
    <connection from=":30_3" to="642" fromLane="0" toLane="0" dir="s" state="M"/>
    <connection from=":30_4" to="646" fromLane="0" toLane="0" dir="s" state="M"/>
    <connection from=":30_5" to="610" fromLane="0" toLane="0" dir="l" state="M"/>
    <connection from=":31_0" to="627" fromLane="0" toLane="0" dir="r" state="M"/>
    <connection from=":31_1" to="609" fromLane="0" toLane="0" dir="s" state="M"/>
    <connection from=":31_2" to="613" fromLane="0" toLane="0" dir="s" state="M"/>
    <connection from=":31_3" to="627" fromLane="0" toLane="0" dir="l" state="M"/>
    <connection from=":31_4" to="609" fromLane="0" toLane="0" dir="r" state="M"/>
    <connection from=":31_5" to="613" fromLane="0" toLane="0" dir="l" state="M"/>

</net>