<routes>
	<vehicle depart="0.1" departLane="0" departPos="10.514438505958168" departSpeed="0.0" id="33" type="passenger">
		<route edges=":49_2 75845"/>
	</vehicle>
	<vehicle depart="0.1" departLane="0" departPos="6.840100790021955" departSpeed="0.093848787" id="39" type="passenger">
		<route edges=":47_0 76019"/>
	</vehicle>
	<vehicle depart="0.1" departLane="0" departPos="20.844532705638485" departSpeed="1.3256019" id="310" type="passenger">
		<route edges=":49_2 75845 76019"/>
	</vehicle>
	<vehicle depart="0.1" departLane="0" departPos="37.376212523579994" departSpeed="0.0" id="315" type="passenger">
		<route edges=":50_0 75817"/>
	</vehicle>
	<vehicle depart="0.1" departLane="0" departPos="35.6397211305007" departSpeed="5.6929177" id="326" type="passenger">
		<route edges=":46_0 76022"/>
	</vehicle>
	<vehicle depart="0.1" departLane="0" departPos="25.39693755634304" departSpeed="4.5148514" id="328" type="motorcycle">
		<route edges=":46_1 75956 75982"/>
	</vehicle>
	<vehicle depart="0.1" departLane="0" departPos="19.99244080976558" departSpeed="0.64005632" id="34" type="truck">
		<route edges=":47_0 76019"/>
	</vehicle>
</routes>
