<!-- generated on Tue Feb  9 22:15:52 2021 by Eclipse SUMO netconvert Version 1.8.0
<configuration xmlns:xsi="http://www.w3.org/2001/XMLSchema-instance" xsi:noNamespaceSchemaLocation="http://sumo.dlr.de/xsd/netconvertConfiguration.xsd">

    <input>
        <node-files value="./converted_scenarios/scenario-factory/ESP_Toledo-23_1_I-1-1/ESP_Toledo-23_1_I-1-1.nod.xml"/>
        <edge-files value="./converted_scenarios/scenario-factory/ESP_Toledo-23_1_I-1-1/ESP_Toledo-23_1_I-1-1.edg.xml"/>
        <connection-files value="./converted_scenarios/scenario-factory/ESP_Toledo-23_1_I-1-1/ESP_Toledo-23_1_I-1-1.con.xml"/>
        <tllogic-files value="./converted_scenarios/scenario-factory/ESP_Toledo-23_1_I-1-1/ESP_Toledo-23_1_I-1-1.tll.xml"/>
        <type-files value="/home/zen/commonroad-interactive-benchmarks/install/commonroad-map-tool/crmapconverter/sumo_map/templates/DEU.typ.xml"/>
    </input>

    <output>
        <output-file value="./converted_scenarios/scenario-factory/ESP_Toledo-23_1_I-1-1/ESP_Toledo-23_1_I-1-1.net.xml"/>
    </output>

    <processing>
        <geometry.remove.keep-edges.explicit value="true"/>
        <geometry.avoid-overlap value="true"/>
        <offset.disable-normalization value="true"/>
    </processing>

    <junctions>
        <no-turnarounds value="true"/>
        <junctions.internal-link-detail value="20"/>
    </junctions>

    <report>
        <aggregate-warnings value="5"/>
    </report>

    <random_number>
        <seed value="1234"/>
    </random_number>

</configuration>
--><net xmlns:xsi="http://www.w3.org/2001/XMLSchema-instance" version="1.6" junctionCornerDetail="5" junctionLinkDetail="20" limitTurnSpeed="5.50" xsi:noNamespaceSchemaLocation="http://sumo.dlr.de/xsd/net_file.xsd">

    <location netOffset="0.00,0.00" convBoundary="-356.80,-862.82,-285.21,-743.64" origBoundary="-359.81,-863.79,-283.76,-741.83" projParameter="!"/>

    <type id="highway.bridleway" priority="1" speed="2.78" allow="pedestrian" oneway="1" width="2.00"/>
    <type id="highway.bus_guideway" priority="1" speed="27.78" allow="bus" oneway="1"/>
    <type id="highway.cycleway" priority="1" speed="8.33" allow="bicycle" oneway="0" width="1.00"/>
    <type id="highway.footway" priority="1" speed="2.78" allow="pedestrian" oneway="1" width="2.00"/>
    <type id="highway.ford" priority="1" speed="2.78" allow="army" oneway="0"/>
    <type id="highway.living_street" priority="2" speed="2.78" disallow="tram rail_urban rail rail_electric rail_fast ship" oneway="0"/>
    <type id="highway.motorway" priority="14" speed="39.44" allow="private emergency authority army vip passenger hov taxi bus coach delivery truck trailer motorcycle evehicle custom1 custom2" oneway="1"/>
    <type id="highway.motorway_link" priority="9" speed="22.22" allow="private emergency authority army vip passenger hov taxi bus coach delivery truck trailer motorcycle evehicle custom1 custom2" oneway="1"/>
    <type id="highway.path" priority="1" speed="2.78" allow="pedestrian bicycle" oneway="0" width="2.00"/>
    <type id="highway.pedestrian" priority="1" speed="2.78" allow="pedestrian" oneway="1" width="2.00"/>
    <type id="highway.primary" priority="12" speed="27.78" disallow="pedestrian tram rail_urban rail rail_electric rail_fast ship" oneway="0"/>
    <type id="highway.primary_link" priority="7" speed="22.22" disallow="pedestrian tram rail_urban rail rail_electric rail_fast ship" oneway="0"/>
    <type id="highway.raceway" priority="15" speed="83.33" allow="vip" oneway="0"/>
    <type id="highway.residential" priority="3" speed="13.89" disallow="pedestrian tram rail_urban rail rail_electric rail_fast ship" oneway="0"/>
    <type id="highway.secondary" priority="11" speed="27.78" disallow="pedestrian tram rail_urban rail rail_electric rail_fast ship" oneway="0"/>
    <type id="highway.secondary_link" priority="6" speed="22.22" disallow="pedestrian tram rail_urban rail rail_electric rail_fast ship" oneway="0"/>
    <type id="highway.service" priority="1" speed="5.56" allow="pedestrian delivery bicycle" oneway="0"/>
    <type id="highway.stairs" priority="1" speed="1.39" allow="pedestrian" oneway="1" width="2.00"/>
    <type id="highway.step" priority="1" speed="1.39" allow="pedestrian" oneway="1" width="2.00"/>
    <type id="highway.steps" priority="1" speed="1.39" allow="pedestrian" oneway="1" width="2.00"/>
    <type id="highway.tertiary" priority="10" speed="22.22" disallow="pedestrian tram rail_urban rail rail_electric rail_fast ship" oneway="0"/>
    <type id="highway.tertiary_link" priority="5" speed="22.22" disallow="pedestrian tram rail_urban rail rail_electric rail_fast ship" oneway="0"/>
    <type id="highway.track" priority="1" speed="5.56" allow="pedestrian motorcycle moped bicycle" oneway="0"/>
    <type id="highway.trunk" priority="13" speed="27.78" disallow="pedestrian bicycle tram rail_urban rail rail_electric rail_fast ship" oneway="0"/>
    <type id="highway.trunk_link" priority="8" speed="22.22" disallow="pedestrian bicycle tram rail_urban rail rail_electric rail_fast ship" oneway="0"/>
    <type id="highway.unclassified" priority="4" speed="13.89" disallow="pedestrian tram rail_urban rail rail_electric rail_fast ship" oneway="0"/>
    <type id="highway.unsurfaced" priority="1" speed="8.33" disallow="tram rail_urban rail rail_electric rail_fast ship" oneway="0"/>
    <type id="railway.highspeed" priority="21" speed="69.44" allow="rail_fast" oneway="1"/>
    <type id="railway.light_rail" priority="19" speed="27.78" allow="rail_urban" oneway="1"/>
    <type id="railway.preserved" priority="16" speed="27.78" allow="rail" oneway="1"/>
    <type id="railway.rail" priority="20" speed="44.44" allow="rail" oneway="1"/>
    <type id="railway.subway" priority="18" speed="27.78" allow="rail_urban" oneway="1"/>
    <type id="railway.tram" priority="17" speed="13.89" allow="tram" oneway="1"/>

    <edge id=":4_0" function="internal">
        <lane id=":4_0_0" index="0" disallow="pedestrian tram rail_urban rail rail_electric rail_fast ship" speed="36.11" length="3.00" width="3.50" shape="-304.56,-837.01 -302.87,-839.49"/>
        <lane id=":4_0_1" index="1" disallow="pedestrian tram rail_urban rail rail_electric rail_fast ship" speed="36.11" length="3.03" width="3.50" shape="-301.68,-835.03 -299.97,-837.53"/>
    </edge>
    <edge id=":6_0" function="internal">
        <lane id=":6_0_0" index="0" disallow="pedestrian tram rail_urban rail rail_electric rail_fast ship" speed="36.11" length="8.10" width="3.50" shape="-321.52,-816.28 -318.08,-820.02 -316.04,-822.24"/>
        <lane id=":6_0_1" index="1" disallow="pedestrian tram rail_urban rail rail_electric rail_fast ship" speed="36.11" length="7.86" width="3.50" shape="-319.41,-815.01 -318.40,-816.63 -315.11,-821.59"/>
        <lane id=":6_0_2" index="2" disallow="pedestrian tram rail_urban rail rail_electric rail_fast ship" speed="36.11" length="7.64" width="3.50" shape="-316.41,-813.20 -315.47,-814.71 -312.23,-819.59"/>
    </edge>

    <edge id="61369" from="3" to="6" priority="3" type="highway.residential" spreadType="center" length="80.29">
        <lane id="61369_0" index="0" disallow="pedestrian tram rail_urban rail rail_electric rail_fast ship" speed="36.11" length="80.98" width="3.50" customShape="1" shape="-359.96,-745.14 -355.35,-754.84 -347.68,-771.33 -341.08,-784.41 -334.36,-796.85 -328.55,-806.90 -322.56,-816.90"/>
        <lane id="61369_1" index="1" disallow="pedestrian tram rail_urban rail rail_electric rail_fast ship" speed="36.11" length="80.64" width="3.50" customShape="1" shape="-356.80,-743.64 -352.27,-753.17 -344.62,-769.62 -338.04,-782.66 -331.34,-795.08 -325.55,-805.10 -319.56,-815.10"/>
        <lane id="61369_2" index="2" disallow="pedestrian tram rail_urban rail rail_electric rail_fast ship" speed="36.11" length="80.29" width="3.50" customShape="1" shape="-353.64,-742.14 -349.14,-751.60 -341.53,-767.97 -334.99,-780.96 -328.32,-793.32 -322.55,-803.31 -316.56,-813.29"/>
    </edge>
    <edge id="61514" from="4" to="5" priority="3" type="highway.residential" spreadType="center" length="29.20">
        <lane id="61514_0" index="0" disallow="pedestrian tram rail_urban rail rail_electric rail_fast ship" speed="36.11" length="29.20" width="3.50" customShape="1" shape="-302.87,-839.49 -296.02,-849.76 -288.33,-861.29 -287.50,-862.54 -286.67,-863.79"/>
        <lane id="61514_1" index="1" disallow="pedestrian tram rail_urban rail rail_electric rail_fast ship" speed="36.11" length="29.23" width="3.50" customShape="1" shape="-299.97,-837.53 -293.12,-847.81 -285.42,-859.35 -284.59,-860.60 -283.76,-861.85"/>
    </edge>
    <edge id="61576" from="6" to="4" priority="3" type="highway.residential" spreadType="center" length="18.68">
        <lane id="61576_0" index="0" disallow="pedestrian tram rail_urban rail rail_electric rail_fast ship" speed="36.11" length="18.68" width="3.50" customShape="1" shape="-315.22,-821.67 -306.40,-834.36 -304.56,-837.01"/>
        <lane id="61576_1" index="1" disallow="pedestrian tram rail_urban rail rail_electric rail_fast ship" speed="36.11" length="18.70" width="3.50" customShape="1" shape="-312.35,-819.67 -303.53,-832.36 -301.68,-835.03"/>
    </edge>

    <junction id="3" type="dead_end" x="-356.80" y="-743.64" incLanes="" intLanes="" shape="-352.06,-741.38 -361.54,-745.89" rightOfWay="edgePriority"/>
    <junction id="4" type="priority" x="-302.26" y="-837.25" incLanes="61576_0 61576_1" intLanes=":4_0_0 :4_0_1" shape="-298.52,-836.55 -304.32,-840.47 -306.00,-838.01 -300.24,-834.03" rightOfWay="edgePriority">
        <request index="0" response="00" foes="00" cont="0"/>
        <request index="1" response="00" foes="00" cont="0"/>
    </junction>
    <junction id="5" type="dead_end" x="-285.21" y="-862.82" incLanes="61514_0 61514_1" intLanes="" shape="-288.13,-864.76 -282.30,-860.88" rightOfWay="edgePriority"/>
    <junction id="6" type="priority" x="-318.57" y="-819.12" incLanes="61369_0 61369_1 61369_2" intLanes=":6_0_0 :6_0_1 :6_0_2" shape="-310.92,-818.67 -316.66,-822.67 -319.19,-820.64 -320.45,-820.30 -321.69,-819.95 -322.89,-819.23 -324.06,-817.80 -315.06,-812.39">
        <request index="0" response="010" foes="010" cont="0"/>
        <request index="1" response="000" foes="001" cont="0"/>
        <request index="2" response="000" foes="000" cont="0"/>
    </junction>

    <connection from="61369" to="61576" fromLane="0" toLane="0" contPos="-4.00" shape="-328.03,-807.78 -325.77,-811.17 -322.91,-814.76 -318.08,-820.02 -312.89,-825.65 -310.01,-829.22 -309.11,-830.46" via=":6_0_0" dir="s" state="m"/>
    <connection from="61369" to="61576" fromLane="1" toLane="0" contPos="-4.00" shape="-325.03,-805.97 -318.40,-816.63 -311.48,-827.04 -309.11,-830.46" via=":6_0_1" dir="s" state="M"/>
    <connection from="61369" to="61576" fromLane="2" toLane="1" contPos="-4.00" shape="-322.03,-804.17 -315.47,-814.71 -308.60,-825.06 -306.24,-828.46" via=":6_0_2" dir="s" state="M"/>
    <connection from="61576" to="61514" fromLane="0" toLane="0" contPos="-4.00" via=":4_0_0" dir="s" state="M"/>
    <connection from="61576" to="61514" fromLane="1" toLane="1" contPos="-4.00" via=":4_0_1" dir="s" state="M"/>

    <connection from=":4_0" to="61514" fromLane="0" toLane="0" dir="s" state="M"/>
    <connection from=":4_0" to="61514" fromLane="1" toLane="1" dir="s" state="M"/>
    <connection from=":6_0" to="61576" fromLane="0" toLane="0" dir="s" state="M"/>
    <connection from=":6_0" to="61576" fromLane="1" toLane="0" dir="s" state="M"/>
    <connection from=":6_0" to="61576" fromLane="2" toLane="1" dir="s" state="M"/>

</net>