<routes>
	<vehicle depart="0.1" departLane="2" departPos="66.8754938829279" departSpeed="15.39726" id="340" type="passenger">
		<route edges="61369 61576 61514"/>
	</vehicle>
	<vehicle depart="0.1" departLane="2" departPos="45.54959426368349" departSpeed="14.38658" id="341" type="passenger">
		<route edges="61369 61576 61514"/>
	</vehicle>
	<vehicle depart="0.1" departLane="1" departPos="42.432083654821575" departSpeed="7.9314659" id="342" type="passenger">
		<route edges="61369 61576"/>
	</vehicle>
	<vehicle depart="0.1" departLane="2" departPos="16.006764255536506" departSpeed="11.727958" id="343" type="motorcycle">
		<route edges="61369 61576"/>
	</vehicle>
</routes>
