<routes>
	<vehicle depart="0.1" departLane="0" departPos="21.689729571916324" departSpeed="0.2408693" id="38" type="bicycle">
		<route edges=":25_4 108605"/>
	</vehicle>
	<vehicle depart="0.1" departLane="0" departPos="1.0" departSpeed="0.64800227" id="310" type="bicycle">
		<route edges=":25_7 107268"/>
	</vehicle>
	<vehicle depart="0.1" departLane="0" departPos="67.89377762467359" departSpeed="0.053963793" id="313" type="passenger">
		<route edges="107265 108605"/>
	</vehicle>
	<vehicle depart="0.1" departLane="0" departPos="26.043837650699704" departSpeed="0.27901883" id="318" type="passenger">
		<route edges=":25_8 108605"/>
	</vehicle>
	<vehicle depart="0.1" departLane="0" departPos="12.610658526701698" departSpeed="0.50848226" id="319" type="passenger">
		<route edges=":25_8 108605"/>
	</vehicle>
	<vehicle depart="0.1" departLane="0" departPos="59.71942165377629" departSpeed="0.032374263" id="325" type="passenger">
		<route edges="107265 108605"/>
	</vehicle>
	<vehicle depart="0.1" departLane="0" departPos="48.7609332264848" departSpeed="0.89417661" id="332" type="passenger">
		<route edges="107265 108605"/>
	</vehicle>
	<vehicle depart="0.1" departLane="0" departPos="32.30784901482906" departSpeed="1.2141784" id="336" type="passenger">
		<route edges="107265 108605"/>
	</vehicle>
	<vehicle depart="0.1" departLane="0" departPos="17.62312502248478" departSpeed="11.497324" id="353" type="passenger">
		<route edges=":25_2 108609"/>
	</vehicle>
	<vehicle depart="0.1" departLane="0" departPos="72.66373182146116" departSpeed="1.7565791" id="322" type="truck">
		<route edges="108608 108605 108118"/>
	</vehicle>
</routes>
