<!-- generated on Tue Feb  9 22:02:54 2021 by Eclipse SUMO netconvert Version 1.8.0
<configuration xmlns:xsi="http://www.w3.org/2001/XMLSchema-instance" xsi:noNamespaceSchemaLocation="http://sumo.dlr.de/xsd/netconvertConfiguration.xsd">

    <input>
        <node-files value="./converted_scenarios/scenario-factory/DEU_Moabit-2_2_I-1-1/DEU_Moabit-2_2_I-1-1.nod.xml"/>
        <edge-files value="./converted_scenarios/scenario-factory/DEU_Moabit-2_2_I-1-1/DEU_Moabit-2_2_I-1-1.edg.xml"/>
        <connection-files value="./converted_scenarios/scenario-factory/DEU_Moabit-2_2_I-1-1/DEU_Moabit-2_2_I-1-1.con.xml"/>
        <tllogic-files value="./converted_scenarios/scenario-factory/DEU_Moabit-2_2_I-1-1/DEU_Moabit-2_2_I-1-1.tll.xml"/>
        <type-files value="/home/zen/commonroad-interactive-benchmarks/install/commonroad-map-tool/crmapconverter/sumo_map/templates/DEU.typ.xml"/>
    </input>

    <output>
        <output-file value="./converted_scenarios/scenario-factory/DEU_Moabit-2_2_I-1-1/DEU_Moabit-2_2_I-1-1.net.xml"/>
    </output>

    <processing>
        <geometry.remove.keep-edges.explicit value="true"/>
        <geometry.avoid-overlap value="true"/>
        <offset.disable-normalization value="true"/>
    </processing>

    <junctions>
        <no-turnarounds value="true"/>
        <junctions.internal-link-detail value="20"/>
    </junctions>

    <report>
        <aggregate-warnings value="5"/>
    </report>

    <random_number>
        <seed value="1234"/>
    </random_number>

</configuration>
--><net xmlns:xsi="http://www.w3.org/2001/XMLSchema-instance" version="1.6" junctionCornerDetail="5" junctionLinkDetail="20" limitTurnSpeed="5.50" xsi:noNamespaceSchemaLocation="http://sumo.dlr.de/xsd/net_file.xsd">

    <location netOffset="0.00,0.00" convBoundary="826.30,190.97,1022.38,371.80" origBoundary="826.30,190.97,1022.38,371.80" projParameter="!"/>

    <type id="highway.bridleway" priority="1" speed="2.78" allow="pedestrian" oneway="1" width="2.00"/>
    <type id="highway.bus_guideway" priority="1" speed="27.78" allow="bus" oneway="1"/>
    <type id="highway.cycleway" priority="1" speed="8.33" allow="bicycle" oneway="0" width="1.00"/>
    <type id="highway.footway" priority="1" speed="2.78" allow="pedestrian" oneway="1" width="2.00"/>
    <type id="highway.ford" priority="1" speed="2.78" allow="army" oneway="0"/>
    <type id="highway.living_street" priority="2" speed="2.78" disallow="tram rail_urban rail rail_electric rail_fast ship" oneway="0"/>
    <type id="highway.motorway" priority="14" speed="39.44" allow="private emergency authority army vip passenger hov taxi bus coach delivery truck trailer motorcycle evehicle custom1 custom2" oneway="1"/>
    <type id="highway.motorway_link" priority="9" speed="22.22" allow="private emergency authority army vip passenger hov taxi bus coach delivery truck trailer motorcycle evehicle custom1 custom2" oneway="1"/>
    <type id="highway.path" priority="1" speed="2.78" allow="pedestrian bicycle" oneway="0" width="2.00"/>
    <type id="highway.pedestrian" priority="1" speed="2.78" allow="pedestrian" oneway="1" width="2.00"/>
    <type id="highway.primary" priority="12" speed="27.78" disallow="pedestrian tram rail_urban rail rail_electric rail_fast ship" oneway="0"/>
    <type id="highway.primary_link" priority="7" speed="22.22" disallow="pedestrian tram rail_urban rail rail_electric rail_fast ship" oneway="0"/>
    <type id="highway.raceway" priority="15" speed="83.33" allow="vip" oneway="0"/>
    <type id="highway.residential" priority="3" speed="13.89" disallow="pedestrian tram rail_urban rail rail_electric rail_fast ship" oneway="0"/>
    <type id="highway.secondary" priority="11" speed="27.78" disallow="pedestrian tram rail_urban rail rail_electric rail_fast ship" oneway="0"/>
    <type id="highway.secondary_link" priority="6" speed="22.22" disallow="pedestrian tram rail_urban rail rail_electric rail_fast ship" oneway="0"/>
    <type id="highway.service" priority="1" speed="5.56" allow="pedestrian delivery bicycle" oneway="0"/>
    <type id="highway.stairs" priority="1" speed="1.39" allow="pedestrian" oneway="1" width="2.00"/>
    <type id="highway.step" priority="1" speed="1.39" allow="pedestrian" oneway="1" width="2.00"/>
    <type id="highway.steps" priority="1" speed="1.39" allow="pedestrian" oneway="1" width="2.00"/>
    <type id="highway.tertiary" priority="10" speed="22.22" disallow="pedestrian tram rail_urban rail rail_electric rail_fast ship" oneway="0"/>
    <type id="highway.tertiary_link" priority="5" speed="22.22" disallow="pedestrian tram rail_urban rail rail_electric rail_fast ship" oneway="0"/>
    <type id="highway.track" priority="1" speed="5.56" allow="pedestrian motorcycle moped bicycle" oneway="0"/>
    <type id="highway.trunk" priority="13" speed="27.78" disallow="pedestrian bicycle tram rail_urban rail rail_electric rail_fast ship" oneway="0"/>
    <type id="highway.trunk_link" priority="8" speed="22.22" disallow="pedestrian bicycle tram rail_urban rail rail_electric rail_fast ship" oneway="0"/>
    <type id="highway.unclassified" priority="4" speed="13.89" disallow="pedestrian tram rail_urban rail rail_electric rail_fast ship" oneway="0"/>
    <type id="highway.unsurfaced" priority="1" speed="8.33" disallow="tram rail_urban rail rail_electric rail_fast ship" oneway="0"/>
    <type id="railway.highspeed" priority="21" speed="69.44" allow="rail_fast" oneway="1"/>
    <type id="railway.light_rail" priority="19" speed="27.78" allow="rail_urban" oneway="1"/>
    <type id="railway.preserved" priority="16" speed="27.78" allow="rail" oneway="1"/>
    <type id="railway.rail" priority="20" speed="44.44" allow="rail" oneway="1"/>
    <type id="railway.subway" priority="18" speed="27.78" allow="rail_urban" oneway="1"/>
    <type id="railway.tram" priority="17" speed="13.89" allow="tram" oneway="1"/>

    <edge id=":25_0" function="internal">
        <lane id=":25_0_0" index="0" disallow="pedestrian tram rail_urban rail rail_electric rail_fast ship" speed="10.80" length="29.44" width="3.50" shape="931.32,301.80 931.21,299.55 930.92,297.30 930.42,295.10 929.64,292.97 929.12,291.96 928.53,290.99 927.84,290.09 927.07,289.26 926.21,288.52 925.28,287.88 924.29,287.32 923.25,286.87 922.18,286.51 919.96,286.03 917.71,285.83 915.44,285.85 912.06,286.20"/>
    </edge>
    <edge id=":25_1" function="internal">
        <lane id=":25_1_0" index="0" disallow="pedestrian tram rail_urban rail rail_electric rail_fast ship" speed="36.11" length="40.79" width="3.50" shape="931.32,301.80 931.06,281.43 930.79,261.01"/>
    </edge>
    <edge id=":25_2" function="internal">
        <lane id=":25_2_0" index="0" disallow="pedestrian tram rail_urban rail rail_electric rail_fast ship" speed="12.85" length="35.92" width="3.50" shape="931.32,301.80 931.36,299.31 931.75,295.59 932.27,293.08 933.05,290.63 934.12,288.26 935.52,286.04 937.23,284.03 939.21,282.30 941.41,280.88 943.74,279.75 946.16,278.91 948.64,278.31 952.34,277.78"/>
    </edge>
    <edge id=":25_3" function="internal">
        <lane id=":25_3_0" index="0" disallow="pedestrian tram rail_urban rail rail_electric rail_fast ship" speed="11.90" length="30.64" width="3.50" shape="952.66,281.27 949.41,281.73 947.29,282.25 945.22,282.97 943.24,283.92 941.41,285.11 939.76,286.56 938.35,288.23 937.19,290.08 936.29,292.08 935.63,294.17 935.19,296.31 934.85,299.58 934.82,301.76"/>
    </edge>
    <edge id=":25_4" function="internal">
        <lane id=":25_4_0" index="0" disallow="pedestrian tram rail_urban rail rail_electric rail_fast ship" speed="36.11" length="40.90" width="3.50" shape="952.66,281.27 937.40,282.82 921.17,284.88 912.06,286.20"/>
    </edge>
    <edge id=":25_5" function="internal">
        <lane id=":25_5_0" index="0" disallow="pedestrian tram rail_urban rail rail_electric rail_fast ship" speed="11.96" length="34.85" width="3.50" shape="952.66,281.27 949.99,281.42 947.31,281.36 944.65,281.04 942.05,280.40 940.79,279.94 939.58,279.38 938.41,278.72 937.32,277.95 936.30,277.07 935.37,276.11 934.54,275.06 933.80,273.94 933.17,272.76 932.16,270.28 931.47,267.69 931.04,265.05 930.79,261.01"/>
    </edge>
    <edge id=":25_6" function="internal">
        <lane id=":25_6_0" index="0" disallow="pedestrian tram rail_urban rail rail_electric rail_fast ship" speed="10.94" length="28.95" width="3.50" shape="934.29,260.97 934.51,264.49 934.87,266.73 935.44,268.91 936.29,270.99 936.79,271.91 937.38,272.81 938.03,273.65 938.76,274.41 939.56,275.10 940.43,275.71 941.35,276.24 942.33,276.69 943.32,277.05 945.50,277.59 947.74,277.86 950.04,277.91 952.34,277.78"/>
    </edge>
    <edge id=":25_7" function="internal">
        <lane id=":25_7_0" index="0" disallow="pedestrian tram rail_urban rail rail_electric rail_fast ship" speed="36.11" length="40.79" width="3.50" shape="934.29,260.97 934.56,281.38 934.82,301.76"/>
    </edge>
    <edge id=":25_8" function="internal">
        <lane id=":25_8_0" index="0" disallow="pedestrian tram rail_urban rail rail_electric rail_fast ship" speed="13.45" length="37.47" width="3.50" shape="934.29,260.97 934.16,264.74 933.85,267.21 933.32,269.65 932.56,272.03 931.54,274.31 930.24,276.44 928.69,278.40 926.90,280.13 924.90,281.64 922.75,282.91 920.49,283.96 916.94,285.17 913.29,286.00 912.06,286.20"/>
    </edge>
    <edge id=":25_9" function="internal">
        <lane id=":25_9_0" index="0" disallow="pedestrian tram rail_urban rail rail_electric rail_fast ship" speed="12.53" length="32.42" width="3.50" shape="911.53,282.74 912.61,282.56 915.87,281.83 919.00,280.76 920.95,279.86 922.80,278.78 924.49,277.50 926.01,276.04 927.32,274.40 928.42,272.60 929.29,270.67 929.95,268.63 930.40,266.51 930.68,264.36 930.79,261.01"/>
    </edge>
    <edge id=":25_10" function="internal">
        <lane id=":25_10_0" index="0" disallow="pedestrian tram rail_urban rail rail_electric rail_fast ship" speed="36.11" length="41.12" width="3.50" shape="911.53,282.74 920.69,281.41 937.01,279.35 952.34,277.78"/>
    </edge>
    <edge id=":25_11" function="internal">
        <lane id=":25_11_0" index="0" disallow="pedestrian tram rail_urban rail rail_electric rail_fast ship" speed="11.83" length="35.57" width="3.50" shape="911.53,282.74 915.44,282.34 918.12,282.31 920.81,282.56 923.46,283.14 924.82,283.60 926.11,284.17 927.35,284.87 928.52,285.69 929.60,286.64 930.58,287.69 931.44,288.83 932.18,290.03 932.82,291.31 933.75,293.86 934.36,296.50 934.69,299.14 934.82,301.76"/>
    </edge>
    <edge id=":26_0" function="internal">
        <lane id=":26_0_0" index="0" disallow="pedestrian tram rail_urban rail rail_electric rail_fast ship" speed="36.11" length="39.09" width="3.50" shape="907.11,286.95 887.78,289.87 868.46,292.79"/>
    </edge>
    <edge id=":26_1" function="internal">
        <lane id=":26_1_0" index="0" disallow="pedestrian tram rail_urban rail rail_electric rail_fast ship" speed="11.87" length="34.91" width="3.50" shape="907.11,286.95 904.55,287.25 901.94,287.37 899.30,287.23 896.68,286.78 895.34,286.41 894.04,285.93 892.79,285.33 891.59,284.61 890.46,283.78 889.42,282.83 888.48,281.80 887.65,280.68 886.91,279.48 885.78,277.05 884.98,274.51 884.46,271.92 884.07,268.08"/>
    </edge>
    <edge id=":26_2" function="internal">
        <lane id=":26_2_0" index="0" disallow="pedestrian tram rail_urban rail rail_electric rail_fast ship" speed="10.85" length="28.94" width="3.50" shape="887.56,267.90 887.90,271.23 888.34,273.41 889.01,275.53 889.95,277.55 890.53,278.49 891.20,279.39 891.94,280.21 892.77,280.96 893.66,281.62 894.62,282.19 895.62,282.67 896.66,283.06 897.73,283.36 899.93,283.74 902.15,283.85 904.38,283.75 906.59,283.49"/>
    </edge>
    <edge id=":26_3" function="internal">
        <lane id=":26_3_0" index="0" disallow="pedestrian tram rail_urban rail rail_electric rail_fast ship" speed="12.85" length="35.21" width="3.50" shape="887.56,267.90 887.59,271.68 887.22,275.43 886.71,277.89 885.95,280.29 884.91,282.58 883.58,284.71 881.95,286.63 880.07,288.30 877.97,289.69 875.72,290.81 873.36,291.68 870.93,292.33 868.46,292.79"/>
    </edge>
    <edge id=":26_4" function="internal">
        <lane id=":26_4_0" index="0" disallow="pedestrian tram rail_urban rail rail_electric rail_fast ship" speed="11.89" length="30.02" width="3.50" shape="867.92,289.33 870.10,288.93 872.20,288.36 874.22,287.62 876.12,286.67 877.86,285.50 879.41,284.12 880.75,282.53 881.85,280.76 882.71,278.83 883.35,276.80 883.78,274.70 884.09,271.40 884.07,268.08"/>
    </edge>
    <edge id=":26_5" function="internal">
        <lane id=":26_5_0" index="0" disallow="pedestrian tram rail_urban rail rail_electric rail_fast ship" speed="36.11" length="39.11" width="3.50" shape="867.92,289.33 887.26,286.41 906.59,283.49"/>
    </edge>

    <edge id="107264" from="25" to="3" priority="3" type="highway.residential" spreadType="center" length="70.00" shape="930.73,281.74 929.90,191.02">
        <lane id="107264_0" index="0" disallow="pedestrian tram rail_urban rail rail_electric rail_fast ship" speed="36.11" length="70.00" width="3.50" customShape="1" shape="930.79,261.01 929.90,191.02"/>
    </edge>
    <edge id="107265" from="21" to="25" priority="3" type="highway.residential" spreadType="center" length="70.01" shape="933.40,190.97 934.23,281.71">
        <lane id="107265_0" index="0" disallow="pedestrian tram rail_urban rail rail_electric rail_fast ship" speed="36.11" length="70.01" width="3.50" customShape="1" shape="933.40,190.97 934.29,260.97"/>
    </edge>
    <edge id="107267" from="20" to="25" priority="3" type="highway.residential" spreadType="center" length="70.01" shape="932.21,371.80 930.73,281.69">
        <lane id="107267_0" index="0" disallow="pedestrian tram rail_urban rail rail_electric rail_fast ship" speed="36.11" length="70.01" width="3.50" customShape="1" shape="932.21,371.80 931.32,301.80"/>
    </edge>
    <edge id="107268" from="25" to="5" priority="3" type="highway.residential" spreadType="center" length="70.00" shape="934.23,281.63 935.71,371.75">
        <lane id="107268_0" index="0" disallow="pedestrian tram rail_urban rail rail_electric rail_fast ship" speed="36.11" length="70.00" width="3.50" customShape="1" shape="934.82,301.76 935.71,371.75"/>
    </edge>
    <edge id="108117" from="22" to="26" priority="3" type="highway.residential" spreadType="center" length="70.01" shape="884.11,197.99 888.69,281.37">
        <lane id="108117_0" index="0" disallow="pedestrian tram rail_urban rail rail_electric rail_fast ship" speed="36.11" length="70.01" width="3.50" customShape="1" shape="884.11,197.99 887.56,267.91"/>
    </edge>
    <edge id="108118" from="26" to="17" priority="3" type="highway.residential" spreadType="center" length="70.01" shape="885.20,281.56 880.62,198.16">
        <lane id="108118_0" index="0" disallow="pedestrian tram rail_urban rail rail_electric rail_fast ship" speed="36.11" length="70.01" width="3.50" customShape="1" shape="884.07,268.08 880.62,198.16"/>
    </edge>
    <edge id="108166" from="26" to="19" priority="3" type="highway.residential" spreadType="center" length="42.11" shape="887.44,283.10 826.82,299.05">
        <lane id="108166_0" index="0" disallow="pedestrian tram rail_urban rail rail_electric rail_fast ship" speed="36.11" length="42.11" width="3.50" customShape="1" shape="868.46,292.79 847.63,295.92 826.82,299.05"/>
    </edge>
    <edge id="108167" from="24" to="26" priority="3" type="highway.residential" spreadType="center" length="42.11" shape="826.30,295.59 886.55,279.72">
        <lane id="108167_0" index="0" disallow="pedestrian tram rail_urban rail rail_electric rail_fast ship" speed="36.11" length="42.11" width="3.50" customShape="1" shape="826.30,295.59 847.11,292.46 867.94,289.33"/>
    </edge>
    <edge id="108605" from="25" to="26" priority="3" type="highway.residential" spreadType="center" length="5.03" shape="932.47,283.44 886.87,283.17">
        <lane id="108605_0" index="0" disallow="pedestrian tram rail_urban rail rail_electric rail_fast ship" speed="36.11" length="5.03" width="3.50" customShape="1" shape="912.06,286.20 909.59,286.58 907.09,286.95"/>
    </edge>
    <edge id="108606" from="26" to="25" priority="3" type="highway.residential" spreadType="center" length="5.02" shape="886.89,279.68 932.49,279.94">
        <lane id="108606_0" index="0" disallow="pedestrian tram rail_urban rail rail_electric rail_fast ship" speed="36.11" length="5.02" width="3.50" customShape="1" shape="906.59,283.49 909.06,283.12 911.55,282.74"/>
    </edge>
    <edge id="108608" from="23" to="25" priority="3" type="highway.residential" spreadType="center" length="70.01" shape="1022.38,275.00 932.61,283.44">
        <lane id="108608_0" index="0" disallow="pedestrian tram rail_urban rail rail_electric rail_fast ship" speed="36.11" length="70.01" width="3.50" customShape="1" shape="1022.38,275.00 989.45,277.96 952.65,281.27"/>
    </edge>
    <edge id="108609" from="25" to="7" priority="3" type="highway.residential" spreadType="center" length="70.00" shape="932.28,279.95 1022.06,271.52">
        <lane id="108609_0" index="0" disallow="pedestrian tram rail_urban rail rail_electric rail_fast ship" speed="36.11" length="70.00" width="3.50" customShape="1" shape="952.34,277.78 989.14,274.47 1022.06,271.52"/>
    </edge>

    <junction id="17" type="dead_end" x="880.62" y="198.16" incLanes="108118_0" intLanes="" shape="878.87,198.25 882.37,198.08" rightOfWay="edgePriority"/>
    <junction id="19" type="dead_end" x="826.82" y="299.05" incLanes="108166_0" intLanes="" shape="827.08,300.78 826.56,297.32" rightOfWay="edgePriority"/>
    <junction id="20" type="dead_end" x="932.21" y="371.80" incLanes="" intLanes="" shape="933.96,371.77 930.46,371.82" rightOfWay="edgePriority"/>
    <junction id="21" type="dead_end" x="933.40" y="190.97" incLanes="" intLanes="" shape="931.65,191.00 935.15,190.95" rightOfWay="edgePriority"/>
    <junction id="22" type="dead_end" x="884.11" y="197.99" incLanes="" intLanes="" shape="882.37,198.07 885.86,197.90" rightOfWay="edgePriority"/>
    <junction id="23" type="dead_end" x="1022.38" y="275.00" incLanes="" intLanes="" shape="1022.23,273.26 1022.54,276.74" rightOfWay="edgePriority"/>
    <junction id="24" type="dead_end" x="826.30" y="295.59" incLanes="" intLanes="" shape="826.57,297.32 826.04,293.86" rightOfWay="edgePriority"/>
    <junction id="25" type="priority" x="932.48" y="281.69" incLanes="107267_0 108608_0 107265_0 108606_0" intLanes=":25_0_0 :25_1_0 :25_2_0 :25_3_0 :25_4_0 :25_5_0 :25_6_0 :25_7_0 :25_8_0 :25_9_0 :25_10_0 :25_11_0" shape="929.57,301.82 936.57,301.73 936.96,296.42 938.27,291.99 940.52,288.43 943.69,285.75 947.78,283.94 952.81,283.01 952.18,276.04 947.31,276.02 943.31,275.00 940.18,272.98 937.93,269.97 936.55,265.96 936.04,260.95 929.05,261.04 928.61,266.38 927.17,270.92 924.71,274.65 921.24,277.58 916.76,279.70 911.27,281.01 912.32,287.93 917.53,287.60 921.81,288.32 925.15,290.11 927.56,292.95 929.03,296.86">
        <request index="0" response="000000000000" foes="000100010000" cont="0"/>
        <request index="1" response="000000000000" foes="111100110000" cont="0"/>
        <request index="2" response="000011000000" foes="110011110000" cont="0"/>
        <request index="3" response="000010000000" foes="100010000000" cont="0"/>
        <request index="4" response="000110000111" foes="100110000111" cont="0"/>
        <request index="5" response="011110000110" foes="011110000110" cont="0"/>
        <request index="6" response="000000000000" foes="010000000100" cont="0"/>
        <request index="7" response="000000000000" foes="110000111100" cont="0"/>
        <request index="8" response="000000000011" foes="110000110011" cont="0"/>
        <request index="9" response="000000000010" foes="000000100010" cont="0"/>
        <request index="10" response="000111000110" foes="000111100110" cont="0"/>
        <request index="11" response="000110011110" foes="000110011110" cont="0"/>
    </junction>
    <junction id="26" type="priority" x="886.95" y="281.42" incLanes="108605_0 108117_0 108167_0" intLanes=":26_0_0 :26_1_0 :26_2_0 :26_3_0 :26_4_0 :26_5_0" shape="907.37,288.68 906.32,281.76 901.35,282.06 897.23,281.31 893.97,279.51 891.56,276.66 890.01,272.76 889.31,267.82 882.32,268.17 882.15,273.46 881.07,277.93 879.08,281.58 876.19,284.40 872.39,286.41 867.68,287.60 868.72,294.52">
        <request index="0" response="000000" foes="001000" cont="0"/>
        <request index="1" response="110000" foes="111000" cont="0"/>
        <request index="2" response="100000" foes="100000" cont="0"/>
        <request index="3" response="100011" foes="100011" cont="0"/>
        <request index="4" response="000000" foes="000010" cont="0"/>
        <request index="5" response="000000" foes="001110" cont="0"/>
    </junction>
    <junction id="3" type="dead_end" x="929.90" y="191.02" incLanes="107264_0" intLanes="" shape="928.15,191.04 931.65,191.00" rightOfWay="edgePriority"/>
    <junction id="5" type="dead_end" x="935.71" y="371.75" incLanes="107268_0" intLanes="" shape="937.46,371.73 933.96,371.77" rightOfWay="edgePriority"/>
    <junction id="7" type="dead_end" x="1022.06" y="271.52" incLanes="108609_0" intLanes="" shape="1021.90,269.77 1022.21,273.26" rightOfWay="edgePriority"/>

    <connection from="107265" to="108609" fromLane="0" toLane="0" contPos="-4.00" shape="934.29,260.97 934.51,264.49 934.87,266.73 935.44,268.91 936.29,270.99 936.79,271.91 937.38,272.81 938.03,273.65 938.76,274.41 939.56,275.10 940.43,275.71 941.35,276.24 942.33,276.69 943.32,277.05 945.50,277.59 947.74,277.86 950.04,277.91 952.34,277.78" via=":25_6_0" dir="r" state="M"/>
    <connection from="107265" to="107268" fromLane="0" toLane="0" contPos="-4.00" shape="934.29,260.97 934.56,281.38 934.82,301.76" via=":25_7_0" dir="s" state="M"/>
    <connection from="107265" to="108605" fromLane="0" toLane="0" contPos="-4.00" shape="934.29,260.97 934.16,264.74 933.85,267.21 933.32,269.65 932.56,272.03 931.54,274.31 930.24,276.44 928.69,278.40 926.90,280.13 924.90,281.64 922.75,282.91 920.49,283.96 916.94,285.17 913.29,286.00 912.06,286.20" via=":25_8_0" dir="l" state="m"/>
    <connection from="107267" to="108605" fromLane="0" toLane="0" contPos="-4.00" shape="931.32,301.80 931.21,299.55 930.92,297.30 930.42,295.10 929.64,292.97 929.12,291.96 928.53,290.99 927.84,290.09 927.07,289.26 926.21,288.52 925.28,287.88 924.29,287.32 923.25,286.87 922.18,286.51 919.96,286.03 917.71,285.83 915.44,285.85 912.06,286.20" via=":25_0_0" dir="r" state="M"/>
    <connection from="107267" to="107264" fromLane="0" toLane="0" contPos="-4.00" shape="931.32,301.80 931.06,281.43 930.79,261.01" via=":25_1_0" dir="s" state="M"/>
    <connection from="107267" to="108609" fromLane="0" toLane="0" contPos="-4.00" shape="931.32,301.80 931.36,299.31 931.75,295.59 932.27,293.08 933.05,290.63 934.12,288.26 935.52,286.04 937.23,284.03 939.21,282.30 941.41,280.88 943.74,279.75 946.16,278.91 948.64,278.31 952.34,277.78" via=":25_2_0" dir="l" state="m"/>
    <connection from="108117" to="108606" fromLane="0" toLane="0" contPos="-4.00" shape="887.56,267.90 887.90,271.23 888.34,273.41 889.01,275.53 889.95,277.55 890.53,278.49 891.20,279.39 891.94,280.21 892.77,280.96 893.66,281.62 894.62,282.19 895.62,282.67 896.66,283.06 897.73,283.36 899.93,283.74 902.15,283.85 904.38,283.75 906.59,283.49" via=":26_2_0" dir="r" state="m"/>
    <connection from="108117" to="108166" fromLane="0" toLane="0" contPos="-4.00" shape="887.56,267.90 887.59,271.68 887.22,275.43 886.71,277.89 885.95,280.29 884.91,282.58 883.58,284.71 881.95,286.63 880.07,288.30 877.97,289.69 875.72,290.81 873.36,291.68 870.93,292.33 868.46,292.79" via=":26_3_0" dir="l" state="m"/>
    <connection from="108167" to="108118" fromLane="0" toLane="0" contPos="-4.00" shape="867.92,289.33 870.10,288.93 872.20,288.36 874.22,287.62 876.12,286.67 877.86,285.50 879.41,284.12 880.75,282.53 881.85,280.76 882.71,278.83 883.35,276.80 883.78,274.70 884.09,271.40 884.07,268.08" via=":26_4_0" dir="r" state="M"/>
    <connection from="108167" to="108606" fromLane="0" toLane="0" contPos="-4.00" shape="867.92,289.33 887.26,286.41 906.59,283.49" via=":26_5_0" dir="s" state="M"/>
    <connection from="108605" to="108166" fromLane="0" toLane="0" contPos="-4.00" shape="907.09,286.95 887.78,289.87 868.46,292.79" via=":26_0_0" dir="s" state="M"/>
    <connection from="108605" to="108118" fromLane="0" toLane="0" contPos="-4.00" shape="907.09,286.95 904.55,287.25 901.94,287.37 899.30,287.23 896.68,286.78 895.34,286.41 894.04,285.93 892.79,285.33 891.59,284.61 890.46,283.78 889.42,282.83 888.48,281.80 887.65,280.68 886.91,279.48 885.78,277.05 884.98,274.51 884.46,271.92 884.07,268.08" via=":26_1_0" dir="l" state="m"/>
    <connection from="108606" to="107264" fromLane="0" toLane="0" contPos="-4.00" shape="911.55,282.74 912.61,282.56 915.87,281.83 919.00,280.76 920.95,279.86 922.80,278.78 924.49,277.50 926.01,276.04 927.32,274.40 928.42,272.60 929.29,270.67 929.95,268.63 930.40,266.51 930.68,264.36 930.79,261.01" via=":25_9_0" dir="r" state="m"/>
    <connection from="108606" to="108609" fromLane="0" toLane="0" contPos="-4.00" shape="911.55,282.74 920.69,281.41 937.01,279.35 952.34,277.78" via=":25_10_0" dir="s" state="m"/>
    <connection from="108606" to="107268" fromLane="0" toLane="0" contPos="-4.00" shape="911.55,282.74 915.44,282.34 918.12,282.31 920.81,282.56 923.46,283.14 924.82,283.60 926.11,284.17 927.35,284.87 928.52,285.69 929.60,286.64 930.58,287.69 931.44,288.83 932.18,290.03 932.82,291.31 933.75,293.86 934.36,296.50 934.69,299.14 934.82,301.76" via=":25_11_0" dir="l" state="m"/>
    <connection from="108608" to="107268" fromLane="0" toLane="0" contPos="-4.00" shape="952.66,281.27 949.41,281.73 947.29,282.25 945.22,282.97 943.24,283.92 941.41,285.11 939.76,286.56 938.35,288.23 937.19,290.08 936.29,292.08 935.63,294.17 935.19,296.31 934.85,299.58 934.82,301.76" via=":25_3_0" dir="r" state="m"/>
    <connection from="108608" to="108605" fromLane="0" toLane="0" contPos="-4.00" shape="952.66,281.27 937.40,282.82 921.17,284.88 912.06,286.20" via=":25_4_0" dir="s" state="m"/>
    <connection from="108608" to="107264" fromLane="0" toLane="0" contPos="-4.00" shape="952.66,281.27 949.99,281.42 947.31,281.36 944.65,281.04 942.05,280.40 940.79,279.94 939.58,279.38 938.41,278.72 937.32,277.95 936.30,277.07 935.37,276.11 934.54,275.06 933.80,273.94 933.17,272.76 932.16,270.28 931.47,267.69 931.04,265.05 930.79,261.01" via=":25_5_0" dir="l" state="m"/>

    <connection from=":25_0" to="108605" fromLane="0" toLane="0" dir="r" state="M"/>
    <connection from=":25_1" to="107264" fromLane="0" toLane="0" dir="s" state="M"/>
    <connection from=":25_2" to="108609" fromLane="0" toLane="0" dir="l" state="M"/>
    <connection from=":25_3" to="107268" fromLane="0" toLane="0" dir="r" state="M"/>
    <connection from=":25_4" to="108605" fromLane="0" toLane="0" dir="s" state="M"/>
    <connection from=":25_5" to="107264" fromLane="0" toLane="0" dir="l" state="M"/>
    <connection from=":25_6" to="108609" fromLane="0" toLane="0" dir="r" state="M"/>
    <connection from=":25_7" to="107268" fromLane="0" toLane="0" dir="s" state="M"/>
    <connection from=":25_8" to="108605" fromLane="0" toLane="0" dir="l" state="M"/>
    <connection from=":25_9" to="107264" fromLane="0" toLane="0" dir="r" state="M"/>
    <connection from=":25_10" to="108609" fromLane="0" toLane="0" dir="s" state="M"/>
    <connection from=":25_11" to="107268" fromLane="0" toLane="0" dir="l" state="M"/>
    <connection from=":26_0" to="108166" fromLane="0" toLane="0" dir="s" state="M"/>
    <connection from=":26_1" to="108118" fromLane="0" toLane="0" dir="l" state="M"/>
    <connection from=":26_2" to="108606" fromLane="0" toLane="0" dir="r" state="M"/>
    <connection from=":26_3" to="108166" fromLane="0" toLane="0" dir="l" state="M"/>
    <connection from=":26_4" to="108118" fromLane="0" toLane="0" dir="r" state="M"/>
    <connection from=":26_5" to="108606" fromLane="0" toLane="0" dir="s" state="M"/>

</net>