<!-- generated on Tue Feb  9 22:12:48 2021 by Eclipse SUMO netconvert Version 1.8.0
<configuration xmlns:xsi="http://www.w3.org/2001/XMLSchema-instance" xsi:noNamespaceSchemaLocation="http://sumo.dlr.de/xsd/netconvertConfiguration.xsd">

    <input>
        <node-files value="./converted_scenarios/scenario-factory/BEL_Nivelles-18_2_I-1-1/BEL_Nivelles-18_2_I-1-1.nod.xml"/>
        <edge-files value="./converted_scenarios/scenario-factory/BEL_Nivelles-18_2_I-1-1/BEL_Nivelles-18_2_I-1-1.edg.xml"/>
        <connection-files value="./converted_scenarios/scenario-factory/BEL_Nivelles-18_2_I-1-1/BEL_Nivelles-18_2_I-1-1.con.xml"/>
        <tllogic-files value="./converted_scenarios/scenario-factory/BEL_Nivelles-18_2_I-1-1/BEL_Nivelles-18_2_I-1-1.tll.xml"/>
        <type-files value="/home/zen/commonroad-interactive-benchmarks/install/commonroad-map-tool/crmapconverter/sumo_map/templates/DEU.typ.xml"/>
    </input>

    <output>
        <output-file value="./converted_scenarios/scenario-factory/BEL_Nivelles-18_2_I-1-1/BEL_Nivelles-18_2_I-1-1.net.xml"/>
    </output>

    <processing>
        <geometry.remove.keep-edges.explicit value="true"/>
        <geometry.avoid-overlap value="true"/>
        <offset.disable-normalization value="true"/>
    </processing>

    <junctions>
        <no-turnarounds value="true"/>
        <junctions.internal-link-detail value="20"/>
    </junctions>

    <report>
        <aggregate-warnings value="5"/>
    </report>

    <random_number>
        <seed value="1234"/>
    </random_number>

</configuration>
--><net xmlns:xsi="http://www.w3.org/2001/XMLSchema-instance" version="1.6" junctionCornerDetail="5" junctionLinkDetail="20" limitTurnSpeed="5.50" xsi:noNamespaceSchemaLocation="http://sumo.dlr.de/xsd/net_file.xsd">

    <location netOffset="0.00,0.00" convBoundary="-435.36,-265.01,-369.73,-74.49" origBoundary="-438.65,-266.21,-366.44,-74.49" projParameter="!"/>

    <type id="highway.bridleway" priority="1" speed="2.78" allow="pedestrian" oneway="1" width="2.00"/>
    <type id="highway.bus_guideway" priority="1" speed="27.78" allow="bus" oneway="1"/>
    <type id="highway.cycleway" priority="1" speed="8.33" allow="bicycle" oneway="0" width="1.00"/>
    <type id="highway.footway" priority="1" speed="2.78" allow="pedestrian" oneway="1" width="2.00"/>
    <type id="highway.ford" priority="1" speed="2.78" allow="army" oneway="0"/>
    <type id="highway.living_street" priority="2" speed="2.78" disallow="tram rail_urban rail rail_electric rail_fast ship" oneway="0"/>
    <type id="highway.motorway" priority="14" speed="39.44" allow="private emergency authority army vip passenger hov taxi bus coach delivery truck trailer motorcycle evehicle custom1 custom2" oneway="1"/>
    <type id="highway.motorway_link" priority="9" speed="22.22" allow="private emergency authority army vip passenger hov taxi bus coach delivery truck trailer motorcycle evehicle custom1 custom2" oneway="1"/>
    <type id="highway.path" priority="1" speed="2.78" allow="pedestrian bicycle" oneway="0" width="2.00"/>
    <type id="highway.pedestrian" priority="1" speed="2.78" allow="pedestrian" oneway="1" width="2.00"/>
    <type id="highway.primary" priority="12" speed="27.78" disallow="pedestrian tram rail_urban rail rail_electric rail_fast ship" oneway="0"/>
    <type id="highway.primary_link" priority="7" speed="22.22" disallow="pedestrian tram rail_urban rail rail_electric rail_fast ship" oneway="0"/>
    <type id="highway.raceway" priority="15" speed="83.33" allow="vip" oneway="0"/>
    <type id="highway.residential" priority="3" speed="13.89" disallow="pedestrian tram rail_urban rail rail_electric rail_fast ship" oneway="0"/>
    <type id="highway.secondary" priority="11" speed="27.78" disallow="pedestrian tram rail_urban rail rail_electric rail_fast ship" oneway="0"/>
    <type id="highway.secondary_link" priority="6" speed="22.22" disallow="pedestrian tram rail_urban rail rail_electric rail_fast ship" oneway="0"/>
    <type id="highway.service" priority="1" speed="5.56" allow="pedestrian delivery bicycle" oneway="0"/>
    <type id="highway.stairs" priority="1" speed="1.39" allow="pedestrian" oneway="1" width="2.00"/>
    <type id="highway.step" priority="1" speed="1.39" allow="pedestrian" oneway="1" width="2.00"/>
    <type id="highway.steps" priority="1" speed="1.39" allow="pedestrian" oneway="1" width="2.00"/>
    <type id="highway.tertiary" priority="10" speed="22.22" disallow="pedestrian tram rail_urban rail rail_electric rail_fast ship" oneway="0"/>
    <type id="highway.tertiary_link" priority="5" speed="22.22" disallow="pedestrian tram rail_urban rail rail_electric rail_fast ship" oneway="0"/>
    <type id="highway.track" priority="1" speed="5.56" allow="pedestrian motorcycle moped bicycle" oneway="0"/>
    <type id="highway.trunk" priority="13" speed="27.78" disallow="pedestrian bicycle tram rail_urban rail rail_electric rail_fast ship" oneway="0"/>
    <type id="highway.trunk_link" priority="8" speed="22.22" disallow="pedestrian bicycle tram rail_urban rail rail_electric rail_fast ship" oneway="0"/>
    <type id="highway.unclassified" priority="4" speed="13.89" disallow="pedestrian tram rail_urban rail rail_electric rail_fast ship" oneway="0"/>
    <type id="highway.unsurfaced" priority="1" speed="8.33" disallow="tram rail_urban rail rail_electric rail_fast ship" oneway="0"/>
    <type id="railway.highspeed" priority="21" speed="69.44" allow="rail_fast" oneway="1"/>
    <type id="railway.light_rail" priority="19" speed="27.78" allow="rail_urban" oneway="1"/>
    <type id="railway.preserved" priority="16" speed="27.78" allow="rail" oneway="1"/>
    <type id="railway.rail" priority="20" speed="44.44" allow="rail" oneway="1"/>
    <type id="railway.subway" priority="18" speed="27.78" allow="rail_urban" oneway="1"/>
    <type id="railway.tram" priority="17" speed="13.89" allow="tram" oneway="1"/>

    <edge id=":4_0" function="internal">
        <lane id=":4_0_0" index="0" disallow="pedestrian tram rail_urban rail rail_electric rail_fast ship" speed="36.11" length="3.00" width="3.50" shape="-397.34,-140.83 -398.37,-143.65"/>
    </edge>
    <edge id=":4_1" function="internal">
        <lane id=":4_1_0" index="0" disallow="pedestrian tram rail_urban rail rail_electric rail_fast ship" speed="36.11" length="3.10" width="3.50" shape="-394.03,-141.96 -395.09,-144.87"/>
        <lane id=":4_1_1" index="1" disallow="pedestrian tram rail_urban rail rail_electric rail_fast ship" speed="36.11" length="3.11" width="3.50" shape="-390.74,-143.16 -391.81,-146.08"/>
        <lane id=":4_1_2" index="2" disallow="pedestrian tram rail_urban rail rail_electric rail_fast ship" speed="36.11" length="3.12" width="3.50" shape="-387.46,-144.37 -388.53,-147.30"/>
    </edge>
    <edge id=":7_0" function="internal">
        <lane id=":7_0_0" index="0" disallow="pedestrian tram rail_urban rail rail_electric rail_fast ship" speed="36.11" length="8.12" width="3.50" shape="-409.91,-178.08 -411.53,-186.04"/>
        <lane id=":7_0_1" index="1" disallow="pedestrian tram rail_urban rail rail_electric rail_fast ship" speed="36.11" length="8.02" width="3.50" shape="-407.66,-178.91 -409.04,-182.68 -410.42,-186.44"/>
        <lane id=":7_0_2" index="2" disallow="pedestrian tram rail_urban rail rail_electric rail_fast ship" speed="36.11" length="7.99" width="3.50" shape="-404.37,-180.13 -405.75,-183.88 -407.13,-187.63"/>
        <lane id=":7_0_3" index="3" disallow="pedestrian tram rail_urban rail rail_electric rail_fast ship" speed="36.11" length="7.98" width="3.50" shape="-401.09,-181.34 -402.47,-185.09 -403.84,-188.83"/>
    </edge>

    <edge id="10126" from="7" to="3" priority="3" type="highway.residential" spreadType="center" length="82.36">
        <lane id="10126_0" index="0" disallow="pedestrian tram rail_urban rail rail_electric rail_fast ship" speed="36.11" length="82.37" width="3.50" customShape="1" shape="-410.47,-186.42 -436.38,-257.82 -438.65,-263.82"/>
        <lane id="10126_1" index="1" disallow="pedestrian tram rail_urban rail rail_electric rail_fast ship" speed="36.11" length="82.36" width="3.50" customShape="1" shape="-407.18,-187.62 -433.12,-259.09 -435.36,-265.01"/>
        <lane id="10126_2" index="2" disallow="pedestrian tram rail_urban rail rail_electric rail_fast ship" speed="36.11" length="82.42" width="3.50" customShape="1" shape="-403.89,-188.81 -429.86,-260.35 -432.09,-266.25"/>
    </edge>
    <edge id="10184" from="4" to="7" priority="3" type="highway.residential" spreadType="center" length="36.28">
        <lane id="10184_0" index="0" disallow="pedestrian tram rail_urban rail rail_electric rail_fast ship" speed="36.11" length="36.30" width="3.50" acceleration="1" customShape="1" shape="-398.37,-143.65 -402.25,-154.12 -410.97,-177.69"/>
        <lane id="10184_1" index="1" disallow="pedestrian tram rail_urban rail rail_electric rail_fast ship" speed="36.11" length="36.28" width="3.50" customShape="1" shape="-395.09,-144.87 -398.96,-155.33 -407.68,-178.90"/>
        <lane id="10184_2" index="2" disallow="pedestrian tram rail_urban rail rail_electric rail_fast ship" speed="36.11" length="36.28" width="3.50" customShape="1" shape="-391.81,-146.08 -395.68,-156.55 -404.40,-180.11"/>
        <lane id="10184_3" index="3" disallow="pedestrian tram rail_urban rail rail_electric rail_fast ship" speed="36.11" length="36.28" width="3.50" customShape="1" shape="-388.53,-147.30 -392.40,-157.76 -401.12,-181.33"/>
    </edge>
    <edge id="11029" from="5" to="4" priority="3" type="highway.residential" spreadType="center" length="68.29">
        <lane id="11029_0" index="0" disallow="pedestrian tram rail_urban rail rail_electric rail_fast ship" speed="36.11" length="68.29" width="3.50" customShape="1" shape="-373.08,-76.98 -379.13,-97.35 -385.24,-116.62 -390.43,-131.94 -394.03,-141.96"/>
        <lane id="11029_1" index="1" disallow="pedestrian tram rail_urban rail rail_electric rail_fast ship" speed="36.11" length="68.51" width="3.50" customShape="1" shape="-369.73,-77.97 -375.82,-98.47 -381.94,-117.78 -387.14,-133.13 -390.74,-143.16"/>
        <lane id="11029_2" index="2" disallow="pedestrian tram rail_urban rail rail_electric rail_fast ship" speed="36.11" length="68.73" width="3.50" customShape="1" shape="-366.37,-78.97 -372.50,-99.58 -378.64,-118.94 -383.84,-134.32 -387.46,-144.37"/>
    </edge>
    <edge id="11113" from="6" to="4" priority="3" type="highway.residential" spreadType="center" length="68.60">
        <lane id="11113_0" index="0" disallow="pedestrian tram rail_urban rail rail_electric rail_fast ship" speed="36.11" length="68.60" width="3.50" customShape="1" shape="-380.11,-74.49 -380.51,-76.63 -384.05,-93.34 -387.52,-108.01 -390.89,-120.63 -394.22,-131.69 -397.34,-140.83"/>
    </edge>

    <junction id="3" type="dead_end" x="-435.36" y="-265.01" incLanes="10126_0 10126_1 10126_2" intLanes="" shape="-440.27,-263.15 -430.45,-266.87" rightOfWay="edgePriority"/>
    <junction id="4" type="priority" x="-392.89" y="-143.96" incLanes="11113_0 11029_0 11029_1 11029_2" intLanes=":4_0_0 :4_1_0 :4_1_1 :4_1_2" shape="-398.99,-140.23 -395.70,-141.44 -385.81,-144.97 -386.88,-147.90 -400.01,-143.05" rightOfWay="edgePriority">
        <request index="0" response="0000" foes="0000" cont="0"/>
        <request index="1" response="0000" foes="0000" cont="0"/>
        <request index="2" response="0000" foes="0000" cont="0"/>
        <request index="3" response="0000" foes="0000" cont="0"/>
    </junction>
    <junction id="5" type="dead_end" x="-369.73" y="-77.97" incLanes="" intLanes="" shape="-364.70,-79.47 -374.76,-76.48" rightOfWay="edgePriority"/>
    <junction id="6" type="dead_end" x="-380.11" y="-74.49" incLanes="" intLanes="" shape="-378.39,-74.81 -381.83,-74.16" rightOfWay="edgePriority"/>
    <junction id="7" type="priority" x="-410.68" y="-182.08" incLanes="10184_0 10184_1 10184_2 10184_3" intLanes=":7_0_0 :7_0_1 :7_0_2 :7_0_3" shape="-412.61,-177.09 -399.48,-181.93 -402.24,-189.41 -412.11,-185.83 -411.91,-182.64 -412.82,-180.26 -413.00,-178.87">
        <request index="0" response="0010" foes="0010" cont="0"/>
        <request index="1" response="0000" foes="0001" cont="0"/>
        <request index="2" response="0000" foes="0000" cont="0"/>
        <request index="3" response="0000" foes="0000" cont="0"/>
    </junction>

    <connection from="10184" to="10126" fromLane="0" toLane="0" contPos="-4.00" shape="-406.68,-166.10 -408.10,-170.43 -409.46,-175.85 -412.29,-189.77 -413.72,-195.16 -414.69,-198.05" via=":7_0_0" dir="s" state="m"/>
    <connection from="10184" to="10126" fromLane="1" toLane="0" contPos="-4.00" shape="-403.39,-167.30 -409.04,-182.68 -414.69,-198.05" via=":7_0_1" dir="s" state="M"/>
    <connection from="10184" to="10126" fromLane="2" toLane="1" contPos="-4.00" shape="-400.11,-168.52 -405.75,-183.88 -411.39,-199.24" via=":7_0_2" dir="s" state="M"/>
    <connection from="10184" to="10126" fromLane="3" toLane="2" contPos="-4.00" shape="-396.83,-169.74 -402.47,-185.09 -408.11,-200.44" via=":7_0_3" dir="s" state="M"/>
    <connection from="11029" to="10184" fromLane="0" toLane="1" contPos="-4.00" via=":4_1_0" dir="s" state="M"/>
    <connection from="11029" to="10184" fromLane="1" toLane="2" contPos="-4.00" via=":4_1_1" dir="s" state="M"/>
    <connection from="11029" to="10184" fromLane="2" toLane="3" contPos="-4.00" via=":4_1_2" dir="s" state="M"/>
    <connection from="11113" to="10184" fromLane="0" toLane="0" contPos="-4.00" via=":4_0_0" dir="s" state="M"/>

    <connection from=":4_0" to="10184" fromLane="0" toLane="0" dir="s" state="M"/>
    <connection from=":4_1" to="10184" fromLane="0" toLane="1" dir="s" state="M"/>
    <connection from=":4_1" to="10184" fromLane="1" toLane="2" dir="s" state="M"/>
    <connection from=":4_1" to="10184" fromLane="2" toLane="3" dir="s" state="M"/>
    <connection from=":7_0" to="10126" fromLane="0" toLane="0" dir="s" state="M"/>
    <connection from=":7_0" to="10126" fromLane="1" toLane="0" dir="s" state="M"/>
    <connection from=":7_0" to="10126" fromLane="2" toLane="1" dir="s" state="M"/>
    <connection from=":7_0" to="10126" fromLane="3" toLane="2" dir="s" state="M"/>

</net>