<routes>
	<vehicle depart="0.1" departLane="2" departPos="42.39576452578718" departSpeed="6.9140593" id="329" type="bicycle">
		<route edges="10126"/>
	</vehicle>
	<vehicle depart="0.1" departLane="1" departPos="22.5170815080956" departSpeed="11.619704" id="319" type="passenger">
		<route edges=":7_0 10126"/>
	</vehicle>
	<vehicle depart="0.1" departLane="3" departPos="19.141985134514314" departSpeed="18.997338" id="355" type="passenger">
		<route edges=":7_0 10126"/>
	</vehicle>
	<vehicle depart="0.1" departLane="1" departPos="68.75066986883789" departSpeed="17.350999" id="357" type="passenger">
		<route edges="11029 10184 10126"/>
	</vehicle>
	<vehicle depart="0.1" departLane="0" departPos="7.612519734868576" departSpeed="12.034116" id="33" type="motorcycle">
		<route edges="10184 10126"/>
	</vehicle>
</routes>
