<!-- generated on Tue Feb  9 22:14:27 2021 by Eclipse SUMO netconvert Version 1.8.0
<configuration xmlns:xsi="http://www.w3.org/2001/XMLSchema-instance" xsi:noNamespaceSchemaLocation="http://sumo.dlr.de/xsd/netconvertConfiguration.xsd">

    <input>
        <node-files value="./converted_scenarios/scenario-factory/ITA_Segrate-1_3_I-1-1/ITA_Segrate-1_3_I-1-1.nod.xml"/>
        <edge-files value="./converted_scenarios/scenario-factory/ITA_Segrate-1_3_I-1-1/ITA_Segrate-1_3_I-1-1.edg.xml"/>
        <connection-files value="./converted_scenarios/scenario-factory/ITA_Segrate-1_3_I-1-1/ITA_Segrate-1_3_I-1-1.con.xml"/>
        <tllogic-files value="./converted_scenarios/scenario-factory/ITA_Segrate-1_3_I-1-1/ITA_Segrate-1_3_I-1-1.tll.xml"/>
        <type-files value="/home/zen/commonroad-interactive-benchmarks/install/commonroad-map-tool/crmapconverter/sumo_map/templates/DEU.typ.xml"/>
    </input>

    <output>
        <output-file value="./converted_scenarios/scenario-factory/ITA_Segrate-1_3_I-1-1/ITA_Segrate-1_3_I-1-1.net.xml"/>
    </output>

    <processing>
        <geometry.remove.keep-edges.explicit value="true"/>
        <geometry.avoid-overlap value="true"/>
        <offset.disable-normalization value="true"/>
    </processing>

    <junctions>
        <no-turnarounds value="true"/>
        <junctions.internal-link-detail value="20"/>
    </junctions>

    <report>
        <aggregate-warnings value="5"/>
    </report>

    <random_number>
        <seed value="1234"/>
    </random_number>

</configuration>
--><net xmlns:xsi="http://www.w3.org/2001/XMLSchema-instance" version="1.6" junctionCornerDetail="5" junctionLinkDetail="20" limitTurnSpeed="5.50" xsi:noNamespaceSchemaLocation="http://sumo.dlr.de/xsd/net_file.xsd">

    <location netOffset="0.00,0.00" convBoundary="-172.23,400.82,-5.07,472.40" origBoundary="-178.02,400.82,-5.07,472.40" projParameter="!"/>

    <type id="highway.bridleway" priority="1" speed="2.78" allow="pedestrian" oneway="1" width="2.00"/>
    <type id="highway.bus_guideway" priority="1" speed="27.78" allow="bus" oneway="1"/>
    <type id="highway.cycleway" priority="1" speed="8.33" allow="bicycle" oneway="0" width="1.00"/>
    <type id="highway.footway" priority="1" speed="2.78" allow="pedestrian" oneway="1" width="2.00"/>
    <type id="highway.ford" priority="1" speed="2.78" allow="army" oneway="0"/>
    <type id="highway.living_street" priority="2" speed="2.78" disallow="tram rail_urban rail rail_electric rail_fast ship" oneway="0"/>
    <type id="highway.motorway" priority="14" speed="39.44" allow="private emergency authority army vip passenger hov taxi bus coach delivery truck trailer motorcycle evehicle custom1 custom2" oneway="1"/>
    <type id="highway.motorway_link" priority="9" speed="22.22" allow="private emergency authority army vip passenger hov taxi bus coach delivery truck trailer motorcycle evehicle custom1 custom2" oneway="1"/>
    <type id="highway.path" priority="1" speed="2.78" allow="pedestrian bicycle" oneway="0" width="2.00"/>
    <type id="highway.pedestrian" priority="1" speed="2.78" allow="pedestrian" oneway="1" width="2.00"/>
    <type id="highway.primary" priority="12" speed="27.78" disallow="pedestrian tram rail_urban rail rail_electric rail_fast ship" oneway="0"/>
    <type id="highway.primary_link" priority="7" speed="22.22" disallow="pedestrian tram rail_urban rail rail_electric rail_fast ship" oneway="0"/>
    <type id="highway.raceway" priority="15" speed="83.33" allow="vip" oneway="0"/>
    <type id="highway.residential" priority="3" speed="13.89" disallow="pedestrian tram rail_urban rail rail_electric rail_fast ship" oneway="0"/>
    <type id="highway.secondary" priority="11" speed="27.78" disallow="pedestrian tram rail_urban rail rail_electric rail_fast ship" oneway="0"/>
    <type id="highway.secondary_link" priority="6" speed="22.22" disallow="pedestrian tram rail_urban rail rail_electric rail_fast ship" oneway="0"/>
    <type id="highway.service" priority="1" speed="5.56" allow="pedestrian delivery bicycle" oneway="0"/>
    <type id="highway.stairs" priority="1" speed="1.39" allow="pedestrian" oneway="1" width="2.00"/>
    <type id="highway.step" priority="1" speed="1.39" allow="pedestrian" oneway="1" width="2.00"/>
    <type id="highway.steps" priority="1" speed="1.39" allow="pedestrian" oneway="1" width="2.00"/>
    <type id="highway.tertiary" priority="10" speed="22.22" disallow="pedestrian tram rail_urban rail rail_electric rail_fast ship" oneway="0"/>
    <type id="highway.tertiary_link" priority="5" speed="22.22" disallow="pedestrian tram rail_urban rail rail_electric rail_fast ship" oneway="0"/>
    <type id="highway.track" priority="1" speed="5.56" allow="pedestrian motorcycle moped bicycle" oneway="0"/>
    <type id="highway.trunk" priority="13" speed="27.78" disallow="pedestrian bicycle tram rail_urban rail rail_electric rail_fast ship" oneway="0"/>
    <type id="highway.trunk_link" priority="8" speed="22.22" disallow="pedestrian bicycle tram rail_urban rail rail_electric rail_fast ship" oneway="0"/>
    <type id="highway.unclassified" priority="4" speed="13.89" disallow="pedestrian tram rail_urban rail rail_electric rail_fast ship" oneway="0"/>
    <type id="highway.unsurfaced" priority="1" speed="8.33" disallow="tram rail_urban rail rail_electric rail_fast ship" oneway="0"/>
    <type id="railway.highspeed" priority="21" speed="69.44" allow="rail_fast" oneway="1"/>
    <type id="railway.light_rail" priority="19" speed="27.78" allow="rail_urban" oneway="1"/>
    <type id="railway.preserved" priority="16" speed="27.78" allow="rail" oneway="1"/>
    <type id="railway.rail" priority="20" speed="44.44" allow="rail" oneway="1"/>
    <type id="railway.subway" priority="18" speed="27.78" allow="rail_urban" oneway="1"/>
    <type id="railway.tram" priority="17" speed="13.89" allow="tram" oneway="1"/>

    <edge id=":15_0" function="internal">
        <lane id=":15_0_0" index="0" disallow="pedestrian tram rail_urban rail rail_electric rail_fast ship" speed="36.11" length="3.01" width="3.50" shape="-130.32,441.10 -133.29,441.58"/>
    </edge>
    <edge id=":15_1" function="internal">
        <lane id=":15_1_0" index="0" disallow="pedestrian tram rail_urban rail rail_electric rail_fast ship" speed="36.11" length="3.01" width="3.50" shape="-130.32,441.10 -133.30,441.49"/>
    </edge>
    <edge id=":17_0" function="internal">
        <lane id=":17_0_0" index="0" disallow="pedestrian tram rail_urban rail rail_electric rail_fast ship" speed="8.65" length="16.79" width="3.50" shape="-81.44,452.08 -82.10,448.63 -82.96,445.84 -83.89,443.70 -85.09,441.70 -86.19,440.33 -87.45,439.12 -88.88,438.11 -89.27,437.91"/>
    </edge>
    <edge id=":17_1" function="internal">
        <lane id=":17_1_0" index="0" disallow="pedestrian tram rail_urban rail rail_electric rail_fast ship" speed="36.11" length="36.29" width="3.50" shape="-81.44,452.08 -81.73,450.03 -86.82,416.19"/>
    </edge>
    <edge id=":17_2" function="internal">
        <lane id=":17_2_0" index="0" disallow="pedestrian tram rail_urban rail rail_electric rail_fast ship" speed="8.74" length="16.93" width="3.50" shape="-74.43,435.63 -74.54,435.73 -75.64,437.08 -76.54,438.56 -77.44,440.69 -78.00,442.93 -78.31,445.81 -78.27,448.70 -77.97,451.58"/>
    </edge>
    <edge id=":17_3" function="internal">
        <lane id=":17_3_0" index="0" disallow="pedestrian tram rail_urban rail rail_electric rail_fast ship" speed="36.11" length="15.01" width="3.50" shape="-74.90,432.59 -82.22,433.72 -89.74,434.87"/>
    </edge>
    <edge id=":17_4" function="internal">
        <lane id=":17_4_0" index="0" disallow="pedestrian tram rail_urban rail rail_electric rail_fast ship" speed="9.41" length="19.87" width="3.50" shape="-75.19,430.73 -75.81,430.59 -77.99,429.78 -80.02,428.63 -81.40,427.55 -82.99,425.85 -84.29,423.92 -85.31,421.82 -86.23,419.05 -86.82,416.19"/>
    </edge>
    <edge id=":17_5" function="internal">
        <lane id=":17_5_0" index="0" disallow="pedestrian tram rail_urban rail rail_electric rail_fast ship" speed="36.11" length="36.33" width="3.50" shape="-83.36,415.65 -78.27,449.52 -77.97,451.58"/>
    </edge>
    <edge id=":17_6" function="internal">
        <lane id=":17_6_0" index="0" disallow="pedestrian tram rail_urban rail rail_electric rail_fast ship" speed="9.39" length="19.90" width="3.50" shape="-83.36,415.65 -83.05,418.54 -83.07,421.44 -83.39,423.73 -84.03,425.96 -85.01,428.06 -85.98,429.51 -87.54,431.22 -89.36,432.66 -90.02,433.04"/>
    </edge>

    <edge id="15024" from="17" to="11" priority="3" type="highway.residential" spreadType="center" length="20.53" shape="-80.62,433.50 -75.05,471.90">
        <lane id="15024_0" index="0" disallow="pedestrian tram rail_urban rail rail_electric rail_fast ship" speed="36.11" length="20.53" width="3.50" customShape="1" shape="-77.97,451.58 -76.51,461.74 -75.05,471.90"/>
    </edge>
    <edge id="15025" from="12" to="17" priority="3" type="highway.residential" spreadType="center" length="20.53" shape="-78.51,472.40 -84.08,434.00">
        <lane id="15025_0" index="0" disallow="pedestrian tram rail_urban rail rail_electric rail_fast ship" speed="36.11" length="20.53" width="3.50" customShape="1" shape="-78.51,472.40 -79.98,462.24 -81.44,452.08"/>
    </edge>
    <edge id="15027" from="13" to="17" priority="3" type="highway.residential" spreadType="center" length="15.02" shape="-85.68,400.82 -80.60,433.65">
        <lane id="15027_0" index="0" disallow="pedestrian tram rail_urban rail rail_electric rail_fast ship" speed="36.11" length="15.02" width="3.50" customShape="1" shape="-85.68,400.82 -84.52,408.24 -83.36,415.66"/>
    </edge>
    <edge id="15028" from="17" to="7" priority="3" type="highway.residential" spreadType="center" length="15.01" shape="-84.05,434.18 -89.14,401.36">
        <lane id="15028_0" index="0" disallow="pedestrian tram rail_urban rail rail_electric rail_fast ship" speed="36.11" length="15.01" width="3.50" customShape="1" shape="-86.82,416.19 -87.98,408.78 -89.14,401.36"/>
    </edge>
    <edge id="15195" from="14" to="17" priority="3" type="highway.residential" spreadType="center" length="70.65">
        <lane id="15195_0" index="0" disallow="pedestrian tram rail_urban rail rail_electric rail_fast ship" speed="36.11" length="70.65" width="3.50" customShape="1" shape="-5.07,421.87 -34.65,426.41 -74.90,432.59"/>
    </edge>
    <edge id="15197" from="17" to="15" priority="3" type="highway.residential" spreadType="center" length="41.06">
        <lane id="15197_0" index="0" disallow="pedestrian tram rail_urban rail rail_electric rail_fast ship" speed="36.11" length="41.06" width="3.50" customShape="1" shape="-89.74,434.87 -115.99,438.90 -130.32,441.10"/>
    </edge>
    <edge id="15846" from="15" to="16" priority="3" type="highway.residential" spreadType="center" length="35.59">
        <lane id="15846_0" index="0" disallow="pedestrian tram rail_urban rail rail_electric rail_fast ship" speed="36.11" length="35.59" width="3.50" customShape="1" shape="-133.30,441.49 -135.98,441.79 -139.68,441.86 -143.38,441.60 -147.03,440.97 -150.59,439.95 -153.54,438.77 -156.82,437.05 -159.89,434.99 -162.75,432.63 -165.44,429.96"/>
    </edge>
    <edge id="15847" from="15" to="16" priority="3" type="highway.residential" spreadType="center" length="43.90">
        <lane id="15847_0" index="0" disallow="pedestrian tram rail_urban rail rail_electric rail_fast ship" speed="36.11" length="43.90" width="3.50" customShape="1" shape="-133.29,441.58 -143.71,443.37 -166.04,447.55 -176.53,449.17"/>
    </edge>

    <junction id="11" type="dead_end" x="-75.05" y="471.90" incLanes="15024_0" intLanes="" shape="-73.32,471.65 -76.78,472.15" rightOfWay="edgePriority"/>
    <junction id="12" type="dead_end" x="-78.51" y="472.40" incLanes="" intLanes="" shape="-76.78,472.15 -80.25,472.65" rightOfWay="edgePriority"/>
    <junction id="13" type="dead_end" x="-85.68" y="400.82" incLanes="" intLanes="" shape="-87.41,401.09 -83.95,400.55" rightOfWay="edgePriority"/>
    <junction id="14" type="dead_end" x="-5.07" y="421.87" incLanes="" intLanes="" shape="-5.33,420.14 -4.80,423.60" rightOfWay="edgePriority"/>
    <junction id="15" type="priority" x="-131.77" y="441.33" incLanes="15197_0" intLanes=":15_0_0 :15_1_0" shape="-130.05,442.83 -130.58,439.37 -133.60,439.77 -132.99,443.31">
        <request index="0" response="00" foes="00" cont="0"/>
        <request index="1" response="00" foes="00" cont="0"/>
    </junction>
    <junction id="16" type="dead_end" x="-172.23" y="439.10" incLanes="15846_0 15847_0" intLanes="" shape="-166.75,431.12 -164.14,428.79 -176.30,450.90 -176.76,447.44"/>
    <junction id="17" type="priority" x="-82.34" y="433.82" incLanes="15025_0 15195_0 15027_0" intLanes=":17_0_0 :17_1_0 :17_2_0 :17_3_0 :17_4_0 :17_5_0 :17_6_0" shape="-83.17,452.32 -76.24,451.33 -76.85,446.30 -77.11,442.15 -77.02,438.88 -76.58,436.48 -75.78,434.96 -74.64,434.32 -75.17,430.87 -77.64,429.42 -78.76,427.30 -79.80,424.26 -80.76,420.28 -81.63,415.38 -88.55,416.46 -87.89,421.39 -87.59,425.46 -87.66,428.67 -88.08,431.02 -88.86,432.51 -90.00,433.14 -89.47,436.60 -87.01,438.08 -85.92,440.23 -84.91,443.32 -84.00,447.35">
        <request index="0" response="0000000" foes="1001000" cont="0"/>
        <request index="1" response="0000000" foes="1011000" cont="0"/>
        <request index="2" response="0100000" foes="0100000" cont="0"/>
        <request index="3" response="1100011" foes="1100011" cont="0"/>
        <request index="4" response="1100010" foes="1100010" cont="0"/>
        <request index="5" response="0000000" foes="0011100" cont="0"/>
        <request index="6" response="0000011" foes="0011011" cont="0"/>
    </junction>
    <junction id="7" type="dead_end" x="-89.14" y="401.36" incLanes="15028_0" intLanes="" shape="-90.87,401.63 -87.41,401.09" rightOfWay="edgePriority"/>

    <connection from="15025" to="15197" fromLane="0" toLane="0" contPos="-4.00" shape="-81.44,452.08 -82.10,448.63 -82.96,445.84 -83.89,443.70 -85.09,441.70 -86.19,440.33 -87.45,439.12 -88.88,438.11 -90.44,437.31 -92.10,436.74 -94.39,436.30 -96.72,436.18 -99.63,436.40 -100.21,436.48" via=":17_0_0" dir="r" state="M"/>
    <connection from="15025" to="15028" fromLane="0" toLane="0" contPos="-4.00" shape="-81.44,452.08 -81.73,450.03 -86.82,416.19" via=":17_1_0" dir="s" state="M"/>
    <connection from="15027" to="15024" fromLane="0" toLane="0" contPos="-4.00" shape="-83.36,415.66 -78.27,449.52 -77.97,451.58" via=":17_5_0" dir="s" state="M"/>
    <connection from="15027" to="15197" fromLane="0" toLane="0" contPos="-4.00" shape="-83.36,415.66 -83.05,418.54 -83.07,421.44 -83.39,423.73 -84.03,425.96 -85.01,428.06 -85.98,429.51 -87.54,431.22 -89.36,432.66 -91.36,433.83 -94.02,434.97 -96.80,435.80 -100.21,436.48" via=":17_6_0" dir="l" state="m"/>
    <connection from="15195" to="15024" fromLane="0" toLane="0" contPos="-4.00" shape="-64.24,430.96 -67.07,431.55 -69.26,432.27 -71.35,433.26 -73.27,434.56 -74.54,435.73 -75.64,437.08 -76.54,438.56 -77.44,440.69 -78.00,442.93 -78.31,445.81 -78.27,448.70 -77.97,451.58" via=":17_2_0" dir="r" state="m"/>
    <connection from="15195" to="15197" fromLane="0" toLane="0" contPos="-4.00" shape="-64.24,430.96 -82.22,433.72 -100.21,436.48" via=":17_3_0" dir="s" state="m"/>
    <connection from="15195" to="15028" fromLane="0" toLane="0" contPos="-4.00" shape="-64.24,430.96 -67.71,431.34 -70.63,431.38 -73.53,431.10 -75.81,430.59 -77.99,429.78 -80.02,428.63 -81.40,427.55 -82.99,425.85 -84.29,423.92 -85.31,421.82 -86.23,419.05 -86.82,416.19" via=":17_4_0" dir="l" state="m"/>
    <connection from="15197" to="15847" fromLane="0" toLane="0" contPos="-4.00" via=":15_0_0" dir="s" state="M"/>
    <connection from="15197" to="15846" fromLane="0" toLane="0" contPos="-4.00" via=":15_1_0" dir="s" state="M"/>

    <connection from=":15_0" to="15847" fromLane="0" toLane="0" dir="s" state="M"/>
    <connection from=":15_1" to="15846" fromLane="0" toLane="0" dir="s" state="M"/>
    <connection from=":17_0" to="15197" fromLane="0" toLane="0" dir="r" state="M"/>
    <connection from=":17_1" to="15028" fromLane="0" toLane="0" dir="s" state="M"/>
    <connection from=":17_2" to="15024" fromLane="0" toLane="0" dir="r" state="M"/>
    <connection from=":17_3" to="15197" fromLane="0" toLane="0" dir="s" state="M"/>
    <connection from=":17_4" to="15028" fromLane="0" toLane="0" dir="l" state="M"/>
    <connection from=":17_5" to="15024" fromLane="0" toLane="0" dir="s" state="M"/>
    <connection from=":17_6" to="15197" fromLane="0" toLane="0" dir="l" state="M"/>

</net>