<routes>
	<vehicle depart="0.1" departLane="0" departPos="60.54969130615501" departSpeed="0.0" id="31" type="passenger">
		<route edges="15195 15028"/>
	</vehicle>
	<vehicle depart="0.1" departLane="0" departPos="53.14944119987273" departSpeed="0.0" id="34" type="passenger">
		<route edges="15195 15028"/>
	</vehicle>
	<vehicle depart="0.1" departLane="0" departPos="2.5" departSpeed="0.77555496" id="317" type="passenger">
		<route edges=":17_5 15024"/>
	</vehicle>
	<vehicle depart="0.1" departLane="0" departPos="7.133292067986364" departSpeed="6.2478766" id="322" type="passenger">
		<route edges="15025 15028"/>
	</vehicle>
	<vehicle depart="0.1" departLane="0" departPos="18.550741115735903" departSpeed="0.69028294" id="30" type="truck">
		<route edges=":17_4 15028"/>
	</vehicle>
</routes>
