<routes>
	<vehicle depart="0.1" departLane="0" departPos="24.214533020660557" departSpeed="12.30332" id="38" type="passenger">
		<route edges=":48_2 8770 8773"/>
	</vehicle>
	<vehicle depart="0.1" departLane="0" departPos="18.78730138070384" departSpeed="5.1036444" id="39" type="passenger">
		<route edges=":47_4 8772 8752"/>
	</vehicle>
	<vehicle depart="0.1" departLane="0" departPos="7.100228862679917" departSpeed="6.8667153" id="316" type="passenger">
		<route edges="8773 8721"/>
	</vehicle>
	<vehicle depart="0.1" departLane="0" departPos="9.145140018917346" departSpeed="1.7870122" id="321" type="passenger">
		<route edges=":46_1 8752"/>
	</vehicle>
	<vehicle depart="0.1" departLane="0" departPos="69.8955994435796" departSpeed="0.0" id="327" type="passenger">
		<route edges="8720 8893"/>
	</vehicle>
	<vehicle depart="0.1" departLane="0" departPos="61.65044493979774" departSpeed="0.76683373" id="328" type="passenger">
		<route edges="8720 8893"/>
	</vehicle>
	<vehicle depart="0.1" departLane="0" departPos="23.286557726297712" departSpeed="1.0706195" id="330" type="passenger">
		<route edges="8772 8769 8717"/>
	</vehicle>
	<vehicle depart="0.1" departLane="0" departPos="5.7245339253170755" departSpeed="2.6358134" id="335" type="passenger">
		<route edges="8772 8752"/>
	</vehicle>
</routes>
