<!-- generated on Tue Feb  9 22:14:22 2021 by Eclipse SUMO netconvert Version 1.8.0
<configuration xmlns:xsi="http://www.w3.org/2001/XMLSchema-instance" xsi:noNamespaceSchemaLocation="http://sumo.dlr.de/xsd/netconvertConfiguration.xsd">

    <input>
        <node-files value="./converted_scenarios/scenario-factory/BEL_Aarschot-5_1_I-1-1/BEL_Aarschot-5_1_I-1-1.nod.xml"/>
        <edge-files value="./converted_scenarios/scenario-factory/BEL_Aarschot-5_1_I-1-1/BEL_Aarschot-5_1_I-1-1.edg.xml"/>
        <connection-files value="./converted_scenarios/scenario-factory/BEL_Aarschot-5_1_I-1-1/BEL_Aarschot-5_1_I-1-1.con.xml"/>
        <tllogic-files value="./converted_scenarios/scenario-factory/BEL_Aarschot-5_1_I-1-1/BEL_Aarschot-5_1_I-1-1.tll.xml"/>
        <type-files value="/home/zen/commonroad-interactive-benchmarks/install/commonroad-map-tool/crmapconverter/sumo_map/templates/DEU.typ.xml"/>
    </input>

    <output>
        <output-file value="./converted_scenarios/scenario-factory/BEL_Aarschot-5_1_I-1-1/BEL_Aarschot-5_1_I-1-1.net.xml"/>
    </output>

    <processing>
        <geometry.remove.keep-edges.explicit value="true"/>
        <geometry.avoid-overlap value="true"/>
        <offset.disable-normalization value="true"/>
    </processing>

    <junctions>
        <no-turnarounds value="true"/>
        <junctions.internal-link-detail value="20"/>
    </junctions>

    <report>
        <aggregate-warnings value="5"/>
    </report>

    <random_number>
        <seed value="1234"/>
    </random_number>

</configuration>
--><net xmlns:xsi="http://www.w3.org/2001/XMLSchema-instance" version="1.6" junctionCornerDetail="5" junctionLinkDetail="20" limitTurnSpeed="5.50" xsi:noNamespaceSchemaLocation="http://sumo.dlr.de/xsd/net_file.xsd">

    <location netOffset="0.00,0.00" convBoundary="-468.92,457.02,-267.87,652.69" origBoundary="-468.92,457.02,-267.87,652.69" projParameter="!"/>

    <type id="highway.bridleway" priority="1" speed="2.78" allow="pedestrian" oneway="1" width="2.00"/>
    <type id="highway.bus_guideway" priority="1" speed="27.78" allow="bus" oneway="1"/>
    <type id="highway.cycleway" priority="1" speed="8.33" allow="bicycle" oneway="0" width="1.00"/>
    <type id="highway.footway" priority="1" speed="2.78" allow="pedestrian" oneway="1" width="2.00"/>
    <type id="highway.ford" priority="1" speed="2.78" allow="army" oneway="0"/>
    <type id="highway.living_street" priority="2" speed="2.78" disallow="tram rail_urban rail rail_electric rail_fast ship" oneway="0"/>
    <type id="highway.motorway" priority="14" speed="39.44" allow="private emergency authority army vip passenger hov taxi bus coach delivery truck trailer motorcycle evehicle custom1 custom2" oneway="1"/>
    <type id="highway.motorway_link" priority="9" speed="22.22" allow="private emergency authority army vip passenger hov taxi bus coach delivery truck trailer motorcycle evehicle custom1 custom2" oneway="1"/>
    <type id="highway.path" priority="1" speed="2.78" allow="pedestrian bicycle" oneway="0" width="2.00"/>
    <type id="highway.pedestrian" priority="1" speed="2.78" allow="pedestrian" oneway="1" width="2.00"/>
    <type id="highway.primary" priority="12" speed="27.78" disallow="pedestrian tram rail_urban rail rail_electric rail_fast ship" oneway="0"/>
    <type id="highway.primary_link" priority="7" speed="22.22" disallow="pedestrian tram rail_urban rail rail_electric rail_fast ship" oneway="0"/>
    <type id="highway.raceway" priority="15" speed="83.33" allow="vip" oneway="0"/>
    <type id="highway.residential" priority="3" speed="13.89" disallow="pedestrian tram rail_urban rail rail_electric rail_fast ship" oneway="0"/>
    <type id="highway.secondary" priority="11" speed="27.78" disallow="pedestrian tram rail_urban rail rail_electric rail_fast ship" oneway="0"/>
    <type id="highway.secondary_link" priority="6" speed="22.22" disallow="pedestrian tram rail_urban rail rail_electric rail_fast ship" oneway="0"/>
    <type id="highway.service" priority="1" speed="5.56" allow="pedestrian delivery bicycle" oneway="0"/>
    <type id="highway.stairs" priority="1" speed="1.39" allow="pedestrian" oneway="1" width="2.00"/>
    <type id="highway.step" priority="1" speed="1.39" allow="pedestrian" oneway="1" width="2.00"/>
    <type id="highway.steps" priority="1" speed="1.39" allow="pedestrian" oneway="1" width="2.00"/>
    <type id="highway.tertiary" priority="10" speed="22.22" disallow="pedestrian tram rail_urban rail rail_electric rail_fast ship" oneway="0"/>
    <type id="highway.tertiary_link" priority="5" speed="22.22" disallow="pedestrian tram rail_urban rail rail_electric rail_fast ship" oneway="0"/>
    <type id="highway.track" priority="1" speed="5.56" allow="pedestrian motorcycle moped bicycle" oneway="0"/>
    <type id="highway.trunk" priority="13" speed="27.78" disallow="pedestrian bicycle tram rail_urban rail rail_electric rail_fast ship" oneway="0"/>
    <type id="highway.trunk_link" priority="8" speed="22.22" disallow="pedestrian bicycle tram rail_urban rail rail_electric rail_fast ship" oneway="0"/>
    <type id="highway.unclassified" priority="4" speed="13.89" disallow="pedestrian tram rail_urban rail rail_electric rail_fast ship" oneway="0"/>
    <type id="highway.unsurfaced" priority="1" speed="8.33" disallow="tram rail_urban rail rail_electric rail_fast ship" oneway="0"/>
    <type id="railway.highspeed" priority="21" speed="69.44" allow="rail_fast" oneway="1"/>
    <type id="railway.light_rail" priority="19" speed="27.78" allow="rail_urban" oneway="1"/>
    <type id="railway.preserved" priority="16" speed="27.78" allow="rail" oneway="1"/>
    <type id="railway.rail" priority="20" speed="44.44" allow="rail" oneway="1"/>
    <type id="railway.subway" priority="18" speed="27.78" allow="rail_urban" oneway="1"/>
    <type id="railway.tram" priority="17" speed="13.89" allow="tram" oneway="1"/>

    <edge id=":31_0" function="internal">
        <lane id=":31_0_0" index="0" disallow="pedestrian tram rail_urban rail rail_electric rail_fast ship" speed="36.11" length="0.10" width="3.50" shape="-341.38,507.73 -341.38,507.73"/>
    </edge>
    <edge id=":34_0" function="internal">
        <lane id=":34_0_0" index="0" disallow="pedestrian tram rail_urban rail rail_electric rail_fast ship" speed="36.11" length="3.00" width="3.50" shape="-299.86,517.21 -297.55,519.12"/>
    </edge>
    <edge id=":36_0" function="internal">
        <lane id=":36_0_0" index="0" disallow="pedestrian tram rail_urban rail rail_electric rail_fast ship" speed="36.11" length="3.00" width="3.50" shape="-299.78,521.82 -302.09,519.91"/>
    </edge>
    <edge id=":38_0" function="internal">
        <lane id=":38_0_0" index="0" disallow="pedestrian tram rail_urban rail rail_electric rail_fast ship" speed="36.11" length="7.86" width="3.50" shape="-344.83,511.53 -344.86,510.94 -344.90,510.41 -344.92,509.94 -344.95,509.50 -344.97,509.11 -344.99,508.74 -345.00,508.40 -345.00,508.07 -345.00,507.76 -345.00,507.45 -344.98,507.13 -344.96,506.81 -344.94,506.47 -344.90,506.10 -344.86,505.71 -344.80,505.28 -344.74,504.81 -344.67,504.28 -344.59,503.70"/>
    </edge>
    <edge id=":39_0" function="internal">
        <lane id=":39_0_0" index="0" disallow="pedestrian tram rail_urban rail rail_electric rail_fast ship" speed="7.66" length="12.55" width="3.50" shape="-386.56,550.68 -386.75,550.04 -387.77,547.95 -388.77,546.52 -389.98,545.26 -391.37,544.20 -392.90,543.36 -395.09,542.55 -395.32,542.50"/>
    </edge>
    <edge id=":39_1" function="internal">
        <lane id=":39_1_0" index="0" disallow="pedestrian tram rail_urban rail rail_electric rail_fast ship" speed="36.11" length="13.96" width="3.49" shape="-386.02,550.63 -387.30,536.73"/>
    </edge>
    <edge id=":39_2" function="internal">
        <lane id=":39_2_0" index="0" disallow="pedestrian tram rail_urban rail rail_electric rail_fast ship" speed="9.42" length="21.54" width="3.50" shape="-385.41,550.57 -385.03,549.13 -384.25,547.48 -383.15,546.03 -381.78,544.82 -380.21,543.88 -378.53,543.18 -376.18,542.56 -373.16,542.14 -369.51,542.03 -367.71,542.10"/>
    </edge>
    <edge id=":39_3" function="internal">
        <lane id=":39_3_0" index="0" disallow="pedestrian tram rail_urban rail rail_electric rail_fast ship" speed="36.11" length="27.87" width="3.50" shape="-367.74,545.59 -373.45,545.09 -381.50,543.86 -390.55,542.42 -395.36,541.94"/>
    </edge>
    <edge id=":39_4" function="internal">
        <lane id=":39_4_0" index="0" disallow="pedestrian tram rail_urban rail rail_electric rail_fast ship" speed="9.24" length="20.98" width="3.49" shape="-367.74,545.59 -371.37,545.26 -374.82,544.58 -377.60,543.69 -379.73,542.71 -381.72,541.48 -383.51,539.97 -385.05,538.20 -385.86,536.91"/>
    </edge>
    <edge id=":40_0" function="internal">
        <lane id=":40_0_0" index="0" disallow="pedestrian tram rail_urban rail rail_electric rail_fast ship" speed="36.11" length="9.61" width="3.39" shape="-334.12,563.12 -335.35,563.29 -341.42,564.05 -343.67,564.08"/>
    </edge>
    <edge id=":40_1" function="internal">
        <lane id=":40_1_0" index="0" disallow="pedestrian tram rail_urban rail rail_electric rail_fast ship" speed="7.73" length="12.98" width="3.50" shape="-334.18,561.06 -334.63,560.98 -337.35,560.14 -339.40,559.14 -340.77,558.12 -341.90,556.84 -342.67,555.32 -343.05,553.65 -343.09,553.09"/>
    </edge>
    <edge id=":40_2" function="internal">
        <lane id=":40_2_0" index="0" disallow="pedestrian tram rail_urban rail rail_electric rail_fast ship" speed="8.10" length="12.62" width="3.39" shape="-339.59,552.95 -339.56,554.25 -339.64,556.78 -339.79,558.11 -340.05,559.46 -340.50,560.83 -341.27,562.18 -342.44,563.32 -343.67,564.08"/>
    </edge>
    <edge id=":40_3" function="internal">
        <lane id=":40_3_0" index="0" disallow="pedestrian tram rail_urban rail rail_electric rail_fast ship" speed="6.14" length="7.85" width="3.50" shape="-343.56,560.72 -343.87,560.28 -343.49,559.45 -343.29,558.56 -343.17,557.65 -343.10,556.74 -343.06,555.82 -343.06,553.99 -343.09,553.09"/>
    </edge>
    <edge id=":41_0" function="internal">
        <lane id=":41_0_0" index="0" disallow="pedestrian tram rail_urban rail rail_electric rail_fast ship" speed="9.91" length="22.72" width="3.50" shape="-343.10,552.84 -343.21,551.75 -343.48,550.70 -343.93,549.72 -344.54,548.83 -345.30,548.06 -346.17,547.41 -347.11,546.88 -348.10,546.45 -349.13,546.11 -350.18,545.83 -352.31,545.47 -354.47,545.27 -357.71,545.22 -360.96,545.38 -362.02,545.46"/>
    </edge>
    <edge id=":41_1" function="internal">
        <lane id=":41_1_0" index="0" disallow="pedestrian tram rail_urban rail rail_electric rail_fast ship" speed="36.11" length="29.65" width="3.50" shape="-343.10,552.84 -343.15,545.42 -342.98,533.78 -343.14,528.49 -343.64,523.22"/>
    </edge>
    <edge id=":41_2" function="internal">
        <lane id=":41_2_0" index="0" disallow="pedestrian tram rail_urban rail rail_electric rail_fast ship" speed="36.11" length="29.91" width="3.50" shape="-340.16,522.80 -339.66,528.18 -339.49,533.60 -339.66,545.32 -339.60,552.68"/>
    </edge>
    <edge id=":41_3" function="internal">
        <lane id=":41_3_0" index="0" disallow="pedestrian tram rail_urban rail rail_electric rail_fast ship" speed="12.29" length="36.28" width="3.50" shape="-340.16,522.80 -339.94,525.31 -339.96,527.88 -340.27,530.48 -340.95,533.01 -341.45,534.29 -342.06,535.50 -342.77,536.65 -343.58,537.73 -344.47,538.74 -345.48,539.68 -347.57,541.24 -349.86,542.50 -352.24,543.48 -354.68,544.23 -358.34,545.00 -362.02,545.46"/>
    </edge>
    <edge id=":41_4" function="internal">
        <lane id=":41_4_0" index="0" disallow="pedestrian tram rail_urban rail rail_electric rail_fast ship" speed="11.32" length="30.58" width="3.50" shape="-362.33,541.97 -359.09,541.58 -355.88,540.91 -353.79,540.28 -351.76,539.46 -349.83,538.43 -348.06,537.15 -347.26,536.42 -346.51,535.62 -345.85,534.75 -345.26,533.83 -344.75,532.86 -344.33,531.86 -343.75,529.75 -343.47,527.59 -343.45,525.40 -343.64,523.22"/>
    </edge>
    <edge id=":41_5" function="internal">
        <lane id=":41_5_0" index="0" disallow="pedestrian tram rail_urban rail rail_electric rail_fast ship" speed="11.05" length="28.37" width="3.50" shape="-362.33,541.97 -361.08,541.88 -357.32,541.72 -353.53,541.84 -350.95,542.14 -348.41,542.68 -347.10,543.09 -345.84,543.61 -344.60,544.26 -343.42,545.06 -342.34,546.03 -341.39,547.17 -340.63,548.45 -340.08,549.83 -339.75,551.25 -339.60,552.68"/>
    </edge>
    <edge id=":42_0" function="internal">
        <lane id=":42_0_0" index="0" disallow="pedestrian tram rail_urban rail rail_electric rail_fast ship" speed="10.89" length="28.10" width="3.50" shape="-350.36,582.72 -350.52,579.35 -350.84,577.13 -351.38,574.95 -352.19,572.85 -352.70,571.85 -353.30,570.89 -353.98,570.00 -354.74,569.17 -355.58,568.42 -356.48,567.76 -357.45,567.19 -358.47,566.70 -359.52,566.31 -361.70,565.75 -363.93,565.47 -366.17,565.41 -367.30,565.45"/>
    </edge>
    <edge id=":42_1" function="internal">
        <lane id=":42_1_0" index="0" disallow="pedestrian tram rail_urban rail rail_electric rail_fast ship" speed="10.61" length="24.92" width="3.37" shape="-350.36,582.72 -350.23,576.45 -349.85,571.44 -349.29,567.71 -348.68,565.28 -348.26,564.09 -347.73,562.96 -347.02,561.93 -346.06,561.12 -343.76,560.73"/>
    </edge>
    <edge id=":42_2" function="internal">
        <lane id=":42_2_0" index="0" disallow="pedestrian tram rail_urban rail rail_electric rail_fast ship" speed="10.09" length="19.61" width="3.50" shape="-343.86,564.12 -344.68,564.17 -344.98,564.76 -345.29,565.54 -345.56,566.44 -345.80,567.41 -346.17,569.51 -346.53,572.75 -346.77,577.17 -346.86,582.70"/>
    </edge>
    <edge id=":42_3" function="internal">
        <lane id=":42_3_0" index="0" disallow="pedestrian tram rail_urban rail rail_electric rail_fast ship" speed="36.11" length="23.48" width="3.50" shape="-343.86,564.12 -356.01,564.86 -367.30,565.45"/>
    </edge>
    <edge id=":42_4" function="internal">
        <lane id=":42_4_0" index="0" disallow="pedestrian tram rail_urban rail rail_electric rail_fast ship" speed="36.11" length="23.75" width="3.37" shape="-367.48,561.95 -356.18,561.36 -343.76,560.73"/>
    </edge>
    <edge id=":42_5" function="internal">
        <lane id=":42_5_0" index="0" disallow="pedestrian tram rail_urban rail rail_electric rail_fast ship" speed="11.92" length="33.87" width="3.50" shape="-367.48,561.95 -366.16,561.91 -363.54,561.98 -360.88,562.31 -358.27,562.96 -356.95,563.45 -355.69,564.05 -354.48,564.76 -353.33,565.58 -352.27,566.52 -351.31,567.55 -350.45,568.66 -349.71,569.84 -349.06,571.10 -348.09,573.60 -347.44,576.20 -347.05,578.83 -346.86,582.70"/>
    </edge>
    <edge id=":43_0" function="internal">
        <lane id=":43_0_0" index="0" disallow="pedestrian tram rail_urban rail rail_electric rail_fast ship" speed="9.44" length="19.38" width="3.50" shape="-367.54,565.46 -371.61,565.50 -374.49,565.25 -377.34,564.68 -379.52,563.91 -381.06,563.09 -382.44,562.05 -383.62,560.77 -384.53,559.29 -384.62,559.06"/>
    </edge>
    <edge id=":43_1" function="internal">
        <lane id=":43_1_0" index="0" disallow="pedestrian tram rail_urban rail rail_electric rail_fast ship" speed="9.60" length="9.47" width="3.50" shape="-389.08,567.94 -387.79,565.71 -386.71,563.26 -385.94,560.70 -385.71,559.17"/>
    </edge>
    <edge id=":43_2" function="internal">
        <lane id=":43_2_0" index="0" disallow="pedestrian tram rail_urban rail rail_electric rail_fast ship" speed="15.75" length="21.67" width="3.50" shape="-387.91,569.05 -385.09,567.19 -381.86,565.48 -378.47,564.08 -374.97,563.03 -371.38,562.33 -367.74,561.96"/>
    </edge>

    <edge id="22911" from="43" to="39" priority="3" type="highway.residential" spreadType="center" length="8.53">
        <lane id="22911_0" index="0" disallow="pedestrian tram rail_urban rail rail_electric rail_fast ship" speed="36.11" length="8.53" width="3.50" customShape="1" shape="-385.22,559.12 -385.60,555.27 -386.04,550.63"/>
    </edge>
    <edge id="22987" from="39" to="23" priority="3" type="highway.residential" spreadType="center" length="83.37">
        <lane id="22987_0" index="0" disallow="pedestrian tram rail_urban rail rail_electric rail_fast ship" speed="36.11" length="83.37" width="3.49" customShape="1" shape="-390.13,536.36 -387.96,519.59 -387.08,515.65 -385.72,511.32 -383.49,505.70 -378.90,495.04 -376.66,488.88 -369.80,468.30 -366.36,458.82 -365.74,457.02"/>
    </edge>
    <edge id="23016" from="41" to="40" priority="3" type="highway.residential" spreadType="center" length="0.28" shape="-346.99,538.90 -337.28,557.78">
        <lane id="23016_0" index="0" disallow="pedestrian tram rail_urban rail rail_electric rail_fast ship" speed="36.11" length="0.28" width="3.50" customShape="1" shape="-339.60,552.68 -339.59,552.82 -339.59,552.96"/>
    </edge>
    <edge id="23017" from="40" to="41" priority="3" type="highway.residential" spreadType="center" length="0.26" shape="-340.39,559.37 -350.09,540.50">
        <lane id="23017_0" index="0" disallow="pedestrian tram rail_urban rail rail_electric rail_fast ship" speed="36.11" length="0.26" width="3.50" customShape="1" shape="-343.09,553.09 -343.09,552.95 -343.10,552.83"/>
    </edge>
    <edge id="23019" from="31" to="41" priority="3" type="highway.residential" spreadType="center" length="15.16" shape="-341.38,507.73 -346.77,540.21">
        <lane id="23019_0" index="0" disallow="pedestrian tram rail_urban rail rail_electric rail_fast ship" speed="36.11" length="15.16" width="3.50" customShape="1" shape="-341.38,507.73 -341.40,510.25 -341.14,514.77 -340.16,522.82"/>
    </edge>
    <edge id="23020" from="41" to="38" priority="3" type="highway.residential" spreadType="center" length="11.76" shape="-350.21,539.64 -344.88,507.61">
        <lane id="23020_0" index="0" disallow="pedestrian tram rail_urban rail rail_electric rail_fast ship" speed="36.11" length="11.76" width="3.50" customShape="1" shape="-343.64,523.22 -344.63,515.00 -344.83,511.53"/>
    </edge>
    <edge id="23025" from="41" to="39" priority="3" type="highway.residential" spreadType="center" length="5.72" shape="-348.30,541.57 -382.59,543.31">
        <lane id="23025_0" index="0" disallow="pedestrian tram rail_urban rail rail_electric rail_fast ship" speed="36.11" length="5.72" width="3.50" customShape="1" shape="-362.02,545.46 -364.37,545.61 -367.74,545.59"/>
    </edge>
    <edge id="23026" from="39" to="41" priority="3" type="highway.residential" spreadType="center" length="5.47" shape="-382.76,539.82 -348.47,538.08">
        <lane id="23026_0" index="0" disallow="pedestrian tram rail_urban rail rail_electric rail_fast ship" speed="36.11" length="5.47" width="3.50" customShape="1" shape="-367.71,542.10 -364.48,542.12 -362.25,541.97"/>
    </edge>
    <edge id="23105" from="37" to="36" priority="3" type="highway.residential" spreadType="center" length="30.35">
        <lane id="23105_0" index="0" disallow="pedestrian tram rail_urban rail rail_electric rail_fast ship" speed="36.11" length="30.35" width="3.50" customShape="1" shape="-273.19,532.82 -274.78,532.95 -280.61,533.20 -283.26,533.18 -284.83,532.88 -285.82,532.52 -287.21,531.75 -292.35,527.98 -299.78,521.82"/>
    </edge>
    <edge id="23106" from="34" to="35" priority="3" type="highway.residential" spreadType="center" length="27.63">
        <lane id="23106_0" index="0" disallow="pedestrian tram rail_urban rail rail_electric rail_fast ship" speed="36.11" length="27.63" width="3.50" customShape="1" shape="-297.55,519.12 -290.53,524.96 -285.69,528.54 -284.60,529.21 -284.01,529.48 -282.84,529.71 -280.48,529.69 -274.97,529.46 -273.49,529.34"/>
    </edge>
    <edge id="23147" from="39" to="22" priority="3" type="highway.residential" spreadType="center" length="78.37">
        <lane id="23147_0" index="0" disallow="pedestrian tram rail_urban rail rail_electric rail_fast ship" speed="36.11" length="78.37" width="3.50" customShape="1" shape="-395.40,541.33 -418.60,542.95 -431.41,543.46 -432.93,543.26 -434.86,542.55 -437.10,541.31 -439.57,539.48 -444.67,535.18 -446.78,533.73 -448.62,532.80 -450.08,532.33 -451.59,532.08 -453.64,532.13 -456.69,532.57 -459.66,533.36 -462.53,534.47 -465.72,536.12 -468.72,538.09 -468.92,538.24"/>
    </edge>
    <edge id="23206" from="42" to="10" priority="3" type="highway.residential" spreadType="center" length="70.00" shape="-351.81,569.45 -344.96,652.67">
        <lane id="23206_0" index="0" disallow="pedestrian tram rail_urban rail rail_electric rail_fast ship" speed="36.11" length="70.00" width="3.50" customShape="1" shape="-346.86,582.70 -346.81,592.27 -346.29,615.88 -344.96,652.67"/>
    </edge>
    <edge id="23207" from="30" to="42" priority="3" type="highway.residential" spreadType="center" length="70.00" shape="-348.46,652.69 -355.30,569.74">
        <lane id="23207_0" index="0" disallow="pedestrian tram rail_urban rail rail_electric rail_fast ship" speed="36.11" length="70.00" width="3.50" customShape="1" shape="-348.46,652.69 -349.79,615.95 -350.31,592.30 -350.36,582.72"/>
    </edge>
    <edge id="23366" from="33" to="43" priority="3" type="highway.residential" spreadType="center" length="67.20">
        <lane id="23366_0" index="0" disallow="pedestrian tram rail_urban rail rail_electric rail_fast ship" speed="36.11" length="67.20" width="3.50" customShape="1" shape="-435.25,616.71 -428.08,610.33 -422.64,605.05 -420.96,603.17 -417.30,598.98 -406.64,587.51 -388.51,568.49"/>
    </edge>
    <edge id="23584" from="42" to="40" priority="3" type="highway.residential" spreadType="center" length="0.20" shape="-354.68,568.38 -339.85,557.23">
        <lane id="23584_0" index="0" disallow="pedestrian tram rail_urban rail rail_electric rail_fast ship" speed="36.11" length="0.20" width="3.37" customShape="1" shape="-343.76,560.73 -343.56,560.72"/>
    </edge>
    <edge id="23585" from="40" to="42" priority="3" type="highway.residential" spreadType="center" length="0.19" shape="-337.82,559.93 -352.66,571.07">
        <lane id="23585_0" index="0" disallow="pedestrian tram rail_urban rail rail_electric rail_fast ship" speed="36.11" length="0.19" width="3.39" customShape="1" shape="-343.67,564.08 -343.86,564.12"/>
    </edge>
    <edge id="23587" from="43" to="42" priority="3" type="highway.residential" spreadType="center" length="0.27" shape="-378.59,562.65 -353.19,567.92">
        <lane id="23587_0" index="0" disallow="pedestrian tram rail_urban rail rail_electric rail_fast ship" speed="36.11" length="0.27" width="3.50" customShape="1" shape="-367.74,561.96 -367.61,561.96 -367.47,561.95"/>
    </edge>
    <edge id="23588" from="42" to="43" priority="3" type="highway.residential" spreadType="center" length="0.25" shape="-353.91,571.34 -379.30,566.07">
        <lane id="23588_0" index="0" disallow="pedestrian tram rail_urban rail rail_electric rail_fast ship" speed="36.11" length="0.25" width="3.50" customShape="1" shape="-367.30,565.45 -367.42,565.45 -367.55,565.46"/>
    </edge>
    <edge id="23741" from="32" to="40" priority="3" type="highway.residential" spreadType="center" length="66.32">
        <lane id="23741_0" index="0" disallow="pedestrian tram rail_urban rail rail_electric rail_fast ship" speed="36.11" length="66.32" width="3.50" customShape="1" shape="-267.87,559.98 -291.02,560.71 -313.65,561.63 -334.15,562.21"/>
    </edge>
    <edge id="27890" from="38" to="34" priority="3" type="highway.residential" spreadType="center" length="61.90">
        <lane id="27890_0" index="0" disallow="pedestrian tram rail_urban rail rail_electric rail_fast ship" speed="36.11" length="61.90" width="3.50" customShape="1" shape="-344.59,503.70 -344.18,500.85 -343.78,499.11 -343.24,497.40 -342.49,495.69 -341.43,494.05 -339.97,492.59 -338.09,491.56 -336.02,491.12 -334.01,491.21 -332.16,491.64 -330.45,492.29 -328.85,493.08 -327.35,493.95 -325.90,494.91 -323.20,496.94 -320.62,499.12 -317.00,502.53 -316.89,502.63 -316.81,502.71 -316.10,503.40 -310.69,508.20 -299.86,517.21"/>
    </edge>
    <edge id="27891" from="36" to="31" priority="3" type="highway.residential" spreadType="center" length="57.05">
        <lane id="27891_0" index="0" disallow="pedestrian tram rail_urban rail rail_electric rail_fast ship" speed="36.11" length="57.05" width="3.50" customShape="1" shape="-302.09,519.91 -313.02,510.81 -318.51,505.94 -319.27,505.21 -319.36,505.12 -319.45,505.03 -322.56,502.10 -324.73,500.24 -326.99,498.52 -328.18,497.72 -329.40,496.98 -330.66,496.32 -331.98,495.77 -333.35,495.38 -334.76,495.22 -336.17,495.39 -337.47,495.96 -338.54,496.89 -339.37,498.05 -339.98,499.33 -340.44,500.68 -340.78,502.07 -341.20,504.89 -341.38,507.73"/>
    </edge>

    <junction id="10" type="dead_end" x="-344.96" y="652.67" incLanes="23206_0" intLanes="" shape="-343.21,652.61 -346.71,652.73" rightOfWay="edgePriority"/>
    <junction id="22" type="dead_end" x="-468.92" y="538.24" incLanes="23147_0" intLanes="" shape="-467.84,539.62 -470.01,536.87" rightOfWay="edgePriority"/>
    <junction id="23" type="dead_end" x="-365.74" y="457.02" incLanes="22987_0" intLanes="" shape="-367.38,456.45 -364.09,457.59" rightOfWay="edgePriority"/>
    <junction id="30" type="dead_end" x="-348.46" y="652.69" incLanes="" intLanes="" shape="-346.72,652.63 -350.21,652.76" rightOfWay="edgePriority"/>
    <junction id="31" type="priority" x="-341.38" y="507.73" incLanes="27891_0" intLanes=":31_0_0" shape="-339.63,507.79 -343.12,507.57 -343.13,507.77" rightOfWay="edgePriority">
        <request index="0" response="0" foes="0" cont="0"/>
    </junction>
    <junction id="32" type="dead_end" x="-267.87" y="559.98" incLanes="" intLanes="" shape="-267.92,558.23 -267.81,561.73" rightOfWay="edgePriority"/>
    <junction id="33" type="dead_end" x="-435.25" y="616.71" incLanes="" intLanes="" shape="-434.09,618.02 -436.41,615.41" rightOfWay="edgePriority"/>
    <junction id="34" type="priority" x="-298.71" y="518.16" incLanes="27890_0" intLanes=":34_0_0" shape="-298.67,520.47 -296.44,517.78 -298.74,515.86 -300.98,518.55" rightOfWay="edgePriority">
        <request index="0" response="0" foes="0" cont="0"/>
    </junction>
    <junction id="35" type="dead_end" x="-273.49" y="529.34" incLanes="23106_0" intLanes="" shape="-273.63,527.59 -273.35,531.08" rightOfWay="edgePriority"/>
    <junction id="36" type="priority" x="-300.93" y="520.87" incLanes="23105_0" intLanes=":36_0_0" shape="-300.90,523.17 -298.66,520.48 -300.97,518.56 -303.21,521.25" rightOfWay="edgePriority">
        <request index="0" response="0" foes="0" cont="0"/>
    </junction>
    <junction id="37" type="dead_end" x="-273.19" y="532.82" incLanes="" intLanes="" shape="-273.33,531.08 -273.05,534.57" rightOfWay="edgePriority"/>
    <junction id="38" type="priority" x="-344.88" y="507.61" incLanes="23020_0" intLanes=":38_0_0" shape="-342.84,503.81 -346.34,503.59 -346.70,506.51 -346.76,507.54 -346.75,508.57 -346.68,509.83 -346.58,511.52 -343.08,511.54 -343.23,508.67 -343.24,507.67 -343.19,506.66 -343.06,505.45" rightOfWay="edgePriority">
        <request index="0" response="0" foes="0" cont="0"/>
    </junction>
    <junction id="39" type="priority" x="-382.67" y="541.57" incLanes="22911_0 23025_0" intLanes=":39_0_0 :39_1_0 :39_2_0 :39_3_0 :39_4_0" shape="-387.78,550.80 -384.30,550.46 -382.60,548.68 -380.32,548.06 -377.09,547.64 -372.89,547.40 -367.75,547.34 -367.70,540.35 -373.32,540.25 -378.35,540.01 -382.58,539.57 -385.81,538.88 -387.82,537.91 -388.40,536.58 -391.86,536.14 -392.46,537.95 -392.99,538.61 -393.68,539.10 -394.52,539.43 -395.52,539.59 -395.28,543.08 -393.21,543.16 -391.47,543.73 -390.05,544.77 -388.97,546.30 -388.21,548.31">
        <request index="0" response="00000" foes="01000" cont="0"/>
        <request index="1" response="00000" foes="11000" cont="0"/>
        <request index="2" response="00000" foes="11000" cont="0"/>
        <request index="3" response="00111" foes="00111" cont="0"/>
        <request index="4" response="00110" foes="00110" cont="0"/>
    </junction>
    <junction id="40" type="priority" x="-338.84" y="558.58" incLanes="23741_0 23016_0 23584_0" intLanes=":40_0_0 :40_1_0 :40_2_0 :40_3_0" shape="-334.10,563.96 -334.20,560.47 -336.10,559.67 -336.79,558.62 -337.31,557.14 -337.66,555.23 -337.84,552.89 -344.83,553.15 -348.12,559.20 -347.98,562.57 -343.33,564.99 -346.01,564.11 -343.33,564.47 -340.59,564.38 -337.73,564.21 -335.36,564.05">
        <request index="0" response="0000" foes="0100" cont="0"/>
        <request index="1" response="1000" foes="1100" cont="0"/>
        <request index="2" response="0011" foes="0011" cont="0"/>
        <request index="3" response="0000" foes="0010" cont="0"/>
    </junction>
    <junction id="41" type="priority" x="-348.47" y="539.83" incLanes="23017_0 23019_0 23026_0" intLanes=":41_0_0 :41_1_0 :41_2_0 :41_3_0 :41_4_0 :41_5_0" shape="-344.84,552.92 -337.85,552.60 -338.43,522.59 -345.38,523.43 -345.33,528.21 -346.43,532.20 -348.68,535.39 -352.09,537.80 -356.65,539.41 -362.36,540.22 -361.90,547.20 -356.76,547.05 -352.54,547.35 -349.24,548.08 -346.85,549.25 -345.39,550.87">
        <request index="0" response="000000" foes="001000" cont="0"/>
        <request index="1" response="000000" foes="111000" cont="0"/>
        <request index="2" response="000000" foes="100000" cont="0"/>
        <request index="3" response="000011" foes="100011" cont="0"/>
        <request index="4" response="000010" foes="000010" cont="0"/>
        <request index="5" response="001110" foes="001110" cont="0"/>
    </junction>
    <junction id="42" type="priority" x="-353.55" y="569.63" incLanes="23207_0 23585_0 23587_0" intLanes=":42_0_0 :42_1_0 :42_2_0 :42_3_0 :42_4_0 :42_5_0" shape="-352.11,582.73 -345.11,582.69 -343.38,564.18 -342.38,558.98 -367.58,560.20 -367.20,567.19 -362.61,567.40 -358.85,568.56 -355.92,570.67 -353.82,573.74 -352.55,577.76">
        <request index="0" response="001000" foes="001000" cont="0"/>
        <request index="1" response="111000" foes="111000" cont="0"/>