<routes>
	<vehicle depart="0.1" departLane="0" departPos="6.886839613820757" departSpeed="0.26046663" id="37" type="bicycle">
		<route edges=":40_1 23017"/>
	</vehicle>
	<vehicle depart="0.1" departLane="0" departPos="1.0" departSpeed="0.22393787" id="39" type="bicycle">
		<route edges=":40_0 23585 23588"/>
	</vehicle>
	<vehicle depart="0.1" departLane="0" departPos="12.491187158789504" departSpeed="1.0566664" id="36" type="passenger">
		<route edges=":40_1 23017"/>
	</vehicle>
	<vehicle depart="0.1" departLane="0" departPos="2.5" departSpeed="4.5938427" id="313" type="passenger">
		<route edges=":41_2 23016"/>
	</vehicle>
	<vehicle depart="0.1" departLane="0" departPos="50.35940006377224" departSpeed="3.7532466" id="315" type="passenger">
		<route edges="27891 23019 23025"/>
	</vehicle>
	<vehicle depart="0.1" departLane="0" departPos="24.50357626434008" departSpeed="1.0022837" id="316" type="passenger">
		<route edges="27891 23019"/>
	</vehicle>
	<vehicle depart="0.1" departLane="0" departPos="8.895154667760838" departSpeed="7.8093638" id="324" type="passenger">
		<route edges=":42_3 23588 22911"/>
	</vehicle>
	<vehicle depart="0.1" departLane="0" departPos="22.799313511700188" departSpeed="0.08389369" id="33" type="motorcycle">
		<route edges=":42_1 23584"/>
	</vehicle>
	<vehicle depart="0.1" departLane="0" departPos="46.664524259710426" departSpeed="0.97825022" id="318" type="motorcycle">
		<route edges="23741 23017"/>
	</vehicle>
	<vehicle depart="0.1" departLane="0" departPos="6.629440990090561" departSpeed="0.53324552" id="322" type="truck">
		<route edges="23020 27890"/>
	</vehicle>
</routes>
