<routes>
	<vehicle depart="0.1" departLane="0" departPos="177.6102410290729" departSpeed="12.0637" id="201" type="passenger">
		<route edges="49570 49580 49572"/>
	</vehicle>
	<vehicle depart="0.1" departLane="0" departPos="109.96215100301848" departSpeed="9.0849" id="202" type="passenger">
		<route edges="49578 49584 49600 49566"/>
	</vehicle>
	<vehicle depart="0.1" departLane="0" departPos="0" departSpeed="7.6999" id="203" type="passenger">
		<route edges="49596 49590 49568"/>
	</vehicle>
</routes>
