<!-- generated on 2020-12-18 15:42:54.610768 by ipykernel_launcher.py v1_2_0+5214-53edc58fcd
-->
<edges>
	<edge from="1" function="normal" id="49564" length="142.62953739543647" numLanes="1" priority="1" speed="36.11111111111111" spreadType="center" to="2">
		<lane allow="pedestrian rail private passenger ship delivery vip emergency bicycle rail_electric army rail_urban trailer coach bus custom2 tram taxi evehicle custom1 motorcycle authority truck hov moped" index="0" length="142.62953739543647" shape="-86.83439999999999,4.6787 -64.0804,3.76785 -63.18285,3.71795 -41.171049999999994,2.4222449999999998 -40.80845,2.393955 -20.198700000000002,0.7952999999999999 -1.00928,0.14029999999999998 24.127299999999998,-0.54535 48.24905,0.1560999999999999 55.6413,0.34420000000000006" speed="36.11111111111111" width="3.6997938712312064"/>
	</edge>
	<edge from="3" function="normal" id="49566" length="142.13102671432824" numLanes="1" priority="1" speed="36.11111111111111" spreadType="center" to="4">
		<lane allow="pedestrian rail private passenger ship delivery vip emergency bicycle rail_electric army rail_urban trailer coach bus custom2 tram taxi evehicle custom1 motorcycle authority truck hov moped" index="0" length="142.13102671432824" shape="55.549499999999995,5.39515 47.97725,4.7673000000000005 47.6183,4.74425 24.2733,3.5088999999999997 -0.829585,3.7771500000000002 -19.87005,4.856 -40.36024999999999,6.491750000000001 -63.8253,8.53515 -86.2699,10.26125" speed="36.11111111111111" width="3.579605189472716"/>
	</edge>
	<edge from="5" function="normal" id="49568" length="176.40479013059928" numLanes="1" priority="1" speed="36.11111111111111" spreadType="center" to="6">
		<lane allow="pedestrian rail private passenger ship delivery vip emergency bicycle rail_electric army rail_urban trailer coach bus custom2 tram taxi evehicle custom1 motorcycle authority truck hov moped" index="0" length="176.40479013059928" shape="67.28145,-8.932849999999998 66.7379,-22.74025 66.12084999999999,-36.41355 65.7362,-48.019149999999996 64.35634999999999,-77.06184999999999 62.505700000000004,-97.06084999999999 57.6058,-141.2295 54.638099999999994,-163.61095 53.24225,-174.31185 52.61795,-179.9318 51.503550000000004,-184.4613" speed="36.11111111111111" width="3.363864303148982"/>
	</edge>
	<edge from="7" function="normal" id="49570" length="177.6102410290729" numLanes="1" priority="1" speed="36.11111111111111" spreadType="center" to="8">
		<lane allow="pedestrian rail private passenger ship delivery vip emergency bicycle rail_electric army rail_urban trailer coach bus custom2 tram taxi evehicle custom1 motorcycle authority truck hov moped" index="0" length="177.6102410290729" shape="55.486599999999996,-186.11720000000003 55.84495,-183.54185 56.2256,-181.00635 56.50675,-178.15055 56.753,-175.86725 58.010999999999996,-165.92675 60.99115,-142.93599999999998 66.11335,-98.09065 68.02085,-77.68725 69.2388,-48.14545 69.62215,-36.578649999999996 70.09334999999999,-22.95355 70.82235,-9.298449999999999" speed="36.11111111111111" width="3.2876779191398913"/>
	</edge>
	<edge from="9" function="normal" id="49572" length="115.9102376351162" numLanes="1" priority="1" speed="36.11111111111111" spreadType="center" to="10">
		<lane allow="pedestrian rail private passenger ship delivery vip emergency bicycle rail_electric army rail_urban trailer coach bus custom2 tram taxi evehicle custom1 motorcycle authority truck hov moped" index="0" length="115.9102376351162" shape="81.8381,4.3093 94.8948,3.3124499999999997 95.83715000000001,3.24195 114.13804999999999,1.5632300000000001 114.45405,1.5290300000000001 140.03995,-1.79512 159.6698,-4.5544 160.17360000000002,-4.6295 196.82615,-9.985700000000001" speed="36.11111111111111" width="3.613704874502069"/>
	</edge>
	<edge from="11" function="normal" id="49574" length="115.55424753771737" numLanes="1" priority="1" speed="36.11111111111111" spreadType="center" to="12">
		<lane allow="pedestrian rail private passenger ship delivery vip emergency bicycle rail_electric army rail_urban trailer coach bus custom2 tram taxi evehicle custom1 motorcycle authority truck hov moped" index="0" length="115.55424753771737" shape="197.25065,-6.2964 160.8186,-1.1203299999999998 140.7166,2.03424 114.9675,5.4204 95.343,7.4037 82.70815,8.81175" speed="36.11111111111111" width="3.5173881690254207"/>
	</edge>
	<edge from="13" function="normal" id="49576" length="110.03522026967177" numLanes="1" priority="1" speed="36.11111111111111" spreadType="center" to="14">
		<lane allow="pedestrian rail private passenger ship delivery vip emergency bicycle rail_electric army rail_urban trailer coach bus custom2 tram taxi evehicle custom1 motorcycle authority truck hov moped" index="0" length="110.03522026967177" shape="69.76855,19.52815 68.75735,41.5777 67.69900000000001,68.5135 66.3957,102.56084999999999 65.44485,117.6216 64.87349999999999,129.45069999999998" speed="36.11111111111111" width="3.069770545171088"/>
	</edge>
	<edge from="15" function="normal" id="49578" length="109.96215100301848" numLanes="1" priority="1" speed="36.11111111111111" spreadType="center" to="16">
		<lane allow="pedestrian rail private passenger ship delivery vip emergency bicycle rail_electric army rail_urban trailer coach bus custom2 tram taxi evehicle custom1 motorcycle authority truck hov moped" index="0" length="109.96215100301848" shape="61.53305,129.18259999999998 62.14905,118.22370000000001 63.062,102.40435 64.5616,68.58935 65.519,41.7907 66.5476,19.33795" speed="36.11111111111111" width="3.023521260054235"/>
	</edge>
	<edge from="8" function="normal" id="49580" length="19.8767249478043" numLanes="1" priority="1" speed="36.11111111111111" spreadType="center" to="9">
		<lane allow="pedestrian rail private passenger ship delivery vip emergency bicycle rail_electric army rail_urban trailer coach custom2 tram taxi evehicle custom1 motorcycle authority hov moped" index="0" length="19.8767249478043" shape="70.82235,-9.298449999999999 70.98015,-7.303050000000001 71.09305,-6.2153 71.12989999999999,-5.890750000000001 71.2425,-5.07005 71.4003,-4.15395 71.4653,-3.78595 71.845,-2.4138 71.9065,-2.1379 72.22059999999999,-1.399565 72.40115,-1.0252 72.80905,-0.20252000000000003 73.24215000000001,0.436325 73.55645,0.8394299999999999 74.5667,1.788275 74.7521,1.914075 75.83965,2.631965 76.82169999999999,3.2117500000000003 77.55595,3.4490000000000003 79.32475,3.906 81.8381,4.3093" speed="36.11111111111111" width="3.6269216727136406"/>
	</edge>
	<edge from="12" function="normal" id="49582" length="19.664857854162324" numLanes="1" priority="1" speed="36.11111111111111" spreadType="center" to="13">
		<lane allow="pedestrian rail private passenger ship delivery vip emergency bicycle rail_electric army rail_urban trailer coach custom2 tram taxi evehicle custom1 motorcycle authority hov moped" index="0" length="19.664857854162324" shape="82.70815,8.81175 80.0714,8.9229 78.05799999999999,8.9279 77.4217,8.89935 76.4217,9.15715 76.02645,9.22855 74.6257,9.7448 74.3034,9.9641 73.04475,10.832650000000001 72.79755,11.10715 71.8493,12.09355 71.42175,13.0911 71.03655,13.7782 70.6056,14.70645 70.5278,15.37525 69.76855,19.52815" speed="36.11111111111111" width="3.45290858552612"/>
	</edge>
	<edge from="16" function="normal" id="49584" length="19.84753135489687" numLanes="1" priority="1" speed="36.11111111111111" spreadType="center" to="3">
		<lane allow="pedestrian rail private passenger ship delivery vip emergency bicycle rail_electric army rail_urban trailer coach custom2 tram taxi evehicle custom1 motorcycle authority hov moped" index="0" length="19.84753135489687" shape="66.5476,19.33795 66.28975,16.3669 66.3255,15.60885 66.20115,14.695 65.4497,12.693000000000001 65.3595,12.338750000000001 64.9618,11.4777 63.8404,9.8418 63.7461,9.69615 63.36895,9.1209 62.47275,8.25495 62.12695000000001,7.8227 61.3271,7.256449999999999 59.8975,6.5213 58.3666,6.12215 57.64535,5.8361 55.549499999999995,5.39515" speed="36.11111111111111" width="3.023521260054235"/>
	</edge>
	<edge from="2" function="normal" id="49586" length="17.987223345352827" numLanes="1" priority="1" speed="36.11111111111111" spreadType="center" to="5">
		<lane allow="pedestrian rail private passenger ship delivery vip emergency bicycle rail_electric army rail_urban trailer coach custom2 tram taxi evehicle custom1 motorcycle authority hov moped" index="0" length="17.987223345352827" shape="55.6413,0.34420000000000006 58.3198,0.4678500000000001 59.757400000000004,0.4802000000000002 61.23835,0.2942 62.56025,0.08210000000000006 63.0711,-0.20709999999999984 64.49445,-0.9377499999999999 65.0072,-1.5206195 65.5004,-2.0403000000000002 65.98315,-2.6656500000000003 66.39365000000001,-3.25995 66.84445,-4.9270499999999995 67.0398,-5.3838 67.04595,-5.3982 67.1747,-5.4836 67.28145,-8.932849999999998" speed="36.11111111111111" width="3.504924104741784"/>
	</edge>
	<edge from="8" function="normal" id="49588" length="25.95177158424713" numLanes="1" priority="1" speed="36.11111111111111" spreadType="center" to="3">
		<lane allow="pedestrian rail private passenger ship delivery vip emergency bicycle rail_electric army rail_urban trailer coach custom2 tram taxi evehicle custom1 motorcycle authority hov moped" index="0" length="25.95177158424713" shape="70.82235,-9.298449999999999 70.8776,-6.73215 70.90935,-4.15945 70.91425000000001,-3.9362 70.78805,-3.10515 70.3699,-1.6372999999999998 70.30045,-1.344685 70.04910000000001,-0.5680599999999999 68.99905000000001,1.038355 68.0075,2.3591 67.7703,2.60745 67.32050000000001,3.07075 65.69755,4.2765 65.1567,4.61175 64.76545,4.90805 64.16225,5.2305 63.3647,5.50135 62.02525,5.74225 60.800200000000004,5.881600000000001 59.66235,5.8346 58.8224,5.777850000000001 55.549499999999995,5.39515" speed="36.11111111111111" width="3.6269216727136406"/>
	</edge>
	<edge from="12" function="normal" id="49590" length="27.219285442747246" numLanes="1" priority="1" speed="36.11111111111111" spreadType="center" to="5">
		<lane allow="pedestrian rail private passenger ship delivery vip emergency bicycle rail_electric army rail_urban trailer coach custom2 tram taxi evehicle custom1 motorcycle authority hov moped" index="0" length="27.219285442747246" shape="82.70815,8.81175 78.8858,8.63575 78.19615,8.6551 75.91655,7.9060500000000005 74.9015,7.431050000000001 74.59595,7.259 73.13655,6.207 72.02199999999999,5.28655 71.5708,4.74705 70.4174,3.5644 69.78524999999999,2.7476000000000003 69.25645,1.99748 68.7233,1.0641475 68.54554999999999,0.7747999999999999 68.2071,-0.084285 67.9776,-0.759375 67.8706,-1.104745 67.54565,-3.18785 67.36875,-5.45645 67.3534,-5.619149999999999 67.27449999999999,-5.9879 67.28145,-8.932849999999998" speed="36.11111111111111" width="3.504924104741784"/>
	</edge>
	<edge from="16" function="normal" id="49592" length="25.755718500330985" numLanes="1" priority="1" speed="36.11111111111111" spreadType="center" to="9">
		<lane allow="pedestrian rail private passenger ship delivery vip emergency bicycle rail_electric army rail_urban trailer coach custom2 tram taxi evehicle custom1 motorcycle authority hov moped" index="0" length="25.755718500330985" shape="66.5476,19.33795 67.01509999999999,13.71975 67.75485,10.305250000000001 69.30355,7.6443 69.7761,7.1662 70.60905,6.4512 72.29285,5.31515 74.4696,4.5165500000000005 76.02205000000001,4.1282 76.75795,4.05875 81.8381,4.3093" speed="36.11111111111111" width="3.023521260054235"/>
	</edge>
	<edge from="2" function="normal" id="49594" length="27.550338224958566" numLanes="1" priority="1" speed="36.11111111111111" spreadType="center" to="13">
		<lane allow="pedestrian rail private passenger ship delivery vip emergency bicycle rail_electric army rail_urban trailer coach custom2 tram taxi evehicle custom1 motorcycle authority hov moped" index="0" length="27.550338224958566" shape="55.6413,0.34420000000000006 59.0651,0.8808500000000001 60.6737,1.1554000000000002 62.0857,1.575225 63.43385,2.2463191499999997 64.2175,2.77661 65.75365,4.3374500000000005 66.75720000000001,5.60285 67.1723,6.1457999999999995 67.65965,6.86985 67.91460000000001,7.2482999999999995 68.68889999999999,8.52595 69.54565,10.505099999999999 69.9186,12.485050000000001 69.76855,19.52815" speed="36.11111111111111" width="3.45290858552612"/>
	</edge>
	<edge from="16" function="normal" id="49596" length="28.289949531182202" numLanes="1" priority="1" speed="36.11111111111111" spreadType="center" to="5">
		<lane allow="pedestrian rail private passenger ship delivery vip emergency bicycle rail_electric army rail_urban trailer coach bus custom2 tram taxi evehicle custom1 motorcycle authority truck hov moped" index="0" length="28.289949531182202" shape="66.5476,19.33795 67.28835000000001,5.0192499999999995 67.28145,-8.932849999999998" speed="36.11111111111111" width="3.023521260054235"/>
	</edge>
	<edge from="8" function="normal" id="49598" length="28.894684607981105" numLanes="1" priority="1" speed="36.11111111111111" spreadType="center" to="13">
		<lane allow="pedestrian rail private passenger ship delivery vip emergency bicycle rail_electric army rail_urban trailer coach bus custom2 tram taxi evehicle custom1 motorcycle authority truck hov moped" index="0" length="28.894684607981105" shape="70.82235,-9.298449999999999 71.12745000000001,4.910550000000001 70.2636,15.32225 69.76855,19.52815" speed="36.11111111111111" width="3.45290858552612"/>
	</edge>
	<edge from="12" function="normal" id="49600" length="27.467290331718104" numLanes="1" priority="1" speed="36.11111111111111" spreadType="center" to="3">
		<lane allow="pedestrian rail private passenger ship delivery vip emergency bicycle rail_electric army rail_urban trailer coach bus custom2 tram taxi evehicle custom1 motorcycle authority truck hov moped" index="0" length="27.467290331718104" shape="82.70815,8.81175 79.71115,8.81495 77.20265,8.81095 75.83895000000001,8.74075 70.87015,8.33245 69.86789999999999,8.1638 64.2394,7.32395 60.4285,6.5785 55.549499999999995,5.39515" speed="36.11111111111111" width="4.338294210862145"/>
	</edge>
	<edge from="2" function="normal" id="49602" length="26.515190500608618" numLanes="1" priority="1" speed="36.11111111111111" spreadType="center" to="9">
		<lane allow="pedestrian rail private passenger ship delivery vip emergency bicycle rail_electric army rail_urban trailer coach bus custom2 tram taxi evehicle custom1 motorcycle authority truck hov moped" index="0" length="26.515190500608618" shape="55.6413,0.34420000000000006 60.7915,0.9491499999999999 65.0844,1.5473999999999997 70.80865,2.33775 75.3423,3.379675 76.3809,3.5835000000000004 80.05785,4.1255 81.8381,4.3093" speed="36.11111111111111" width="4.817469241209537"/>
	</edge>
</edges>
