<!-- generated on Tue Feb  9 22:17:15 2021 by Eclipse SUMO netconvert Version 1.8.0
<configuration xmlns:xsi="http://www.w3.org/2001/XMLSchema-instance" xsi:noNamespaceSchemaLocation="http://sumo.dlr.de/xsd/netconvertConfiguration.xsd">

    <input>
        <node-files value="./converted_scenarios/scenario-factory/DEU_Moelln-11_2_I-1-1/DEU_Moelln-11_2_I-1-1.nod.xml"/>
        <edge-files value="./converted_scenarios/scenario-factory/DEU_Moelln-11_2_I-1-1/DEU_Moelln-11_2_I-1-1.edg.xml"/>
        <connection-files value="./converted_scenarios/scenario-factory/DEU_Moelln-11_2_I-1-1/DEU_Moelln-11_2_I-1-1.con.xml"/>
        <tllogic-files value="./converted_scenarios/scenario-factory/DEU_Moelln-11_2_I-1-1/DEU_Moelln-11_2_I-1-1.tll.xml"/>
        <type-files value="/home/zen/commonroad-interactive-benchmarks/install/commonroad-map-tool/crmapconverter/sumo_map/templates/DEU.typ.xml"/>
    </input>

    <output>
        <output-file value="./converted_scenarios/scenario-factory/DEU_Moelln-11_2_I-1-1/DEU_Moelln-11_2_I-1-1.net.xml"/>
    </output>

    <processing>
        <geometry.remove.keep-edges.explicit value="true"/>
        <geometry.avoid-overlap value="true"/>
        <offset.disable-normalization value="true"/>
    </processing>

    <junctions>
        <no-turnarounds value="true"/>
        <junctions.internal-link-detail value="20"/>
    </junctions>

    <report>
        <aggregate-warnings value="5"/>
    </report>

    <random_number>
        <seed value="1234"/>
    </random_number>

</configuration>
--><net xmlns:xsi="http://www.w3.org/2001/XMLSchema-instance" version="1.6" junctionCornerDetail="5" junctionLinkDetail="20" limitTurnSpeed="5.50" xsi:noNamespaceSchemaLocation="http://sumo.dlr.de/xsd/net_file.xsd">

    <location netOffset="0.00,0.00" convBoundary="-446.01,623.73,-212.50,760.26" origBoundary="-446.01,618.30,-212.50,766.69" projParameter="!"/>

    <type id="highway.bridleway" priority="1" speed="2.78" allow="pedestrian" oneway="1" width="2.00"/>
    <type id="highway.bus_guideway" priority="1" speed="27.78" allow="bus" oneway="1"/>
    <type id="highway.cycleway" priority="1" speed="8.33" allow="bicycle" oneway="0" width="1.00"/>
    <type id="highway.footway" priority="1" speed="2.78" allow="pedestrian" oneway="1" width="2.00"/>
    <type id="highway.ford" priority="1" speed="2.78" allow="army" oneway="0"/>
    <type id="highway.living_street" priority="2" speed="2.78" disallow="tram rail_urban rail rail_electric rail_fast ship" oneway="0"/>
    <type id="highway.motorway" priority="14" speed="39.44" allow="private emergency authority army vip passenger hov taxi bus coach delivery truck trailer motorcycle evehicle custom1 custom2" oneway="1"/>
    <type id="highway.motorway_link" priority="9" speed="22.22" allow="private emergency authority army vip passenger hov taxi bus coach delivery truck trailer motorcycle evehicle custom1 custom2" oneway="1"/>
    <type id="highway.path" priority="1" speed="2.78" allow="pedestrian bicycle" oneway="0" width="2.00"/>
    <type id="highway.pedestrian" priority="1" speed="2.78" allow="pedestrian" oneway="1" width="2.00"/>
    <type id="highway.primary" priority="12" speed="27.78" disallow="pedestrian tram rail_urban rail rail_electric rail_fast ship" oneway="0"/>
    <type id="highway.primary_link" priority="7" speed="22.22" disallow="pedestrian tram rail_urban rail rail_electric rail_fast ship" oneway="0"/>
    <type id="highway.raceway" priority="15" speed="83.33" allow="vip" oneway="0"/>
    <type id="highway.residential" priority="3" speed="13.89" disallow="pedestrian tram rail_urban rail rail_electric rail_fast ship" oneway="0"/>
    <type id="highway.secondary" priority="11" speed="27.78" disallow="pedestrian tram rail_urban rail rail_electric rail_fast ship" oneway="0"/>
    <type id="highway.secondary_link" priority="6" speed="22.22" disallow="pedestrian tram rail_urban rail rail_electric rail_fast ship" oneway="0"/>
    <type id="highway.service" priority="1" speed="5.56" allow="pedestrian delivery bicycle" oneway="0"/>
    <type id="highway.stairs" priority="1" speed="1.39" allow="pedestrian" oneway="1" width="2.00"/>
    <type id="highway.step" priority="1" speed="1.39" allow="pedestrian" oneway="1" width="2.00"/>
    <type id="highway.steps" priority="1" speed="1.39" allow="pedestrian" oneway="1" width="2.00"/>
    <type id="highway.tertiary" priority="10" speed="22.22" disallow="pedestrian tram rail_urban rail rail_electric rail_fast ship" oneway="0"/>
    <type id="highway.tertiary_link" priority="5" speed="22.22" disallow="pedestrian tram rail_urban rail rail_electric rail_fast ship" oneway="0"/>
    <type id="highway.track" priority="1" speed="5.56" allow="pedestrian motorcycle moped bicycle" oneway="0"/>
    <type id="highway.trunk" priority="13" speed="27.78" disallow="pedestrian bicycle tram rail_urban rail rail_electric rail_fast ship" oneway="0"/>
    <type id="highway.trunk_link" priority="8" speed="22.22" disallow="pedestrian bicycle tram rail_urban rail rail_electric rail_fast ship" oneway="0"/>
    <type id="highway.unclassified" priority="4" speed="13.89" disallow="pedestrian tram rail_urban rail rail_electric rail_fast ship" oneway="0"/>
    <type id="highway.unsurfaced" priority="1" speed="8.33" disallow="tram rail_urban rail rail_electric rail_fast ship" oneway="0"/>
    <type id="railway.highspeed" priority="21" speed="69.44" allow="rail_fast" oneway="1"/>
    <type id="railway.light_rail" priority="19" speed="27.78" allow="rail_urban" oneway="1"/>
    <type id="railway.preserved" priority="16" speed="27.78" allow="rail" oneway="1"/>
    <type id="railway.rail" priority="20" speed="44.44" allow="rail" oneway="1"/>
    <type id="railway.subway" priority="18" speed="27.78" allow="rail_urban" oneway="1"/>
    <type id="railway.tram" priority="17" speed="13.89" allow="tram" oneway="1"/>

    <edge id=":35_0" function="internal">
        <lane id=":35_0_0" index="0" disallow="pedestrian tram rail_urban rail rail_electric rail_fast ship" speed="17.08" length="21.41" width="3.50" shape="-239.85,747.98 -240.20,747.88 -241.97,746.84 -246.20,744.97 -253.91,742.14 -259.74,740.18"/>
    </edge>
    <edge id=":35_1" function="internal">
        <lane id=":35_1_0" index="0" disallow="pedestrian tram rail_urban rail rail_electric rail_fast ship" speed="36.11" length="24.92" width="3.50" shape="-235.77,746.98 -251.21,742.78 -259.74,740.18"/>
    </edge>
    <edge id=":35_2" function="internal">
        <lane id=":35_2_0" index="0" disallow="pedestrian tram rail_urban rail rail_electric rail_fast ship" speed="36.11" length="24.37" width="3.50" shape="-257.47,733.56 -249.21,736.07 -234.03,740.22"/>
        <lane id=":35_2_1" index="1" disallow="pedestrian tram rail_urban rail rail_electric rail_fast ship" speed="36.11" length="24.67" width="3.50" shape="-258.64,736.86 -250.17,739.43 -234.91,743.59"/>
    </edge>
    <edge id=":36_0" function="internal">
        <lane id=":36_0_0" index="0" disallow="pedestrian tram rail_urban rail rail_electric rail_fast ship" speed="36.11" length="39.01" width="3.50" shape="-353.77,689.32 -365.17,682.35 -386.90,668.72"/>
    </edge>
    <edge id=":36_1" function="internal">
        <lane id=":36_1_0" index="0" disallow="pedestrian tram rail_urban rail rail_electric rail_fast ship" speed="12.35" length="33.89" width="3.50" shape="-353.77,689.32 -354.86,688.63 -356.92,687.15 -358.87,685.45 -360.63,683.51 -362.13,681.37 -362.78,680.16 -363.33,678.93 -363.77,677.66 -364.10,676.35 -364.33,675.03 -364.44,673.66 -364.38,671.05 -363.99,668.47 -363.32,665.97 -362.43,663.57 -360.82,660.19"/>
    </edge>
    <edge id=":36_2" function="internal">
        <lane id=":36_2_0" index="0" disallow="pedestrian tram rail_urban rail rail_electric rail_fast ship" speed="11.36" length="28.50" width="3.50" shape="-357.74,661.84 -359.15,664.79 -359.91,666.85 -360.48,668.97 -360.82,671.14 -360.88,673.33 -360.79,674.42 -360.61,675.51 -360.35,676.57 -359.99,677.61 -359.55,678.62 -359.04,679.58 -357.79,681.39 -356.32,683.01 -354.66,684.46 -352.88,685.74 -351.96,686.33"/>
    </edge>
    <edge id=":36_3" function="internal">
        <lane id=":36_3_0" index="0" disallow="pedestrian tram rail_urban rail rail_electric rail_fast ship" speed="11.97" length="34.87" width="3.50" shape="-357.74,661.84 -359.04,664.06 -360.54,666.22 -362.28,668.23 -364.27,670.03 -365.41,670.85 -366.60,671.55 -367.85,672.16 -369.17,672.64 -370.53,672.99 -371.91,673.21 -373.30,673.30 -374.68,673.27 -376.07,673.13 -378.67,672.57 -381.18,671.71 -383.58,670.62 -386.90,668.72"/>
    </edge>
    <edge id=":36_4" function="internal">
        <lane id=":36_4_0" index="0" disallow="pedestrian tram rail_urban rail rail_electric rail_fast ship" speed="10.96" length="29.02" width="3.50" shape="-385.04,665.75 -382.14,667.42 -380.10,668.34 -377.99,669.07 -375.81,669.55 -374.70,669.67 -373.58,669.70 -372.47,669.63 -371.36,669.46 -370.28,669.18 -369.23,668.80 -368.22,668.32 -367.25,667.76 -366.34,667.11 -364.68,665.62 -363.22,663.93 -361.94,662.10 -360.82,660.19"/>
    </edge>
    <edge id=":36_5" function="internal">
        <lane id=":36_5_0" index="0" disallow="pedestrian tram rail_urban rail rail_electric rail_fast ship" speed="36.11" length="38.96" width="3.50" shape="-385.04,665.75 -363.33,679.37 -351.96,686.33"/>
    </edge>
    <edge id=":37_0" function="internal">
        <lane id=":37_0_0" index="0" disallow="pedestrian tram rail_urban rail rail_electric rail_fast ship" speed="36.11" length="21.05" width="3.50" shape="-217.29,749.11 -223.35,748.30 -232.04,747.51 -236.09,746.84 -238.14,746.36"/>
    </edge>
    <edge id=":37_1" function="internal">
        <lane id=":37_1_0" index="0" disallow="pedestrian tram rail_urban rail rail_electric rail_fast ship" speed="8.98" length="18.92" width="3.50" shape="-226.14,735.93 -227.34,741.25 -228.06,742.93 -229.08,744.45 -229.94,745.31 -230.94,746.00 -232.06,746.49 -233.86,746.84 -235.69,746.82 -238.14,746.36"/>
    </edge>
    <edge id=":37_2" function="internal">
        <lane id=":37_2_0" index="0" disallow="pedestrian tram rail_urban rail rail_electric rail_fast ship" speed="6.72" length="10.14" width="3.49" shape="-236.38,739.59 -233.98,740.06 -232.80,740.10 -231.64,739.90 -231.10,739.66 -230.65,739.28 -230.33,738.78 -229.58,735.30"/>
    </edge>
    <edge id=":37_3" function="internal">
        <lane id=":37_3_0" index="0" disallow="pedestrian tram rail_urban rail rail_electric rail_fast ship" speed="36.11" length="26.56" width="3.47" shape="-236.37,739.58 -231.88,740.99 -223.16,744.13 -219.19,745.21 -210.85,746.67"/>
    </edge>
    <edge id=":37_4" function="internal">
        <lane id=":37_4_0" index="0" disallow="pedestrian tram rail_urban rail rail_electric rail_fast ship" speed="10.31" length="11.97" width="3.50" shape="-234.72,743.64 -234.11,743.82 -233.52,744.02 -232.94,744.25 -232.39,744.50 -231.85,744.78 -231.33,745.09 -230.83,745.42 -230.35,745.78 -229.88,746.16 -229.43,746.57 -229.00,747.00 -228.59,747.46 -228.20,747.95 -227.82,748.46 -227.46,749.00 -227.12,749.56 -226.80,750.15 -226.49,750.77 -226.20,751.41"/>
    </edge>
    <edge id=":37_5" function="internal">
        <lane id=":37_5_0" index="0" disallow="pedestrian tram rail_urban rail rail_electric rail_fast ship" speed="6.06" length="9.75" width="3.50" shape="-234.74,752.07 -232.80,748.98 -233.09,748.46 -234.08,747.77 -236.34,746.88 -238.14,746.36"/>
    </edge>
    <edge id=":39_0" function="internal">
        <lane id=":39_0_0" index="0" disallow="pedestrian tram rail_urban rail rail_electric rail_fast ship" speed="36.11" length="7.33" width="3.50" shape="-299.71,716.56 -298.02,717.31 -292.95,719.39"/>
        <lane id=":39_0_1" index="1" disallow="pedestrian tram rail_urban rail rail_electric rail_fast ship" speed="36.11" length="7.54" width="3.50" shape="-300.27,717.55 -294.32,721.34 -293.90,721.59"/>
    </edge>
    <edge id=":40_0" function="internal">
        <lane id=":40_0_0" index="0" disallow="pedestrian tram rail_urban rail rail_electric rail_fast ship" speed="16.63" length="9.96" width="3.47" shape="-236.60,757.43 -236.68,756.70 -236.75,756.03 -236.82,755.43 -236.89,754.89 -236.96,754.38 -237.03,753.92 -237.12,753.49 -237.21,753.09 -237.32,752.70 -237.44,752.32 -237.58,751.95 -237.75,751.57 -237.94,751.18 -238.15,750.76 -238.40,750.33 -238.68,749.85 -239.00,749.34 -239.35,748.77 -239.74,748.15"/>
    </edge>
    <edge id=":5_0" function="internal">
        <lane id=":5_0_0" index="0" disallow="pedestrian tram rail_urban rail rail_electric rail_fast ship" speed="36.11" length="2.99" width="3.50" shape="-309.94,715.61 -312.53,714.11"/>
    </edge>
    <edge id=":9_0" function="internal">
        <lane id=":9_0_0" index="0" disallow="pedestrian tram rail_urban rail rail_electric rail_fast ship" speed="36.11" length="0.10" width="3.50" shape="-285.77,729.93 -285.77,729.93"/>
    </edge>

    <edge id="53152" from="37" to="22" priority="3" type="highway.residential" spreadType="center" length="2.27" shape="-230.39,744.18 -229.15,733.07">
        <lane id="53152_0" index="0" disallow="pedestrian tram rail_urban rail rail_electric rail_fast ship" speed="36.11" length="2.27" width="3.49" customShape="1" shape="-229.58,735.30 -229.15,733.07"/>
    </edge>
    <edge id="53153" from="34" to="37" priority="3" type="highway.residential" spreadType="center" length="2.24" shape="-225.71,733.73 -226.97,744.58">
        <lane id="53153_0" index="0" disallow="pedestrian tram rail_urban rail rail_electric rail_fast ship" speed="36.11" length="2.24" width="3.50" customShape="1" shape="-225.71,733.73 -226.14,735.93"/>
    </edge>
    <edge id="53178" from="35" to="9" priority="3" type="highway.residential" spreadType="center" length="27.99" shape="-247.05,743.97 -285.77,729.93">
        <lane id="53178_0" index="0" disallow="pedestrian tram rail_urban rail rail_electric rail_fast ship" speed="36.11" length="27.99" width="3.50" customShape="1" shape="-259.74,740.18 -265.15,738.33 -274.35,734.83 -285.77,729.93"/>
    </edge>
    <edge id="53180" from="39" to="35" priority="3" type="highway.residential" spreadType="center" length="38.21" shape="-296.22,717.67 -244.97,739.17">
        <lane id="53180_0" index="0" disallow="pedestrian tram rail_urban rail rail_electric rail_fast ship" speed="36.11" length="38.21" width="3.50" customShape="1" shape="-292.89,719.26 -271.81,728.30 -262.85,731.72 -257.47,733.56"/>
        <lane id="53180_1" index="1" disallow="pedestrian tram rail_urban rail rail_electric rail_fast ship" speed="36.11" length="38.49" width="3.50" customShape="1" shape="-294.29,722.47 -273.05,731.58 -263.97,735.04 -258.61,736.87"/>
    </edge>
    <edge id="53182" from="36" to="14" priority="3" type="highway.residential" spreadType="center" length="70.00" shape="-366.83,673.58 -446.01,631.39">
        <lane id="53182_0" index="0" disallow="pedestrian tram rail_urban rail rail_electric rail_fast ship" speed="36.11" length="70.00" width="3.50" customShape="1" shape="-386.90,668.72 -402.50,658.64 -419.77,646.62 -428.12,641.07 -434.98,636.92 -441.16,633.61 -446.01,631.39"/>
    </edge>
    <edge id="53183" from="31" to="36" priority="3" type="highway.residential" spreadType="center" length="70.05" shape="-444.14,628.40 -365.19,670.50">
        <lane id="53183_0" index="0" disallow="pedestrian tram rail_urban rail rail_electric rail_fast ship" speed="36.11" length="70.05" width="3.50" customShape="1" shape="-444.14,628.40 -439.62,630.46 -433.33,633.84 -426.37,638.03 -417.95,643.62 -400.63,655.68 -385.00,665.78"/>
    </edge>
    <edge id="53185" from="40" to="35" priority="3" type="highway.residential" spreadType="center" length="0.20">
        <lane id="53185_0" index="0" disallow="pedestrian tram rail_urban rail rail_electric rail_fast ship" speed="36.11" length="0.20" width="3.47" customShape="1" shape="-239.74,748.15 -239.85,747.98"/>
    </edge>
    <edge id="53199" from="37" to="35" priority="3" type="highway.residential" spreadType="center" length="0.20" shape="-228.65,745.85 -246.70,744.04">
        <lane id="53199_0" index="0" disallow="pedestrian tram rail_urban rail rail_electric rail_fast ship" speed="36.11" length="0.20" width="3.50" customShape="1" shape="-235.58,747.03 -235.77,746.98"/>
    </edge>
    <edge id="53201" from="35" to="37" priority="3" type="highway.residential" spreadType="center" length="0.20" shape="-246.18,738.82 -227.64,740.75">
        <lane id="53201_0" index="0" disallow="pedestrian tram rail_urban rail rail_electric rail_fast ship" speed="36.11" length="0.21" width="3.50" customShape="1" shape="-234.03,740.22 -233.83,740.27"/>
        <lane id="53201_1" index="1" disallow="pedestrian tram rail_urban rail rail_electric rail_fast ship" speed="36.11" length="0.20" width="3.50" customShape="1" shape="-234.91,743.59 -234.72,743.64"/>
    </edge>
    <edge id="53235" from="19" to="36" priority="3" type="highway.residential" spreadType="center" length="70.02" shape="-310.85,629.74 -364.98,673.41">
        <lane id="53235_0" index="0" disallow="pedestrian tram rail_urban rail rail_electric rail_fast ship" speed="36.11" length="70.02" width="3.50" customShape="1" shape="-310.85,629.74 -317.46,625.54 -320.45,623.80 -322.69,622.78 -325.05,622.07 -327.00,621.80 -328.97,621.85 -329.92,622.11 -330.78,622.59 -331.93,623.53 -333.31,624.94 -336.98,628.94 -340.41,633.14 -343.88,637.93 -347.38,643.31 -351.13,649.68 -357.75,661.86"/>
    </edge>
    <edge id="53236" from="36" to="15" priority="3" type="highway.residential" spreadType="center" length="70.00" shape="-367.23,670.74 -313.80,623.73">
        <lane id="53236_0" index="0" disallow="pedestrian tram rail_urban rail rail_electric rail_fast ship" speed="36.11" length="70.00" width="3.50" customShape="1" shape="-360.82,660.19 -353.95,647.56 -350.00,640.90 -346.30,635.28 -342.60,630.26 -338.93,625.87 -334.97,621.65 -333.30,620.18 -331.82,619.21 -330.63,618.69 -329.32,618.38 -326.95,618.30 -324.66,618.58 -321.95,619.33 -319.41,620.42 -316.15,622.23 -313.80,623.73"/>
    </edge>
    <edge id="53273" from="41" to="37" priority="3" type="highway.residential" spreadType="center" length="0.20">
        <lane id="53273_0" index="0" disallow="pedestrian tram rail_urban rail rail_electric rail_fast ship" speed="36.11" length="0.20" width="3.44" customShape="1" shape="-234.86,752.23 -234.74,752.07"/>
    </edge>
    <edge id="53310" from="5" to="36" priority="3" type="highway.residential" spreadType="center" length="48.13" shape="-311.23,714.86 -367.12,673.40">
        <lane id="53310_0" index="0" disallow="pedestrian tram rail_urban rail rail_electric rail_fast ship" speed="36.11" length="48.13" width="3.50" customShape="1" shape="-312.53,714.11 -319.14,710.33 -353.78,689.31"/>
    </edge>
    <edge id="53311" from="36" to="39" priority="3" type="highway.residential" spreadType="center" length="60.38" shape="-365.08,670.56 -296.22,717.67">
        <lane id="53311_0" index="0" disallow="pedestrian tram rail_urban rail rail_electric rail_fast ship" speed="36.11" length="60.38" width="3.50" customShape="1" shape="-351.96,686.33 -317.39,707.30 -300.08,717.21"/>
    </edge>
    <edge id="53313" from="33" to="37" priority="3" type="highway.residential" spreadType="center" length="4.26" shape="-213.09,749.82 -229.25,745.75">
        <lane id="53313_0" index="0" disallow="pedestrian tram rail_urban rail rail_electric rail_fast ship" speed="36.11" length="4.26" width="3.50" customShape="1" shape="-213.09,749.82 -217.29,749.11"/>
    </edge>
    <edge id="53314" from="37" to="23" priority="3" type="highway.residential" spreadType="center" length="0.19" shape="-228.41,742.39 -212.50,746.39">
        <lane id="53314_0" index="0" disallow="pedestrian tram rail_urban rail rail_electric rail_fast ship" speed="36.11" length="0.19" width="3.47" customShape="1" shape="-210.85,746.67 -210.66,746.70"/>
    </edge>
    <edge id="53463" from="9" to="5" priority="3" type="highway.residential" spreadType="center" length="28.12">
        <lane id="53463_0" index="0" disallow="pedestrian tram rail_urban rail rail_electric rail_fast ship" speed="36.11" length="28.12" width="3.50" customShape="1" shape="-285.77,729.93 -290.52,727.60 -296.01,724.41 -308.49,716.45 -309.94,715.61"/>
    </edge>
    <edge id="53467" from="41" to="40" priority="3" type="highway.residential" spreadType="center" length="0.20">
        <lane id="53467_0" index="0" disallow="pedestrian tram rail_urban rail rail_electric rail_fast ship" speed="36.11" length="0.20" width="3.50" customShape="1" shape="-236.58,757.63 -236.60,757.43"/>
    </edge>
    <edge id="53529" from="37" to="38" priority="3" type="highway.residential" spreadType="center" length="5.43">
        <lane id="53529_0" index="0" disallow="pedestrian tram rail_urban rail rail_electric rail_fast ship" speed="36.11" length="5.43" width="3.50" customShape="1" shape="-226.20,751.41 -226.07,751.72 -225.64,753.36 -225.40,755.62 -225.40,756.75"/>
    </edge>

    <junction id="14" type="dead_end" x="-446.01" y="631.39" incLanes="53182_0" intLanes="" shape="-446.74,632.98 -445.28,629.80" rightOfWay="edgePriority"/>
    <junction id="15" type="dead_end" x="-313.80" y="623.73" incLanes="53236_0" intLanes="" shape="-312.86,622.25 -314.74,625.20" rightOfWay="edgePriority"/>
    <junction id="19" type="dead_end" x="-310.85" y="629.74" incLanes="" intLanes="" shape="-309.91,628.27 -311.79,631.22" rightOfWay="edgePriority"/>
    <junction id="22" type="dead_end" x="-229.15" y="733.07" incLanes="53152_0" intLanes="" shape="-230.86,732.73 -227.43,733.40" rightOfWay="edgePriority"/>
    <junction id="23" type="dead_end" x="-212.50" y="746.39" incLanes="53314_0" intLanes="" shape="-212.21,744.68 -212.79,748.09" rightOfWay="edgePriority"/>
    <junction id="31" type="dead_end" x="-444.14" y="628.40" incLanes="" intLanes="" shape="-444.87,629.99 -443.41,626.81" rightOfWay="edgePriority"/>
    <junction id="33" type="dead_end" x="-213.09" y="749.82" incLanes="" intLanes="" shape="-212.80,748.10 -213.38,751.55" rightOfWay="edgePriority"/>
    <junction id="34" type="dead_end" x="-225.71" y="733.73" incLanes="" intLanes="" shape="-227.43,733.40 -224.00,734.07" rightOfWay="edgePriority"/>
    <junction id="35" type="priority" x="-246.53" y="742.30" incLanes="53185_0 53199_0 53180_0 53180_1" intLanes=":35_0_0 :35_1_0 :35_2_0 :35_2_1" shape="-238.35,753.55 -235.42,751.68 -233.71,749.32 -231.04,739.21 -256.91,731.91 -260.31,741.84">
        <request index="0" response="0010" foes="0010" cont="0"/>
        <request index="1" response="0000" foes="0001" cont="0"/>
        <request index="2" response="0000" foes="0000" cont="0"/>
        <request index="3" response="0000" foes="0000" cont="0"/>
    </junction>
    <junction id="36" type="priority" x="-366.04" y="672.02" incLanes="53310_0 53235_0 53183_0" intLanes=":36_0_0 :36_1_0 :36_2_0 :36_3_0 :36_4_0 :36_5_0" shape="-354.68,690.82 -351.05,684.83 -354.78,682.04 -357.37,678.89 -358.81,675.38 -359.09,671.51 -358.23,667.28 -356.21,662.70 -362.36,659.35 -365.08,663.39 -368.17,666.14 -371.60,667.61 -375.40,667.79 -379.55,666.69 -384.05,664.31 -387.85,670.19">
        <request index="0" response="000000" foes="001000" cont="0"/>
        <request index="1" response="110000" foes="111000" cont="0"/>
        <request index="2" response="100000" foes="100000" cont="0"/>
        <request index="3" response="100011" foes="100011" cont="0"/>
        <request index="4" response="000000" foes="000010" cont="0"/>
        <request index="5" response="000000" foes="001110" cont="0"/>
    </junction>
    <junction id="37" type="priority" x="-228.65" y="744.10" incLanes="53313_0 53153_0 53201_0 53201_1 53273_0" intLanes=":37_0_0 :37_1_0 :37_2_0 :37_3_0 :37_4_0 :37_5_0" shape="-227.92,751.85 -204.91,745.93 -224.42,736.25 -231.30,734.99 -232.15,737.06 -232.84,737.68 -233.70,738.03 -234.73,738.10 -235.93,737.89 -238.58,748.05 -236.72,748.97 -236.28,749.62 -236.18,750.40 -236.44,751.29 -237.03,752.31 -234.23,754.31 -232.77,752.45 -231.48,751.17 -230.34,750.47 -229.37,750.35 -228.56,750.81">
        <request index="0" response="000000" foes="110010" cont="0"/>
        <request index="1" response="111001" foes="111001" cont="0"/>
        <request index="2" response="000000" foes="000000" cont="0"/>
        <request index="3" response="000000" foes="000010" cont="0"/>
        <request index="4" response="000001" foes="000011" cont="0"/>
        <request index="5" response="000001" foes="000011" cont="0"/>
    </junction>
    <junction id="38" type="dead_end" x="-225.40" y="756.75" incLanes="53529_0" intLanes="" shape="-223.65,756.75 -227.15,756.75"/>
    <junction id="39" type="priority" x="-296.22" y="717.67" incLanes="53311_0" intLanes=":39_0_0 :39_0_1" shape="-294.98,724.08 -292.20,717.65 -294.80,716.91 -295.77,716.81 -296.73,716.68 -297.83,716.36 -299.21,715.69 -300.95,718.73 -298.67,720.65 -298.04,721.56 -297.39,722.43 -296.46,723.27">
        <request index="0" response="00" foes="00" cont="0"/>
        <request index="1" response="00" foes="00" cont="0"/>
    </junction>
    <junction id="40" type="priority" x="-239.33" y="748.80" incLanes="53467_0" intLanes=":40_0_0" shape="-240.11,751.03 -237.12,749.19 -238.67,746.61 -241.60,748.48">
        <request index="0" response="0" foes="0" cont="0"/>
    </junction>
    <junction id="41" type="dead_end" x="-235.73" y="760.26" incLanes="" intLanes="" shape="-232.57,751.99 -235.37,749.98 -235.88,750.46 -236.12,750.50 -236.36,750.40 -236.59,750.18 -236.81,749.82 -240.44,750.38 -239.18,752.48 -237.91,753.85 -236.60,754.48 -235.28,754.38 -233.94,753.55"/>
    <junction id="5" type="priority" x="-311.23" y="714.86" incLanes="53463_0" intLanes=":5_0_0" shape="-310.82,717.12 -309.06,714.10 -311.66,712.60 -313.40,715.63" rightOfWay="edgePriority">
        <request index="0" response="0" foes="0" cont="0"/>
    </junction>
    <junction id="9" type="priority" x="-285.77" y="729.93" incLanes="53178_0" intLanes=":9_0_0" shape="-286.42,731.56 -285.04,728.34 -286.59,731.48" rightOfWay="edgePriority">
        <request index="0" response="0" foes="0" cont="0"/>
    </junction>

    <connection from="53153" to="53199" fromLane="0" toLane="0" contPos="-4.00" shape="-226.71,738.85 -227.34,741.25 -228.06,742.93 -229.08,744.45 -229.94,745.31 -230.94,746.00 -232.06,746.49 -233.86,746.84 -235.69,746.82 -238.09,746.37" via=":37_1_0" dir="l" state="m"/>
    <connection from="53178" to="53463" fromLane="0" toLane="0" contPos="-4.00" via=":9_0_0" dir="s" state="M"/>
    <connection from="53180" to="53201" fromLane="0" toLane="0" contPos="-4.00" shape="-257.57,733.53 -249.21,736.07 -236.54,739.54" via=":35_2_0" dir="s" state="M"/>
    <connection from="53180" to="53201" fromLane="1" toLane="1" contPos="-4.00" shape="-258.64,736.86 -250.17,739.43 -237.44,742.92" via=":35_2_1" dir="s" state="M"/>
    <connection from="53183" to="53236" fromLane="0" toLane="0" contPos="-4.00" shape="-385.04,665.75 -382.14,667.42 -380.10,668.34 -377.99,669.07 -375.81,669.55 -374.70,669.67 -373.58,669.70 -372.47,669.63 -371.36,669.46 -370.28,669.18 -369.23,668.80 -368.22,668.32 -367.25,667.76 -366.34,667.11 -364.68,665.62 -363.22,663.93 -361.94,662.10 -360.82,660.19" via=":36_4_0" dir="r" state="M"/>
    <connection from="53183" to="53311" fromLane="0" toLane="0" contPos="-4.00" shape="-385.04,665.75 -363.33,679.37 -351.96,686.33" via=":36_5_0" dir="s" state="M"/>
    <connection from="53185" to="53178" fromLane="0" toLane="0" contPos="-4.00" shape="-239.46,748.59 -240.20,747.88 -241.97,746.84 -246.20,744.97 -253.91,742.14 -259.74,740.18" via=":35_0_0" dir="s" state="m"/>
    <connection from="53199" to="53178" fromLane="0" toLane="0" contPos="-4.00" shape="-238.34,746.31 -251.21,742.78 -259.74,740.18" via=":35_1_0" dir="s" state="M"/>
    <connection from="53201" to="53152" fromLane="0" toLane="0" contPos="-4.00" shape="-236.29,739.61 -233.98,740.06 -232.80,740.10 -231.64,739.90 -231.10,739.66 -230.65,739.28 -230.33,738.78 -230.14,738.20" via=":37_2_0" dir="r" state="M"/>
    <connection from="53201" to="53314" fromLane="0" toLane="0" contPos="-4.00" shape="-236.29,739.61 -231.88,740.99 -223.16,744.13 -219.19,745.21 -217.66,745.50" via=":37_3_0" dir="s" state="M"/>
    <connection from="53201" to="53529" fromLane="1" toLane="0" contPos="-4.00" via=":37_4_0" dir="l" state="m"/>
    <connection from="53235" to="53311" fromLane="0" toLane="0" contPos="-4.00" shape="-357.74,661.84 -359.15,664.79 -359.91,666.85 -360.48,668.97 -360.82,671.14 -360.88,673.33 -360.79,674.42 -360.61,675.51 -360.35,676.57 -359.99,677.61 -359.55,678.62 -359.04,679.58 -357.79,681.39 -356.32,683.01 -354.66,684.46 -352.88,685.74 -351.96,686.33" via=":36_2_0" dir="r" state="m"/>
    <connection from="53235" to="53182" fromLane="0" toLane="0" contPos="-4.00" shape="-357.74,661.84 -359.04,664.06 -360.54,666.22 -362.28,668.23 -364.27,670.03 -365.41,670.85 -366.60,671.55 -367.85,672.16 -369.17,672.64 -370.53,672.99 -371.91,673.21 -373.30,673.30 -374.68,673.27 -376.07,673.13 -378.67,672.57 -381.18,671.71 -383.58,670.62 -386.90,668.72" via=":36_3_0" dir="l" state="m"/>
    <connection from="53273" to="53199" fromLane="0" toLane="0" contPos="-4.00" shape="-232.94,749.55 -232.80,748.98 -233.09,748.46 -234.08,747.77 -236.34,746.88 -238.09,746.37" via=":37_5_0" dir="r" state="m"/>
    <connection from="53310" to="53182" fromLane="0" toLane="0" contPos="-4.00" shape="-353.78,689.31 -365.17,682.35 -386.90,668.72" via=":36_0_0" dir="s" state="M"/>
    <connection from="53310" to="53236" fromLane="0" toLane="0" contPos="-4.00" shape="-353.78,689.31 -354.86,688.63 -356.92,687.15 -358.87,685.45 -360.63,683.51 -362.13,681.37 -362.78,680.16 -363.33,678.93 -363.77,677.66 -364.10,676.35 -364.33,675.03 -364.44,673.66 -364.38,671.05 -363.99,668.47 -363.32,665.97 -362.43,663.57 -360.82,660.19" via=":36_1_0" dir="l" state="m"/>