<routes>
	<vehicle depart="0.1" departLane="0" departPos="7.296461153353642" departSpeed="0.26380578" id="30" type="passenger">
		<route edges=":36_1 53236"/>
	</vehicle>
	<vehicle depart="0.1" departLane="0" departPos="47.22042251227676" departSpeed="0.25801918" id="33" type="passenger">
		<route edges="53310 53182"/>
	</vehicle>
	<vehicle depart="0.1" departLane="0" departPos="39.419201553177444" departSpeed="0.69458573" id="34" type="passenger">
		<route edges="53310 53182"/>
	</vehicle>
	<vehicle depart="0.1" departLane="0" departPos="24.889106679270448" departSpeed="0.99228817" id="38" type="passenger">
		<route edges="53310 53182"/>
	</vehicle>
	<vehicle depart="0.1" departLane="0" departPos="12.264803277302589" departSpeed="1.4578466" id="312" type="passenger">
		<route edges=":36_3 53182"/>
	</vehicle>
	<vehicle depart="0.1" departLane="0" departPos="25.66502125868251" departSpeed="14.095722" id="333" type="passenger">
		<route edges=":36_5 53311 53180"/>
	</vehicle>
	<vehicle depart="0.1" departLane="0" departPos="10.354134678017303" departSpeed="14.259158" id="335" type="passenger">
		<route edges=":36_5 53311 53180"/>
	</vehicle>
	<vehicle depart="0.1" departLane="0" departPos="31.612228928183338" departSpeed="10.251881" id="341" type="passenger">
		<route edges="53183 53311"/>
	</vehicle>
	<vehicle depart="0.1" departLane="0" departPos="29.83285471781836" departSpeed="1.5500437" id="35" type="motorcycle">
		<route edges="53310 53182"/>
	</vehicle>
	<vehicle depart="0.1" departLane="0" departPos="1.25" departSpeed="16.816719" id="332" type="motorcycle">
		<route edges="53311 53180"/>
	</vehicle>
</routes>
