<!-- generated on Tue Feb  9 22:05:56 2021 by Eclipse SUMO netconvert Version 1.8.0
<configuration xmlns:xsi="http://www.w3.org/2001/XMLSchema-instance" xsi:noNamespaceSchemaLocation="http://sumo.dlr.de/xsd/netconvertConfiguration.xsd">

    <input>
        <node-files value="./converted_scenarios/scenario-factory/DEU_Guetersloh-16_3_I-1-1/DEU_Guetersloh-16_3_I-1-1.nod.xml"/>
        <edge-files value="./converted_scenarios/scenario-factory/DEU_Guetersloh-16_3_I-1-1/DEU_Guetersloh-16_3_I-1-1.edg.xml"/>
        <connection-files value="./converted_scenarios/scenario-factory/DEU_Guetersloh-16_3_I-1-1/DEU_Guetersloh-16_3_I-1-1.con.xml"/>
        <tllogic-files value="./converted_scenarios/scenario-factory/DEU_Guetersloh-16_3_I-1-1/DEU_Guetersloh-16_3_I-1-1.tll.xml"/>
        <type-files value="/home/zen/commonroad-interactive-benchmarks/install/commonroad-map-tool/crmapconverter/sumo_map/templates/DEU.typ.xml"/>
    </input>

    <output>
        <output-file value="./converted_scenarios/scenario-factory/DEU_Guetersloh-16_3_I-1-1/DEU_Guetersloh-16_3_I-1-1.net.xml"/>
    </output>

    <processing>
        <geometry.remove.keep-edges.explicit value="true"/>
        <geometry.avoid-overlap value="true"/>
        <offset.disable-normalization value="true"/>
    </processing>

    <junctions>
        <no-turnarounds value="true"/>
        <junctions.internal-link-detail value="20"/>
    </junctions>

    <report>
        <aggregate-warnings value="5"/>
    </report>

    <random_number>
        <seed value="1234"/>
    </random_number>

</configuration>
--><net xmlns:xsi="http://www.w3.org/2001/XMLSchema-instance" version="1.6" junctionCornerDetail="5" junctionLinkDetail="20" limitTurnSpeed="5.50" xsi:noNamespaceSchemaLocation="http://sumo.dlr.de/xsd/net_file.xsd">

    <location netOffset="0.00,0.00" convBoundary="-46.92,117.03,212.84,307.81" origBoundary="-46.92,117.03,212.84,307.81" projParameter="!"/>

    <type id="highway.bridleway" priority="1" speed="2.78" allow="pedestrian" oneway="1" width="2.00"/>
    <type id="highway.bus_guideway" priority="1" speed="27.78" allow="bus" oneway="1"/>
    <type id="highway.cycleway" priority="1" speed="8.33" allow="bicycle" oneway="0" width="1.00"/>
    <type id="highway.footway" priority="1" speed="2.78" allow="pedestrian" oneway="1" width="2.00"/>
    <type id="highway.ford" priority="1" speed="2.78" allow="army" oneway="0"/>
    <type id="highway.living_street" priority="2" speed="2.78" disallow="tram rail_urban rail rail_electric rail_fast ship" oneway="0"/>
    <type id="highway.motorway" priority="14" speed="39.44" allow="private emergency authority army vip passenger hov taxi bus coach delivery truck trailer motorcycle evehicle custom1 custom2" oneway="1"/>
    <type id="highway.motorway_link" priority="9" speed="22.22" allow="private emergency authority army vip passenger hov taxi bus coach delivery truck trailer motorcycle evehicle custom1 custom2" oneway="1"/>
    <type id="highway.path" priority="1" speed="2.78" allow="pedestrian bicycle" oneway="0" width="2.00"/>
    <type id="highway.pedestrian" priority="1" speed="2.78" allow="pedestrian" oneway="1" width="2.00"/>
    <type id="highway.primary" priority="12" speed="27.78" disallow="pedestrian tram rail_urban rail rail_electric rail_fast ship" oneway="0"/>
    <type id="highway.primary_link" priority="7" speed="22.22" disallow="pedestrian tram rail_urban rail rail_electric rail_fast ship" oneway="0"/>
    <type id="highway.raceway" priority="15" speed="83.33" allow="vip" oneway="0"/>
    <type id="highway.residential" priority="3" speed="13.89" disallow="pedestrian tram rail_urban rail rail_electric rail_fast ship" oneway="0"/>
    <type id="highway.secondary" priority="11" speed="27.78" disallow="pedestrian tram rail_urban rail rail_electric rail_fast ship" oneway="0"/>
    <type id="highway.secondary_link" priority="6" speed="22.22" disallow="pedestrian tram rail_urban rail rail_electric rail_fast ship" oneway="0"/>
    <type id="highway.service" priority="1" speed="5.56" allow="pedestrian delivery bicycle" oneway="0"/>
    <type id="highway.stairs" priority="1" speed="1.39" allow="pedestrian" oneway="1" width="2.00"/>
    <type id="highway.step" priority="1" speed="1.39" allow="pedestrian" oneway="1" width="2.00"/>
    <type id="highway.steps" priority="1" speed="1.39" allow="pedestrian" oneway="1" width="2.00"/>
    <type id="highway.tertiary" priority="10" speed="22.22" disallow="pedestrian tram rail_urban rail rail_electric rail_fast ship" oneway="0"/>
    <type id="highway.tertiary_link" priority="5" speed="22.22" disallow="pedestrian tram rail_urban rail rail_electric rail_fast ship" oneway="0"/>
    <type id="highway.track" priority="1" speed="5.56" allow="pedestrian motorcycle moped bicycle" oneway="0"/>
    <type id="highway.trunk" priority="13" speed="27.78" disallow="pedestrian bicycle tram rail_urban rail rail_electric rail_fast ship" oneway="0"/>
    <type id="highway.trunk_link" priority="8" speed="22.22" disallow="pedestrian bicycle tram rail_urban rail rail_electric rail_fast ship" oneway="0"/>
    <type id="highway.unclassified" priority="4" speed="13.89" disallow="pedestrian tram rail_urban rail rail_electric rail_fast ship" oneway="0"/>
    <type id="highway.unsurfaced" priority="1" speed="8.33" disallow="tram rail_urban rail rail_electric rail_fast ship" oneway="0"/>
    <type id="railway.highspeed" priority="21" speed="69.44" allow="rail_fast" oneway="1"/>
    <type id="railway.light_rail" priority="19" speed="27.78" allow="rail_urban" oneway="1"/>
    <type id="railway.preserved" priority="16" speed="27.78" allow="rail" oneway="1"/>
    <type id="railway.rail" priority="20" speed="44.44" allow="rail" oneway="1"/>
    <type id="railway.subway" priority="18" speed="27.78" allow="rail_urban" oneway="1"/>
    <type id="railway.tram" priority="17" speed="13.89" allow="tram" oneway="1"/>

    <edge id=":18_0" function="internal">
        <lane id=":18_0_0" index="0" disallow="pedestrian tram rail_urban rail rail_electric rail_fast ship" speed="36.11" length="3.00" width="3.50" shape="97.65,217.12 99.71,214.94"/>
    </edge>
    <edge id=":41_0" function="internal">
        <lane id=":41_0_0" index="0" disallow="pedestrian tram rail_urban rail rail_electric rail_fast ship" speed="36.11" length="2.99" width="3.50" shape="102.22,217.38 100.16,219.55"/>
    </edge>
    <edge id=":43_0" function="internal">
        <lane id=":43_0_0" index="0" disallow="pedestrian tram rail_urban rail rail_electric rail_fast ship" speed="11.13" length="29.04" width="3.50" shape="92.93,255.41 90.29,253.00 88.46,251.65 86.53,250.49 84.48,249.60 83.48,249.29 82.43,249.06 81.38,248.92 80.32,248.88 79.27,248.94 78.22,249.10 77.18,249.36 76.19,249.69 74.18,250.65 72.31,251.88 70.56,253.31 68.09,255.80"/>
    </edge>
    <edge id=":43_1" function="internal">
        <lane id=":43_1_0" index="0" disallow="pedestrian tram rail_urban rail rail_electric rail_fast ship" speed="36.11" length="41.34" width="3.50" shape="92.93,255.41 80.38,243.05 71.34,234.60 65.13,229.18 62.72,227.21"/>
    </edge>
    <edge id=":43_2" function="internal">
        <lane id=":43_2_0" index="0" disallow="pedestrian tram rail_urban rail rail_electric rail_fast ship" speed="11.15" length="27.57" width="3.50" shape="92.93,255.41 89.31,251.52 86.87,248.45 85.41,246.29 84.14,244.00 83.15,241.58 82.80,240.32 82.58,239.04 82.51,237.73 82.62,236.43 82.92,235.16 83.41,233.95 84.08,232.83 84.93,231.77"/>
    </edge>
    <edge id=":43_3" function="internal">
        <lane id=":43_3_0" index="0" disallow="pedestrian tram rail_urban rail rail_electric rail_fast ship" speed="10.00" length="22.21" width="3.50" shape="87.55,234.08 86.94,234.84 86.50,235.62 86.21,236.45 86.06,237.35 86.05,238.29 86.17,239.25 86.40,240.23 86.72,241.18 87.63,243.16 88.76,245.05 90.05,246.87 92.21,249.52 95.35,252.88"/>
    </edge>
    <edge id=":43_4" function="internal">
        <lane id=":43_4_0" index="0" disallow="pedestrian tram rail_urban rail rail_electric rail_fast ship" speed="36.11" length="29.16" width="3.50" shape="87.55,234.08 77.80,244.96 68.09,255.80"/>
    </edge>
    <edge id=":43_5" function="internal">
        <lane id=":43_5_0" index="0" disallow="pedestrian tram rail_urban rail rail_electric rail_fast ship" speed="11.41" length="28.13" width="3.50" shape="87.55,234.09 86.56,235.02 85.51,235.73 84.34,236.24 83.10,236.55 81.84,236.67 80.56,236.62 79.30,236.44 76.84,235.77 74.48,234.82 71.09,233.05 67.86,231.01 63.74,228.01 62.72,227.21"/>
    </edge>
    <edge id=":43_6" function="internal">
        <lane id=":43_6_0" index="0" disallow="pedestrian tram rail_urban rail rail_electric rail_fast ship" speed="10.26" length="22.85" width="3.50" shape="64.88,224.45 65.79,225.17 69.46,227.87 72.28,229.70 75.19,231.31 77.16,232.18 79.18,232.84 80.13,233.04 81.09,233.15 82.00,233.14 82.85,233.01 83.60,232.75 84.28,232.36 84.93,231.77"/>
    </edge>
    <edge id=":43_7" function="internal">
        <lane id=":43_7_0" index="0" disallow="pedestrian tram rail_urban rail rail_electric rail_fast ship" speed="36.11" length="41.69" width="3.50" shape="64.88,224.45 67.36,226.48 73.65,231.97 82.77,240.50 95.35,252.88"/>
    </edge>
    <edge id=":43_8" function="internal">
        <lane id=":43_8_0" index="0" disallow="pedestrian tram rail_urban rail rail_electric rail_fast ship" speed="12.31" length="36.67" width="3.50" shape="64.88,224.45 67.87,227.05 69.68,228.94 71.32,230.97 72.74,233.17 73.85,235.53 74.27,236.77 74.59,238.04 74.80,239.33 74.89,240.63 74.87,241.94 74.74,243.24 74.50,244.53 73.73,247.03 72.65,249.40 71.32,251.65 69.79,253.77 68.09,255.80"/>
    </edge>
    <edge id=":43_9" function="internal">
        <lane id=":43_9_0" index="0" disallow="pedestrian tram rail_urban rail rail_electric rail_fast ship" speed="11.32" length="30.83" width="3.50" shape="65.48,253.46 66.96,251.70 68.29,249.86 69.42,247.95 70.33,245.95 70.97,243.86 71.15,242.84 71.26,241.79 71.27,240.74 71.19,239.70 71.02,238.66 70.76,237.64 70.43,236.66 69.50,234.68 68.30,232.84 66.90,231.10 65.34,229.48 62.72,227.21"/>
    </edge>
    <edge id=":43_10" function="internal">
        <lane id=":43_10_0" index="0" disallow="pedestrian tram rail_urban rail rail_electric rail_fast ship" speed="36.11" length="29.13" width="3.50" shape="65.48,253.46 75.19,242.63 84.93,231.77"/>
    </edge>
    <edge id=":43_11" function="internal">
        <lane id=":43_11_0" index="0" disallow="pedestrian tram rail_urban rail rail_electric rail_fast ship" speed="12.14" length="34.76" width="3.50" shape="65.48,253.46 68.32,250.60 70.39,248.91 72.63,247.45 75.04,246.30 76.30,245.86 77.60,245.54 78.92,245.33 80.25,245.25 81.59,245.30 82.91,245.47 84.22,245.76 85.49,246.16 87.94,247.23 90.24,248.59 92.38,250.19 95.35,252.88"/>
    </edge>
    <edge id=":44_0" function="internal">
        <lane id=":44_0_0" index="0" disallow="pedestrian tram rail_urban rail rail_electric rail_fast ship" speed="28.94" length="34.58" width="3.50" shape="37.85,202.66 34.22,195.27 30.84,189.03 27.67,183.83 25.35,180.50 22.80,177.35 20.67,175.18 19.12,173.90"/>
    </edge>
    <edge id=":44_1" function="internal">
        <lane id=":44_1_0" index="0" disallow="pedestrian tram rail_urban rail rail_electric rail_fast ship" speed="12.59" length="32.74" width="3.50" shape="37.85,202.66 36.82,200.25 36.04,197.86 35.51,195.40 35.28,192.90 35.38,190.40 35.84,187.93 36.66,185.56 37.81,183.33 39.23,181.26 40.88,179.36 42.69,177.62 45.65,175.30 46.68,174.60"/>
    </edge>
    <edge id=":44_2" function="internal">
        <lane id=":44_2_0" index="0" disallow="pedestrian tram rail_urban rail rail_electric rail_fast ship" speed="11.61" length="27.67" width="3.50" shape="48.68,177.46 47.73,178.11 45.11,180.17 43.55,181.65 42.15,183.26 40.95,184.99 39.99,186.84 39.30,188.78 38.92,190.80 38.82,192.87 39.01,194.95 39.46,197.03 40.12,199.07 40.96,201.07"/>
    </edge>
    <edge id=":44_3" function="internal">
        <lane id=":44_3_0" index="0" disallow="pedestrian tram rail_urban rail rail_electric rail_fast ship" speed="13.72" length="31.94" width="3.50" shape="48.69,177.47 47.55,178.17 45.36,179.30 43.01,180.17 40.57,180.74 38.07,181.00 35.57,180.94 33.11,180.59 30.73,180.00 28.41,179.19 25.14,177.69 22.04,175.90 19.12,173.90"/>
    </edge>
    <edge id=":44_4" function="internal">
        <lane id=":44_4_0" index="0" disallow="pedestrian tram rail_urban rail rail_electric rail_fast ship" speed="12.80" length="27.64" width="3.50" shape="21.13,171.04 23.80,172.87 26.55,174.48 29.44,175.82 31.44,176.54 33.49,177.08 35.59,177.40 37.71,177.48 39.83,177.30 41.90,176.84 43.90,176.11 45.79,175.15 46.68,174.60"/>
    </edge>
    <edge id=":44_5" function="internal">
        <lane id=":44_5_0" index="0" disallow="pedestrian tram rail_urban rail rail_electric rail_fast ship" speed="29.60" length="36.28" width="3.50" shape="21.13,171.03 22.92,172.50 25.24,174.84 27.97,178.18 30.43,181.68 33.75,187.08 37.27,193.54 40.96,201.07"/>
    </edge>
    <edge id=":45_0" function="internal">
        <lane id=":45_0_0" index="0" disallow="pedestrian tram rail_urban rail rail_electric rail_fast ship" speed="36.11" length="24.80" width="3.50" shape="92.58,130.96 86.67,140.03 82.32,146.20 79.02,150.46 78.36,151.26"/>
    </edge>
    <edge id=":45_1" function="internal">
        <lane id=":45_1_0" index="0" disallow="pedestrian tram rail_urban rail rail_electric rail_fast ship" speed="36.11" length="32.51" width="3.50" shape="82.95,120.30 80.53,124.40 80.14,125.20 79.83,126.06 79.61,126.95 79.48,127.86 79.41,129.87 79.56,131.89 80.57,138.37 80.96,141.77 80.97,144.19 80.64,146.62 80.28,147.89 79.77,149.09 79.12,150.23 78.36,151.26"/>
    </edge>
    <edge id=":45_2" function="internal">
        <lane id=":45_2_0" index="0" disallow="pedestrian tram rail_urban rail rail_electric rail_fast ship" speed="36.11" length="32.46" width="3.50" shape="75.64,149.05 76.32,148.14 76.87,147.19 77.29,146.18 77.59,145.13 77.88,142.96 77.86,140.77 77.47,137.51 76.44,131.02 76.28,128.83 76.35,126.65 76.50,125.56 76.76,124.50 77.13,123.47 77.61,122.49 80.82,118.59"/>
    </edge>
    <edge id=":45_3" function="internal">
        <lane id=":45_3_0" index="0" disallow="pedestrian tram rail_urban rail rail_electric rail_fast ship" speed="36.11" length="24.38" width="3.49" shape="75.64,149.05 76.32,148.24 79.54,144.08 83.80,138.02 89.63,129.10"/>
    </edge>
    <edge id=":46_0" function="internal">
        <lane id=":46_0_0" index="0" disallow="pedestrian tram rail_urban rail rail_electric rail_fast ship" speed="14.37" length="34.08" width="3.50" shape="163.95,171.70 159.92,170.78 155.84,170.13 152.75,169.87 149.65,169.86 146.57,170.14 143.54,170.77 141.57,171.41 139.68,172.23 137.89,173.25 136.21,174.46 134.68,175.84 133.30,177.38 132.67,178.20"/>
    </edge>
    <edge id=":46_1" function="internal">
        <lane id=":46_1_0" index="0" disallow="pedestrian tram rail_urban rail rail_electric rail_fast ship" speed="36.11" length="31.91" width="3.50" shape="151.45,152.40 142.05,165.31 132.67,178.20"/>
    </edge>
    <edge id=":46_2" function="internal">
        <lane id=":46_2_0" index="0" disallow="pedestrian tram rail_urban rail rail_electric rail_fast ship" speed="36.11" length="31.84" width="3.45" shape="129.85,176.12 139.22,163.25 148.59,150.38"/>
    </edge>
    <edge id=":46_3" function="internal">
        <lane id=":46_3_0" index="0" disallow="pedestrian tram rail_urban rail rail_electric rail_fast ship" speed="15.21" length="38.25" width="3.50" shape="129.85,176.12 130.58,175.18 132.14,173.43 133.89,171.83 135.80,170.42 137.85,169.22 140.01,168.24 142.26,167.48 145.67,166.73 149.12,166.37 152.57,166.36 155.98,166.62 160.44,167.31 164.83,168.32"/>
    </edge>

    <edge id="70154" from="26" to="43" priority="3" type="highway.residential" spreadType="center" length="68.16" shape="155.55,277.75 77.00,243.48">
        <lane id="70154_0" index="0" disallow="pedestrian tram rail_urban rail rail_electric rail_fast ship" speed="36.11" length="68.16" width="3.50" customShape="1" shape="155.55,277.75 131.92,273.04 127.37,272.26 118.77,270.87 114.28,269.80 110.39,268.49 107.59,267.22 104.95,265.65 101.63,263.23 97.32,259.60 92.89,255.37"/>
    </edge>
    <edge id="70155" from="43" to="11" priority="3" type="highway.residential" spreadType="center" length="66.13" shape="78.40,240.27 156.24,274.32">
        <lane id="70155_0" index="0" disallow="pedestrian tram rail_urban rail rail_electric rail_fast ship" speed="36.11" length="66.13" width="3.50" customShape="1" shape="95.35,252.88 99.66,257.00 103.82,260.50 106.96,262.79 109.41,264.22 112.02,265.37 115.70,266.56 120.01,267.54 128.44,268.88 132.94,269.68 156.24,274.32"/>
    </edge>
    <edge id="70215" from="46" to="32" priority="3" type="highway.residential" spreadType="center" length="5.24" shape="146.85,165.92 151.63,146.11">
        <lane id="70215_0" index="0" disallow="pedestrian tram rail_urban rail rail_electric rail_fast ship" speed="36.11" length="5.24" width="3.45" customShape="1" shape="148.59,150.38 148.66,150.29 148.73,150.18 151.63,146.11"/>
    </edge>
    <edge id="70216" from="38" to="46" priority="3" type="highway.residential" spreadType="center" length="5.27" shape="154.48,148.11 150.22,166.73">
        <lane id="70216_0" index="0" disallow="pedestrian tram rail_urban rail rail_electric rail_fast ship" speed="36.11" length="5.27" width="3.50" customShape="1" shape="154.48,148.11 151.60,152.19 151.51,152.31 151.44,152.41"/>
    </edge>
    <edge id="70218" from="18" to="46" priority="3" type="highway.residential" spreadType="center" length="49.17" shape="98.67,216.03 147.32,164.95">
        <lane id="70218_0" index="0" disallow="pedestrian tram rail_urban rail rail_electric rail_fast ship" speed="36.11" length="49.17" width="3.50" customShape="1" shape="99.71,214.94 101.44,213.13 107.84,205.40 115.84,195.10 129.85,176.12"/>
    </edge>
    <edge id="70219" from="46" to="41" priority="3" type="highway.residential" spreadType="center" length="49.65" shape="149.85,167.36 101.19,218.46">
        <lane id="70219_0" index="0" disallow="pedestrian tram rail_urban rail rail_electric rail_fast ship" speed="36.11" length="49.65" width="3.50" customShape="1" shape="132.67,178.20 118.58,197.29 110.50,207.67 104.01,215.50 102.22,217.38"/>
    </edge>
    <edge id="70222" from="41" to="43" priority="3" type="highway.residential" spreadType="center" length="19.30" shape="101.19,218.46 78.97,243.12">
        <lane id="70222_0" index="0" disallow="pedestrian tram rail_urban rail rail_electric rail_fast ship" speed="36.11" length="19.30" width="3.50" customShape="1" shape="100.16,219.55 98.25,221.59 93.34,227.33 87.67,233.94 87.51,234.12"/>
    </edge>
    <edge id="70224" from="20" to="43" priority="3" type="highway.residential" spreadType="center" length="70.01" shape="18.64,305.48 76.45,240.70">
        <lane id="70224_0" index="0" disallow="pedestrian tram rail_urban rail rail_electric rail_fast ship" speed="36.11" length="70.01" width="3.50" customShape="1" shape="18.64,305.48 29.31,293.85 65.49,253.46"/>
    </edge>
    <edge id="70225" from="43" to="9" priority="3" type="highway.residential" spreadType="center" length="69.99" shape="79.06,243.03 21.25,307.81">
        <lane id="70225_0" index="0" disallow="pedestrian tram rail_urban rail rail_electric rail_fast ship" speed="36.11" length="69.99" width="3.50" customShape="1" shape="68.09,255.80 31.93,296.17 21.25,307.81"/>
    </edge>
    <edge id="70272" from="44" to="17" priority="3" type="highway.residential" spreadType="center" length="69.99" shape="35.40,185.17 -46.92,167.89">
        <lane id="70272_0" index="0" disallow="pedestrian tram rail_urban rail rail_electric rail_fast ship" speed="36.11" length="69.99" width="3.50" customShape="1" shape="19.12,173.90 14.65,170.78 10.84,168.51 6.41,166.34 1.85,164.46 -2.38,163.09 -6.70,162.07 -11.08,161.40 -15.51,161.09 -20.45,161.10 -24.87,161.45 -30.24,162.24 -35.07,163.27 -38.85,164.40 -42.99,166.00 -46.92,167.89"/>
    </edge>
    <edge id="70273" from="27" to="44" priority="3" type="highway.residential" spreadType="center" length="70.00" shape="-45.03,163.10 36.16,181.76">
        <lane id="70273_0" index="0" disallow="pedestrian tram rail_urban rail rail_electric rail_fast ship" speed="36.11" length="70.00" width="3.50" customShape="1" shape="-45.03,163.10 -44.37,162.79 -39.99,161.09 -35.97,159.89 -30.88,158.80 -25.25,157.97 -20.58,157.61 -15.38,157.59 -10.69,157.92 -6.05,158.64 -1.47,159.71 3.00,161.16 7.81,163.13 12.48,165.42 16.51,167.82 21.19,171.08"/>
    </edge>
    <edge id="70275" from="43" to="44" priority="3" type="highway.residential" spreadType="center" length="35.66" shape="76.31,242.91 34.28,184.44">
        <lane id="70275_0" index="0" disallow="pedestrian tram rail_urban rail rail_electric rail_fast ship" speed="36.11" length="35.66" width="3.50" customShape="1" shape="62.72,227.21 60.69,225.62 55.27,221.61 51.71,219.47 48.67,217.50 46.67,215.84 44.49,213.62 42.59,211.16 40.15,207.18 37.85,202.66"/>
    </edge>
    <edge id="70276" from="44" to="43" priority="3" type="highway.residential" spreadType="center" length="34.18" shape="37.12,182.40 79.16,240.87">
        <lane id="70276_0" index="0" disallow="pedestrian tram rail_urban rail rail_electric rail_fast ship" speed="36.11" length="34.18" width="3.50" customShape="1" shape="40.96,201.07 43.21,205.48 45.50,209.22 47.25,211.46 49.25,213.46 51.09,214.93 54.01,216.76 57.51,218.90 62.89,222.89 64.91,224.48"/>
    </edge>
    <edge id="70287" from="46" to="33" priority="3" type="highway.residential" spreadType="center" length="49.63" shape="148.95,164.48 212.84,180.88">
        <lane id="70287_0" index="0" disallow="pedestrian tram rail_urban rail rail_electric rail_fast ship" speed="36.11" length="49.63" width="3.50" customShape="1" shape="164.83,168.32 188.84,174.60 212.84,180.88"/>
    </edge>
    <edge id="70288" from="37" to="46" priority="3" type="highway.residential" spreadType="center" length="49.64" shape="211.96,184.27 148.08,167.87">
        <lane id="70288_0" index="0" disallow="pedestrian tram rail_urban rail rail_electric rail_fast ship" speed="36.11" length="49.64" width="3.50" customShape="1" shape="211.96,184.27 187.95,177.98 163.94,171.70"/>
    </edge>
    <edge id="70299" from="45" to="31" priority="3" type="highway.residential" spreadType="center" length="2.09" shape="80.82,134.31 82.21,117.03">
        <lane id="70299_0" index="0" disallow="pedestrian tram rail_urban rail rail_electric rail_fast ship" speed="36.11" length="2.09" width="3.50" customShape="1" shape="80.82,118.59 82.21,117.03"/>
    </edge>
    <edge id="70300" from="39" to="45" priority="3" type="highway.residential" spreadType="center" length="1.61" shape="83.70,118.88 83.23,134.32">
        <lane id="70300_0" index="0" disallow="pedestrian tram rail_urban rail rail_electric rail_fast ship" speed="36.11" length="1.61" width="1.33" customShape="1" shape="83.70,118.88 82.95,120.30"/>
    </edge>
    <edge id="70375" from="45" to="44" priority="3" type="highway.residential" spreadType="center" length="39.81" shape="83.87,135.44 37.00,184.66">
        <lane id="70375_0" index="0" disallow="pedestrian tram rail_urban rail rail_electric rail_fast ship" speed="36.11" length="39.81" width="3.50" customShape="1" shape="78.36,151.26 75.39,154.89 72.97,157.57 68.47,161.83 59.81,169.19 54.13,173.66 48.62,177.51"/>
    </edge>
    <edge id="70376" from="44" to="45" priority="3" type="highway.residential" spreadType="center" length="38.79" shape="34.46,182.25 81.34,133.03">
        <lane id="70376_0" index="0" disallow="pedestrian tram rail_urban rail rail_electric rail_fast ship" speed="36.11" length="38.79" width="3.50" customShape="1" shape="46.68,174.60 52.05,170.84 57.60,166.48 66.09,159.26 70.45,155.14 72.77,152.57 75.66,149.03"/>
    </edge>
    <edge id="70378" from="40" to="45" priority="3" type="highway.residential" spreadType="center" length="5.29" shape="95.33,126.53 83.42,135.66">
        <lane id="70378_0" index="0" disallow="pedestrian tram rail_urban rail rail_electric rail_fast ship" speed="36.11" length="5.29" width="3.25" customShape="1" shape="95.33,126.53 92.70,130.78 92.63,130.89 92.54,131.02"/>
    </edge>
    <edge id="70379" from="45" to="30" priority="3" type="highway.residential" spreadType="center" length="5.27" shape="81.36,133.02 92.49,124.67">
        <lane id="70379_0" index="0" disallow="pedestrian tram rail_urban rail rail_electric rail_fast ship" speed="36.11" length="5.27" width="3.49" customShape="1" shape="89.63,129.10 89.77,128.87 92.49,124.67"/>
    </edge>
    <edge id="71206" from="43" to="18" priority="3" type="highway.residential" spreadType="center" length="19.40" shape="76.38,240.79 98.67,216.03">
        <lane id="71206_0" index="0" disallow="pedestrian tram rail_urban rail rail_electric rail_fast ship" speed="36.11" length="19.40" width="3.50" customShape="1" shape="84.93,231.77 85.06,231.62 90.73,225.00 95.69,219.21 97.65,217.12"/>
    </edge>

    <junction id="11" type="dead_end" x="156.24" y="274.32" incLanes="70155_0" intLanes="" shape="156.59,272.60 155.90,276.04" rightOfWay="edgePriority"/>
    <junction id="17" type="dead_end" x="-46.92" y="167.89" incLanes="70272_0" intLanes="" shape="-46.17,169.47 -47.68,166.31" rightOfWay="edgePriority"/>
    <junction id="18" type="priority" x="98.67" y="216.03" incLanes="71206_0" intLanes=":18_0_0" shape="100.97,216.15 98.44,213.74 96.37,215.92 98.92,218.32" rightOfWay="edgePriority">
        <request index="0" response="0" foes="0" cont="0"/>
    </junction>
    <junction id="20" type="dead_end" x="18.64" y="305.48" incLanes="" intLanes="" shape="19.93,306.66 17.35,304.29" rightOfWay="edgePriority"/>
    <junction id="26" type="dead_end" x="155.55" y="277.75" incLanes="" intLanes="" shape="155.89,276.03 155.21,279.47" rightOfWay="edgePriority"/>
    <junction id="27" type="dead_end" x="-45.03" y="163.10" incLanes="" intLanes="" shape="-44.27,164.68 -45.78,161.53" rightOfWay="edgePriority"/>
    <junction id="30" type="dead_end" x="92.49" y="124.67" incLanes="70379_0" intLanes="" shape="91.03,123.72 93.95,125.62" rightOfWay="edgePriority"/>
    <junction id="31" type="dead_end" x="82.21" y="117.03" incLanes="70299_0" intLanes="" shape="80.90,115.87 83.52,118.19" rightOfWay="edgePriority"/>
    <junction id="32" type="dead_end" x="151.63" y="146.11" incLanes="70215_0" intLanes="" shape="150.23,145.11 153.04,147.11" rightOfWay="edgePriority"/>
    <junction id="33" type="dead_end" x="212.84" y="180.88" incLanes="70287_0" intLanes="" shape="213.28,179.19 212.40,182.57" rightOfWay="edgePriority"/>
    <junction id="37" type="dead_end" x="211.96" y="184.27" incLanes="" intLanes="" shape="212.40,182.58 211.52,185.96" rightOfWay="edgePriority"/>
    <junction id="38" type="dead_end" x="154.48" y="148.11" incLanes="" intLanes="" shape="153.05,147.10 155.91,149.12" rightOfWay="edgePriority"/>
    <junction id="39" type="dead_end" x="83.70" y="118.88" incLanes="" intLanes="" shape="83.12,118.57 84.29,119.19" rightOfWay="edgePriority"/>
    <junction id="40" type="dead_end" x="95.33" y="126.53" incLanes="" intLanes="" shape="93.94,125.68 96.71,127.39" rightOfWay="edgePriority"/>
    <junction id="41" type="priority" x="101.19" y="218.46" incLanes="70219_0" intLanes=":41_0_0" shape="103.49,218.58 100.96,216.17 98.89,218.35 101.44,220.75" rightOfWay="edgePriority">
        <request index="0" response="0" foes="0" cont="0"/>
    </junction>
    <junction id="43" type="priority" x="77.73" y="241.89" incLanes="70154_0 70222_0 70276_0 70224_0" intLanes=":43_0_0 :43_1_0 :43_2_0 :43_3_0 :43_4_0 :43_5_0 :43_6_0 :43_7_0 :43_8_0 :43_9_0 :43_10_0 :43_11_0" shape="91.72,256.68 96.56,251.62 92.99,247.95 90.33,244.66 88.59,241.74 87.77,239.20 87.86,237.03 88.86,235.24 83.61,230.61 80.19,231.44 77.55,230.60 74.30,228.92 70.44,226.42 65.96,223.08 61.64,228.58 65.59,232.29 68.13,236.09 69.26,239.99 68.98,243.99 67.28,248.09 64.18,252.30 69.39,256.97 72.91,253.72 76.51,251.75 80.20,251.07 83.96,251.66 87.80,253.53">
        <request index="0" response="000000010000" foes="000100010000" cont="0"/>
        <request index="1" response="111000110000" foes="111100110000" cont="0"/>
        <request index="2" response="110011110000" foes="110011110000" cont="0"/>
        <request index="3" response="000000000000" foes="100010000000" cont="0"/>
        <request index="4" response="000000000000" foes="100110000111" cont="0"/>
        <request index="5" response="011000000000" foes="011110000110" cont="0"/>
        <request index="6" response="010000000000" foes="010000000100" cont="0"/>
        <request index="7" response="110000111000" foes="110000111100" cont="0"/>
        <request index="8" response="110000110011" foes="110000110011" cont="0"/>
        <request index="9" response="000000000000" foes="000000100010" cont="0"/>
        <request index="10" response="000000000000" foes="000111100110" cont="0"/>
        <request index="11" response="000000011000" foes="000110011110" cont="0"/>
    </junction>
    <junction id="44" type="priority" x="35.73" y="183.45" incLanes="70275_0 70375_0 70273_0" intLanes=":44_0_0 :44_1_0 :44_2_0 :44_3_0 :44_4_0 :44_5_0" shape="36.29,203.45 42.52,200.28 41.01,196.33 40.58,192.53 41.24,188.89 42.97,185.41 45.79,182.08 49.68,178.90 45.68,173.16 42.46,174.85 38.97,175.63 35.18,175.49 31.12,174.44 26.76,172.48 22.13,169.60 18.12,175.34 23.70,179.71 27.24,183.57 29.50,187.40 31.25,191.66 33.26,196.86">
        <request index="0" response="000000" foes="001000" cont="0"/>
        <request index="1" response="110000" foes="111000" cont="0"/>
        <request index="2" response="100000" foes="100000" cont="0"/>
        <request index="3" response="100011" foes="100011" cont="0"/>
        <request index="4" response="000000" foes="000010" cont="0"/>
        <request index="5" response="000000" foes="001110" cont="0"/>
    </junction>