<routes>
	<vehicle depart="0.1" departLane="0" departPos="25.68378825344047" departSpeed="0.80910529" id="34" type="passenger">
		<route edges=":44_5 70276"/>
	</vehicle>
	<vehicle depart="0.1" departLane="0" departPos="39.7086606891435" departSpeed="0.0" id="320" type="passenger">
		<route edges="70375 70272"/>
	</vehicle>
	<vehicle depart="0.1" departLane="0" departPos="11.552166002700414" departSpeed="7.2237142" id="322" type="passenger">
		<route edges=":44_0 70272"/>
	</vehicle>
	<vehicle depart="0.1" departLane="0" departPos="19.63231226422118" departSpeed="5.4555709" id="330" type="passenger">
		<route edges="70275 70376"/>
	</vehicle>
	<vehicle depart="0.1" departLane="0" departPos="21.129434240110935" departSpeed="0.084092105" id="333" type="passenger">
		<route edges="70276 70155"/>
	</vehicle>
	<vehicle depart="0.1" departLane="0" departPos="37.44562537974609" departSpeed="0.2372776" id="337" type="passenger">
		<route edges=":44_5 70276 70155"/>
	</vehicle>
	<vehicle depart="0.1" departLane="0" departPos="67.06696612288671" departSpeed="0.18562848" id="346" type="passenger">
		<route edges="70273 70376"/>
	</vehicle>
	<vehicle depart="0.1" departLane="0" departPos="56.74109640016472" departSpeed="0.95329167" id="349" type="passenger">
		<route edges="70273 70376"/>
	</vehicle>
	<vehicle depart="0.1" departLane="0" departPos="47.58596836511845" departSpeed="0.67229366" id="354" type="passenger">
		<route edges="70273 70376"/>
	</vehicle>
	<vehicle depart="0.1" departLane="0" departPos="24.090743329014114" departSpeed="5.7864354" id="33" type="truck">
		<route edges=":44_1 70376 70299"/>
	</vehicle>
</routes>
