<routes>
	<vehicle depart="0.1" departLane="0" departPos="63.28348520391069" departSpeed="0.4112438" id="329" type="bicycle">
		<route edges="38559 38562"/>
	</vehicle>
	<vehicle depart="0.1" departLane="0" departPos="11.100022406209899" departSpeed="0.4203388" id="33" type="passenger">
		<route edges=":26_10 38464"/>
	</vehicle>
	<vehicle depart="0.1" departLane="0" departPos="61.20133362096391" departSpeed="0.2194163" id="37" type="passenger">
		<route edges="38461 38188"/>
	</vehicle>
	<vehicle depart="0.1" departLane="0" departPos="2.5" departSpeed="1.7723583" id="310" type="passenger">
		<route edges=":26_8 38460"/>
	</vehicle>
	<vehicle depart="0.1" departLane="0" departPos="71.45372278148436" departSpeed="1.222528" id="324" type="passenger">
		<route edges="38559 38187"/>
	</vehicle>
	<vehicle depart="0.1" departLane="0" departPos="27.618358930137553" departSpeed="9.4421662" id="325" type="passenger">
		<route edges=":26_4 38460"/>
	</vehicle>
	<vehicle depart="0.1" departLane="0" departPos="11.184552590796445" departSpeed="8.2609216" id="331" type="passenger">
		<route edges=":26_4 38460"/>
	</vehicle>
	<vehicle depart="0.1" departLane="0" departPos="51.2270003065832" departSpeed="0.91665196" id="336" type="passenger">
		<route edges="38559 38562"/>
	</vehicle>
	<vehicle depart="0.1" departLane="0" departPos="45.896928759005796" departSpeed="7.5355766" id="340" type="passenger">
		<route edges="38463 38460"/>
	</vehicle>
	<vehicle depart="0.1" departLane="0" departPos="23.3874493888865" departSpeed="1.3367679" id="30" type="truck">
		<route edges=":26_10 38464"/>
	</vehicle>
</routes>
