<routes>
	<vehicle depart="0.1" departLane="0" departPos="39.93102575798437" departSpeed="5.7674776" id="38" type="bicycle">
		<route edges=":32_5 1549 1546"/>
	</vehicle>
	<vehicle depart="0.1" departLane="0" departPos="12.852265146359976" departSpeed="4.8978499" id="39" type="passenger">
		<route edges=":32_3 1553"/>
	</vehicle>
	<vehicle depart="0.1" departLane="0" departPos="70.67407735342215" departSpeed="0.17477214" id="320" type="passenger">
		<route edges="1416 1553"/>
	</vehicle>
	<vehicle depart="0.1" departLane="0" departPos="7.901386300687575" departSpeed="6.1889101" id="352" type="passenger">
		<route edges=":32_4 1417"/>
	</vehicle>
	<vehicle depart="0.1" departLane="0" departPos="2.5" departSpeed="0.83696816" id="363" type="passenger">
		<route edges="1552 1417"/>
	</vehicle>
	<vehicle depart="0.1" departLane="0" departPos="16.39389980976698" departSpeed="1.6021045" id="358" type="truck">
		<route edges="1552 1417"/>
	</vehicle>
</routes>
