<routes>
	<vehicle depart="0.1" departLane="0" departPos="16.43258694414552" departSpeed="1.6324475" id="313" type="passenger">
		<route edges=":79_5 6201"/>
	</vehicle>
	<vehicle depart="0.1" departLane="0" departPos="55.0586494068982" departSpeed="3.7916258" id="338" type="passenger">
		<route edges="6243 6205"/>
	</vehicle>
	<vehicle depart="0.1" departLane="0" departPos="45.674466120104675" departSpeed="2.8228931" id="347" type="passenger">
		<route edges="6243 6205"/>
	</vehicle>
	<vehicle depart="0.1" departLane="0" departPos="15.714504934443855" departSpeed="12.026036" id="359" type="passenger">
		<route edges=":79_1 6244"/>
	</vehicle>
	<vehicle depart="0.1" departLane="0" departPos="36.39100685923966" departSpeed="1.078503" id="367" type="passenger">
		<route edges="6243 6205"/>
	</vehicle>
	<vehicle depart="0.1" departLane="0" departPos="22.65863516397116" departSpeed="2.1602322" id="377" type="passenger">
		<route edges="6243 6205"/>
	</vehicle>
	<vehicle depart="0.1" departLane="0" departPos="28.417447934560293" departSpeed="0.0" id="394" type="passenger">
		<route edges="6204 6201"/>
	</vehicle>
	<vehicle depart="0.1" departLane="0" departPos="21.201344101581512" departSpeed="1.2900317e-05" id="3101" type="passenger">
		<route edges="6204 6201"/>
	</vehicle>
	<vehicle depart="0.1" departLane="0" departPos="63.26026306408894" departSpeed="2.4123193" id="330" type="motorcycle">
		<route edges="6243 6205"/>
	</vehicle>
</routes>
