<routes>
	<vehicle depart="0.1" departLane="1" departPos="98.3890087764459" departSpeed="12.235901" id="1" type="passenger">
		<route edges="26 28 24"/>
	</vehicle>
	<vehicle depart="0.1" departLane="0" departPos="0" departSpeed="11.224337" id="2" type="passenger">
		<route edges="26 26 28 24"/>
	</vehicle>
	<vehicle depart="0.1" departLane="0" departPos="83.37543708613114" departSpeed="12.235901" id="3" type="passenger">
		<route edges="26 27 24"/>
	</vehicle>
</routes>
