<routes>
	<vehicle depart="0.1" departLane="0" departPos="32.53813399362051" departSpeed="0.0051818264" id="357" type="passenger">
		<route edges="63819 64241"/>
	</vehicle>
	<vehicle depart="0.1" departLane="0" departPos="25.0158359360103" departSpeed="0.021671596" id="362" type="passenger">
		<route edges="63819 64241"/>
	</vehicle>
	<vehicle depart="0.1" departLane="0" departPos="17.444045976618874" departSpeed="0.073382946" id="369" type="passenger">
		<route edges="63819 64241"/>
	</vehicle>
	<vehicle depart="0.1" departLane="0" departPos="31.257368552190673" departSpeed="9.0249781" id="373" type="passenger">
		<route edges=":79_0 63724 63727"/>
	</vehicle>
	<vehicle depart="0.1" departLane="0" departPos="9.762914450570435" departSpeed="0.18254704" id="378" type="passenger">
		<route edges="63819 64241"/>
	</vehicle>
	<vehicle depart="0.1" departLane="0" departPos="6.441139665852839" departSpeed="1.6296985" id="383" type="passenger">
		<route edges=":79_3 63724"/>
	</vehicle>
	<vehicle depart="0.1" departLane="0" departPos="6.337268607274778" departSpeed="2.587746" id="386" type="passenger">
		<route edges="63681 63724"/>
	</vehicle>
</routes>
