<!-- generated on 2020-12-18 15:40:17.768886 by ipykernel_launcher.py v1_2_0+5214-53edc58fcd
-->
<edges>
	<edge from="1" function="normal" id="23" length="140.6220009837259" numLanes="6" priority="1" speed="36.11111111111111" spreadType="center" to="2">
		<lane allow="pedestrian rail private passenger ship delivery vip emergency bicycle rail_electric army rail_urban trailer coach custom2 tram taxi evehicle custom1 motorcycle authority truck hov moped" index="0" length="140.6220009837259" shape="-62.3399,35.949600000000004 -61.89165,35.5497 -59.270849999999996,33.1929 -58.547200000000004,32.547399999999996 -55.8763,30.23435 -55.152699999999996,29.5888 -52.359849999999994,27.140900000000002 -51.636250000000004,26.495350000000002 -49.126000000000005,24.332349999999998 -48.40235,23.686799999999998 -45.62735,21.26145 -44.90375,20.6159 -42.20715,18.35435 -41.4835,17.708750000000002 -38.7419,15.254249999999999 -38.018249999999995,14.608699999999999 -37.36005,14.03765 -35.28415,12.23575 -34.560649999999995,11.59005 -31.908849999999997,9.3047 -31.18535,8.658949999999999 -28.49055,6.3376 -27.7671,5.6919 -23.26295,1.7858 -22.539450000000002,1.14005 -19.66735,-1.3168 -18.94385,-1.9625 -16.06405,-4.44165 -15.34055,-5.08735 -12.5161,-7.563750000000001 -11.7926,-8.20945 -9.12225,-10.5231 -8.39875,-11.168800000000001 -5.81645,-13.392050000000001 -5.5943000000000005,-13.58785 -4.8872,-14.251349999999999 -4.39115,-14.710450000000002 -2.0811,-16.7538 -1.3612499999999998,-17.4038 1.5027000000000001,-19.958750000000002 2.22255,-20.6087 5.068,-23.13605 5.787850000000001,-23.786 8.54045,-26.205350000000003 9.2603,-26.85535 11.1455,-28.485 11.9907,-29.21825 13.7041,-30.7592 19.9364,-36.05155 22.52465,-38.25865 23.2521,-38.899550000000005 26.07415,-41.3373 26.8015,-41.9782 27.44935,-42.5333 29.4949,-44.32875 30.214750000000002,-44.9787 32.8795,-47.329499999999996 33.59945,-47.97935 36.3844,-50.4286 37.1043,-51.0785 39.905699999999996,-53.512950000000004 40.62565,-54.16285 43.4547,-56.6793" speed="36.11111111111111" width="3.6814288122955747"/>
		<lane allow="pedestrian rail private passenger ship delivery vip emergency bicycle rail_electric army rail_urban trailer coach custom2 tram taxi evehicle custom1 motorcycle authority hov moped" index="1" length="140.6220009837259" shape="-59.884,38.7656 -59.4895,38.41315 -56.8938,36.075500000000005 -56.8441,36.03155 -56.14935,35.4097 -56.079449999999994,35.3491 -53.42265,33.0429 -53.27595,32.91235 -52.769800000000004,32.4607 -52.71275,32.41075 -50.2173,30.22615 -49.8912,29.936799999999998 -49.1714,29.2868 -46.6747,27.109 -45.983000000000004,26.48435 -45.94095,26.4473 -43.1947,24.01695 -42.474900000000005,23.366950000000003 -41.52485,22.5634 -39.8005,21.11805 -39.139700000000005,20.52955 -38.6802,20.11985 -36.435199999999995,18.1288 -35.7001,17.47945 -35.61685,17.408 -32.87775,15.05415 -32.227050000000006,14.48005 -32.1342,14.40075 -30.7085,13.18285 -29.46335,12.111899999999999 -28.806350000000002,11.5268 -28.72545,11.4572 -27.7145,10.5863 -26.0342,9.123850000000001 -25.3138,8.4745 -20.829250000000002,4.5466999999999995 -20.10885,3.8973500000000003 -20.027900000000002,3.8285 -17.250500000000002,1.4573 -17.13765,1.3576 -16.6888,0.96445 -16.577399999999997,0.871 -13.685500000000001,-1.5514 -13.356349999999999,-1.83305 -13.26725,-1.91245 -12.95315,-2.18995 -12.8845,-2.24925 -10.21855,-4.58265 -10.03045,-4.74965 -9.3107,-5.3997 -6.6543,-7.72875 -5.93455,-8.3788 -4.8045,-9.3625 -3.07775,-10.845949999999998 -2.41825,-11.43335 -2.3612,-11.4832 -1.83795,-11.940850000000001 0.42774999999999996,-13.9424 1.1167500000000001,-14.563649999999999 1.1483999999999999,-14.5918 4.0137,-17.1449 4.70265,-17.76605 4.74015,-17.79935 7.21715,-19.996850000000002 7.5458,-20.28485 8.2259,-20.89025 8.29395,-20.9493 10.21415,-22.615499999999997 11.056899999999999,-23.34395 11.709399999999999,-23.9234 11.8061,-24.0053 14.5962,-26.378149999999998 15.24915,-26.958 15.2974,-27.000149999999998 17.878700000000002,-29.27225 18.01415,-29.39195 18.7145,-30.015349999999998 18.81285,-30.09835 20.9825,-31.94305 21.68705,-32.5466 22.36345,-33.1533 22.429850000000002,-33.21075 24.977400000000003,-35.424 25.654249999999998,-36.0311 25.7028,-36.073750000000004 28.4999,-38.534400000000005 28.654200000000003,-38.6725 29.1505,-39.115449999999996 29.21855,-39.174400000000006 31.724050000000002,-41.3461 31.965849999999996,-41.5583 32.65435,-42.17895 32.700649999999996,-42.2197 35.3525,-44.55675 36.0729,-45.20615 38.85955,-47.6535 39.5799,-48.302899999999994 39.8635,-48.548249999999996 42.380849999999995,-50.70675 42.752849999999995,-51.03735 43.04305,-51.296549999999996 43.093050000000005,-51.3403 45.966750000000005,-53.86325 45.96835,-53.86465" speed="36.11111111111111" width="3.4488983313516273"/>
		<lane allow="pedestrian rail private passenger ship delivery vip emergency bicycle rail_electric army rail_urban trailer coach custom2 tram taxi evehicle custom1 motorcycle authority hov moped" index="2" length="140.6220009837259" shape="-57.644099999999995,41.33395 -54.72565,38.78855 -50.9109,35.458749999999995 -47.91515,32.852599999999995 -46.807649999999995,31.87585 -43.83775,29.25805 -39.31185,25.25475 -39.28135,25.2282 -36.29985,22.627 -35.70725,22.11475 -32.7056,19.52835 -28.4211,15.8427 -25.43265,13.2493 -17.7857,6.53275 -17.752850000000002,6.50425 -14.75805,3.9049 -13.21845,2.6051 -10.905850000000001,0.6473 -10.2359,0.06494999999999995 -7.91225,-1.9868000000000001 -2.5564,-6.78205 -2.51525,-6.818149999999999 0.41509999999999997,-9.36545 0.43,-9.3787 8.28305,-16.3779 9.44195,-17.39805 9.47195,-17.424100000000003 11.2818,-18.99775 12.39395,-19.944650000000003 19.947400000000002,-26.3539 19.99505,-26.3951 20.281,-26.6423 22.9827,-28.9908 23.3078,-29.2825 30.6145,-35.8642 30.948050000000002,-36.1563 30.9653,-36.17125 33.612449999999995,-38.4725 33.9696,-38.78725 41.774699999999996,-45.74555 42.024950000000004,-45.96595 42.054199999999994,-45.9914 44.77815,-48.35955 45.00375,-48.55355 48.2332,-51.3286" speed="36.11111111111111" width="3.2172508839069454"/>
		<lane allow="pedestrian rail private passenger ship delivery vip emergency bicycle rail_electric army rail_urban trailer coach custom2 tram taxi evehicle custom1 motorcycle authority truck hov moped" index="3" length="140.6220009837259" shape="-55.4815,43.8137 -52.56155,41.285250000000005 -49.3408,38.4948 -49.3296,38.485 -46.3391,35.8835 -44.56685,34.321 -41.59365,31.7021 -38.3983,28.87765 -35.41235,26.2729 -33.529700000000005,24.607100000000003 -30.55775,21.986849999999997 -27.158549999999998,18.995199999999997 -24.1659,16.39815 -16.09785,9.439150000000001 -16.0854,9.4283 -13.09475,6.83305 -11.12365,5.136950000000001 -8.1265,2.5538499999999997 -4.82705,-0.3336 -4.7871999999999995,-0.369 -1.8364500000000001,-2.9735 -1.8054999999999999,-3.0011 -0.3241,-4.321 2.6545,-6.93455 6.174049999999999,-10.062249999999999 9.12385,-12.6593 9.160499999999999,-12.692150000000002 10.5045,-13.894749999999998 13.47365,-16.51905 16.96255,-19.536450000000002 19.9797,-22.10405 22.128300000000003,-23.928800000000003 25.11655,-26.5206 28.66235,-29.6841 31.61765,-32.3274 32.713499999999996,-33.30675 32.786950000000004,-33.3705 35.7765,-35.966 39.5078,-39.2455 42.4857,-41.86835 42.512699999999995,-41.89235 44.011449999999996,-43.2226 46.99185,-45.83395 50.45865,-48.8367" speed="36.11111111111111" width="3.0495992130114415"/>
		<lane allow="pedestrian rail private passenger ship delivery vip emergency bicycle rail_electric army rail_urban trailer coach custom2 tram taxi evehicle custom1 motorcycle authority hov moped" index="4" length="140.6220009837259" shape="-53.26185,46.3587 -47.3986,41.2701 -47.11705,41.02635 -44.41175,38.6747 -44.12385,38.4238 -36.3429,31.553400000000003 -36.21885,31.44395 -36.185500000000005,31.41495 -33.3087,28.91375 -33.1797,28.80005 -25.07425,21.564149999999998 -25.0424,21.5357 -24.9921,21.4919 -22.061950000000003,18.94435 -22.0006,18.891 -13.9307,11.9131 -13.793099999999999,11.7934 -10.9413,9.314350000000001 -10.79125,9.1851 -2.6709,2.19215 -2.569,2.10425 0.3093000000000001,-0.39779999999999993 0.4344,-0.5079 8.4018,-7.5762 11.3787,-10.16405 19.0782,-16.99595 19.112949999999998,-17.02635 19.32335,-17.21035 22.095599999999997,-19.620199999999997 22.31965,-19.814549999999997 30.70215,-27.00845 30.725900000000003,-27.0291 30.972550000000002,-27.24275 33.71195,-29.6241 33.9881,-29.86955 41.62585,-36.63105 41.76995,-36.7561 44.614,-39.22835 44.7604,-39.35565 52.707499999999996,-46.31855" speed="36.11111111111111" width="3.280122596794209"/>
		<lane allow="pedestrian rail private passenger ship delivery vip emergency bicycle rail_electric army rail_urban trailer coach custom2 tram taxi evehicle custom1 motorcycle authority hov moped" index="5" length="140.6220009837259" shape="-51.0048,48.9467 -45.16,43.84925 -44.7716,43.51105 -42.17195,41.25125 -41.791,40.9193 -34.018550000000005,34.13005 -33.631299999999996,33.792649999999995 -31.03165,31.53275 -30.691499999999998,31.2335 -30.6593,31.20485 -22.7515,24.15755 -22.3789,23.82975 -19.779200000000003,21.56985 -19.3916,21.2327 -11.533349999999999,14.3909 -11.143699999999999,14.051950000000001 -8.54405,11.79205 -8.152000000000001,11.451550000000001 -0.4515,4.7688500000000005 -0.06164999999999998,4.43025 2.5402,2.1685499999999998 2.8863499999999997,1.8644 2.91475,1.83915 10.6586,-5.0415 11.0334,-5.37075 13.63305,-7.63065 14.007850000000001,-7.9577 14.018049999999999,-7.96665 21.5989,-14.608550000000001 21.9839,-14.94455 24.583599999999997,-17.204349999999998 24.99005,-17.55385 33.0024,-24.37285 33.3812,-24.6985 33.4086,-24.72235 36.008399999999995,-26.98205 36.31715,-27.25545 36.36915,-27.30255 43.8729,-34.0945 44.23435,-34.414699999999996 46.834,-36.674549999999996 47.2248,-37.014250000000004 54.989149999999995,-43.76365" speed="36.11111111111111" width="3.4819833112753424"/>
	</edge>
	<edge from="2" function="normal" id="24" length="94.17112302182825" numLanes="5" priority="1" speed="36.11111111111111" spreadType="center" to="3">
		<lane allow="pedestrian rail private passenger ship delivery vip emergency bicycle rail_electric army rail_urban trailer coach bus custom2 tram taxi evehicle custom1 motorcycle authority truck hov moped" index="0" length="94.17112302182825" shape="45.96835,-53.86465 50.68085,-57.97875 53.6656,-60.584199999999996 53.677400000000006,-60.59455 61.798500000000004,-67.71725 64.78355,-70.32294999999999 72.73895,-77.33 74.02865,-78.45585 75.6968,-79.91695 83.7642,-86.97524999999999 86.74780000000001,-89.58879999999999 88.3156,-90.96440000000001 88.33725,-90.9832 94.744,-96.55005 97.7372,-99.1465 100.89845,-101.89304999999999 105.52185,-105.938 108.5017,-108.541 108.5144,-108.55215 116.15325,-115.2546 116.87505,-115.88505" speed="36.11111111111111" width="3.507394384724934"/>
		<lane allow="pedestrian rail private passenger ship delivery vip emergency bicycle rail_electric army rail_urban trailer coach custom2 tram taxi evehicle custom1 motorcycle authority hov moped" index="1" length="94.17112302182825" shape="48.2332,-51.3286 52.9152,-55.35255 53.0301,-55.45115 53.05905,-55.4763 55.9501,-57.9892 56.0316,-58.0604 64.02995,-65.0653 64.06575,-65.09655000000001 64.0774,-65.1067 67.03165,-67.67484999999999 67.07345000000001,-67.7114 75.01605,-74.7098 75.0322,-74.72385 75.1175,-74.7984 78.0121,-77.31465 78.1108,-77.40035 86.10714999999999,-84.3533 86.45824999999999,-84.65895 89.0955,-86.95150000000001 89.44640000000001,-87.25695 97.03620000000001,-93.93275 97.13055,-94.01545 100.0138,-96.5218 100.11515,-96.61009999999999 107.80584999999999,-103.1739 109.04095,-104.22579999999999 109.09355,-104.27154999999999 110.89005,-105.83234999999999 112.077,-106.86875 118.51345,-112.6111 119.22325000000001,-113.24125000000001" speed="36.11111111111111" width="3.2925795176426598"/>
		<lane allow="pedestrian rail private passenger ship delivery vip emergency bicycle rail_electric army rail_urban trailer coach custom2 tram taxi evehicle custom1 motorcycle authority truck hov moped" index="2" length="94.17112302182825" shape="50.45865,-48.8367 50.7613,-49.09825 53.766400000000004,-51.6806 55.262699999999995,-52.9965 58.2238,-55.628299999999996 61.85495,-58.86395 64.83575,-61.4621 66.11269999999999,-62.5564 69.13034999999999,-65.13445 72.832,-68.31035 72.88,-68.3523 75.87095,-70.9632 77.34625,-72.2671 80.321,-74.8843 84.25704999999999,-78.35220000000001 87.2421,-80.95085 88.62335,-82.15180000000001 91.619,-84.7525 94.97915,-87.69915 97.9593,-90.316 99.28165,-91.4751 99.30915,-91.49895 102.30465000000001,-94.09800000000001 106.4434,-97.6172 109.459,-100.18665 111.28555,-101.727 114.2644,-104.2899 117.4426,-107.08225 117.49365,-107.12805 120.42885000000001,-109.73385 120.47200000000001,-109.77275 121.49029999999999,-110.68885" speed="36.11111111111111" width="3.088246003802157"/>
		<lane allow="pedestrian rail private passenger ship delivery vip emergency bicycle rail_electric army rail_urban trailer coach custom2 tram taxi evehicle custom1 motorcycle authority hov moped" index="3" length="94.17112302182825" shape="52.707499999999996,-46.31855 52.94,-46.52235 52.9582,-46.53815 53.0577,-46.6248 55.95025,-49.139250000000004 63.7808,-56.20545 63.945949999999996,-56.352900000000005 64.0007,-56.40065 66.81445,-58.84765 66.95285,-58.9669 66.98859999999999,-58.99705 75.06935,-65.8314 75.1918,-65.9367 75.21705,-65.95859999999999 78.07305,-68.4411 78.1618,-68.51905 78.1825,-68.53729999999999 86.2484,-75.6656 86.41470000000001,-75.8121 86.44495,-75.8385 89.27250000000001,-78.29675 89.44825,-78.45124999999999 97.19985,-85.25255000000001 97.41235,-85.4391 100.17615,-87.84165 100.4055,-88.04060000000001 108.5569,-95.0206 108.58009999999999,-95.04065 108.60669999999999,-95.06360000000001 111.5736,-97.64255 111.61755,-97.68119999999999 119.49815000000001,-104.5275 119.6987,-104.70015000000001 122.47694999999999,-107.11525 122.70105000000001,-107.31235 123.6995,-108.2015" speed="36.11111111111111" width="3.232603671964748"/>
		<lane allow="pedestrian rail private passenger ship delivery vip emergency bicycle rail_electric army rail_urban trailer coach custom2 tram taxi evehicle custom1 motorcycle authority hov moped" index="4" length="94.17112302182825" shape="54.989149999999995,-43.76365 55.3073,-44.04025 55.6981,-44.379949999999994 58.29775,-46.63975000000001 58.62595,-46.9293 58.66565,-46.9649 66.12065,-53.6477 66.48904999999999,-53.97265 69.08869999999999,-56.23255 69.49440000000001,-56.58155 77.45224999999999,-63.36109999999999 77.83160000000001,-63.68745 77.8577,-63.71015 80.4575,-65.96985000000001 80.83005,-66.2952 80.84175,-66.30545000000001 88.5666,-73.0813 88.9508,-73.41675000000001 91.55045000000001,-75.67660000000001 91.89824999999999,-75.982 91.9256,-76.00630000000001 99.66395,-82.87675 100.03935000000001,-83.20644999999999 102.63900000000001,-85.46625 103.04915,-85.81800000000001 110.83845,-92.4142 111.2144,-92.73655 111.2482,-92.76595 113.8481,-95.02555000000001 114.1994,-95.33385 114.22465,-95.35624999999999 121.7062,-101.98785000000001 122.08269999999999,-102.31835000000001 124.6824,-104.57815 125.02945,-104.883 125.05725000000001,-104.9077 125.93365,-105.6861" speed="36.11111111111111" width="3.4806247901777563"/>
	</edge>
	<edge from="2" function="normal" id="22" length="94.38882604090999" numLanes="1" priority="1" speed="36.11111111111111" spreadType="center" to="4">
		<lane allow="pedestrian rail private passenger ship delivery vip emergency bicycle rail_electric army rail_urban trailer coach custom2 tram taxi evehicle custom1 motorcycle authority hov moped" index="0" length="94.38882604090999" shape="43.4547,-56.6793 48.8562,-61.554500000000004 61.8268,-73.42305 68.90685,-80.18265 70.70405,-81.97614999999999 85.3971,-96.86255 92.674,-104.3634 110.3929,-122.9848 110.48320000000001,-123.0815" speed="36.11111111111111" width="3.963272370150704"/>
	</edge>
</edges>
