<routes>
	<vehicle depart="0.1" departLane="2" departPos="117.57538729642157" departSpeed="16.5864" id="438" type="passenger">
		<route edges="23 24"/>
	</vehicle>
	<vehicle depart="0.1" departLane="3" departPos="126.9446581447926" departSpeed="14.5556" id="439" type="passenger">
		<route edges="23 24"/>
	</vehicle>
	<vehicle depart="0.1" departLane="4" departPos="116.75367694893788" departSpeed="13.9522" id="440" type="passenger">
		<route edges="23 24"/>
	</vehicle>
	<vehicle depart="0.1" departLane="1" departPos="140.6656791642567" departSpeed="17.0315" id="441" type="passenger">
		<route edges="23 23 24"/>
	</vehicle>
	<vehicle depart="0.1" departLane="5" departPos="126.56085614507191" departSpeed="14.0424" id="442" type="passenger">
		<route edges="23 24"/>
	</vehicle>
	<vehicle depart="0.1" departLane="3" departPos="98.46807913017767" departSpeed="15.0251" id="443" type="passenger">
		<route edges="23 24"/>
	</vehicle>
	<vehicle depart="0.1" departLane="1" departPos="113.4019469286328" departSpeed="15.8053" id="445" type="passenger">
		<route edges="23 24"/>
	</vehicle>
	<vehicle depart="0.1" departLane="4" departPos="110.63358027287914" departSpeed="14.229" id="446" type="passenger">
		<route edges="23 24"/>
	</vehicle>
	<vehicle depart="0.1" departLane="3" departPos="71.580220027959" departSpeed="14.8268" id="447" type="passenger">
		<route edges="23 24"/>
	</vehicle>
	<vehicle depart="0.1" departLane="1" departPos="47.64378830880112" departSpeed="15.7045" id="449" type="passenger">
		<route edges="23 24"/>
	</vehicle>
	<vehicle depart="0.1" departLane="5" departPos="67.7366837766008" departSpeed="14.5502" id="451" type="passenger">
		<route edges="23 24"/>
	</vehicle>
	<vehicle depart="0.1" departLane="2" departPos="63.569146860647585" departSpeed="18.4991" id="452" type="passenger">
		<route edges="23 24"/>
	</vehicle>
	<vehicle depart="0.1" departLane="4" departPos="77.56651993240206" departSpeed="17.0721" id="456" type="passenger">
		<route edges="23 24"/>
	</vehicle>
</routes>
