<routes>
	<vehicle depart="0.1" departLane="0" departPos="34.025693246957296" departSpeed="0.0" id="314" type="bicycle">
		<route edges="183 180"/>
	</vehicle>
	<vehicle depart="0.1" departLane="0" departPos="25.362210718217433" departSpeed="0.0" id="315" type="bicycle">
		<route edges="460 187"/>
	</vehicle>
	<vehicle depart="0.1" departLane="0" departPos="12.880397530045443" departSpeed="0.016098825" id="333" type="bus">
		<route edges="183 180"/>
	</vehicle>
	<vehicle depart="0.1" departLane="0" departPos="59.46939519665983" departSpeed="0.0" id="334" type="bus">
		<route edges="330 181"/>
	</vehicle>
	<vehicle depart="0.1" departLane="0" departPos="22.39552417796198" departSpeed="0.0" id="34" type="passenger">
		<route edges="181 877"/>
	</vehicle>
	<vehicle depart="0.1" departLane="0" departPos="36.49968482506615" departSpeed="0.0" id="35" type="passenger">
		<route edges="181 877"/>
	</vehicle>
	<vehicle depart="0.1" departLane="0" departPos="29.350144634322483" departSpeed="0.0" id="36" type="passenger">
		<route edges="181 877"/>
	</vehicle>
	<vehicle depart="0.1" departLane="0" departPos="30.963556015750957" departSpeed="0.0" id="39" type="passenger">
		<route edges="460 187"/>
	</vehicle>
	<vehicle depart="0.1" departLane="0" departPos="34.23173400710025" departSpeed="0.0" id="316" type="passenger">
		<route edges="183 180"/>
	</vehicle>
	<vehicle depart="0.1" departLane="0" departPos="21.402716879703608" departSpeed="0.0" id="317" type="passenger">
		<route edges="460 187"/>
	</vehicle>
	<vehicle depart="0.1" departLane="0" departPos="15.564961222997132" departSpeed="0.0" id="318" type="passenger">
		<route edges="181 877"/>
	</vehicle>
	<vehicle depart="0.1" departLane="0" departPos="26.937512096641207" departSpeed="0.0" id="320" type="passenger">
		<route edges="183 180"/>
	</vehicle>
	<vehicle depart="0.1" departLane="0" departPos="8.44732229282523" departSpeed="0.0" id="321" type="passenger">
		<route edges="181 877"/>
	</vehicle>
	<vehicle depart="0.1" departLane="0" departPos="14.103022077693451" departSpeed="0.0" id="323" type="passenger">
		<route edges="460 187"/>
	</vehicle>
	<vehicle depart="0.1" departLane="0" departPos="4.821396032430618" departSpeed="0.0" id="324" type="passenger">
		<route edges="328 331"/>
	</vehicle>
	<vehicle depart="0.1" departLane="0" departPos="19.837046186576824" departSpeed="3.2388792e-05" id="326" type="passenger">
		<route edges="183 180"/>
	</vehicle>
	<vehicle depart="0.1" departLane="0" departPos="6.8992630912735295" departSpeed="0.0" id="335" type="passenger">
		<route edges="460 187"/>
	</vehicle>
	<vehicle depart="0.1" departLane="0" departPos="22.425725593547003" departSpeed="10.272306" id="336" type="passenger">
		<route edges="461"/>
	</vehicle>
	<vehicle depart="0.1" departLane="0" departPos="33.72023217709557" departSpeed="0.0" id="337" type="passenger">
		<route edges="186 183"/>
	</vehicle>
	<vehicle depart="0.1" departLane="0" departPos="7.550004721873979" departSpeed="8.9486957" id="340" type="passenger">
		<route edges="461"/>
	</vehicle>
	<vehicle depart="0.1" departLane="0" departPos="44.97242824768107" departSpeed="0.00015076954" id="341" type="passenger">
		<route edges="330 181"/>
	</vehicle>
	<vehicle depart="0.1" departLane="0" departPos="11.185086649048051" departSpeed="0.0067639766" id="342" type="passenger">
		<route edges="876 184"/>
	</vehicle>
	<vehicle depart="0.1" departLane="0" departPos="22.543050117267704" departSpeed="0.024208773" id="343" type="passenger">
		<route edges="186 183"/>
	</vehicle>
	<vehicle depart="0.1" departLane="0" departPos="37.94509779718461" departSpeed="0.0017588423" id="344" type="passenger">
		<route edges="330 181"/>
	</vehicle>
	<vehicle depart="0.1" departLane="0" departPos="30.84065229583682" departSpeed="0.011269358" id="345" type="passenger">
		<route edges="330 181"/>
	</vehicle>
	<vehicle depart="0.1" departLane="0" departPos="13.08787742834863" departSpeed="9.2479725" id="346" type="passenger">
		<route edges="331"/>
	</vehicle>
	<vehicle depart="0.1" departLane="0" departPos="23.474437049586847" departSpeed="0.046364577" id="347" type="passenger">
		<route edges="330 181"/>
	</vehicle>
	<vehicle depart="0.1" departLane="0" departPos="16.16025833302944" departSpeed="0.14269872" id="349" type="passenger">
		<route edges="330 181"/>
	</vehicle>
	<vehicle depart="0.1" departLane="0" departPos="15.185066003684529" departSpeed="0.10331283" id="350" type="passenger">
		<route edges="186 183"/>
	</vehicle>
	<vehicle depart="0.1" departLane="0" departPos="23.82125375940148" departSpeed="10.107893" id="351" type="passenger">
		<route edges="184 187"/>
	</vehicle>
	<vehicle depart="0.1" departLane="0" departPos="4.955153778988399" departSpeed="6.2479373" id="352" type="passenger">
		<route edges="184 187"/>
	</vehicle>
	<vehicle depart="0.1" departLane="0" departPos="8.968612298502162" departSpeed="0.32099763" id="353" type="passenger">
		<route edges="330 181"/>
	</vehicle>
	<vehicle depart="0.1" departLane="0" departPos="7.515115097359946" departSpeed="0.24223284" id="354" type="passenger">
		<route edges="186 183"/>
	</vehicle>
	<vehicle depart="0.1" departLane="0" departPos="2.5" departSpeed="5.3574643" id="355" type="passenger">
		<route edges=":36_3 184 187"/>
	</vehicle>
	<vehicle depart="0.1" departLane="0" departPos="8.56264765578721" departSpeed="3.475246" id="356" type="passenger">
		<route edges="879 180 331"/>
	</vehicle>
	<vehicle depart="0.1" departLane="0" departPos="64.11883201570024" departSpeed="0.0" id="310" type="motorcycle">
		<route edges="330 181"/>
	</vehicle>
	<vehicle depart="0.1" departLane="0" departPos="8.899145449362145" departSpeed="7.5578304" id="327" type="motorcycle">
		<route edges=":33_1 461"/>
	</vehicle>
	<vehicle depart="0.1" departLane="0" departPos="15.792829461773007" departSpeed="0.0007123988" id="338" type="motorcycle">
		<route edges="876 184 461"/>
	</vehicle>
	<vehicle depart="0.1" departLane="0" departPos="27.00680699804447" departSpeed="0.0028560452" id="339" type="motorcycle">
		<route edges="186 183"/>
	</vehicle>
	<vehicle depart="0.1" departLane="0" departPos="40.56521031432966" departSpeed="0.0" id="30" type="truck">
		<route edges="460 187"/>
	</vehicle>
	<vehicle depart="0.1" departLane="0" departPos="16.374058477037963" departSpeed="0.0" id="31" type="truck">
		<route edges=":34_3 181"/>
	</vehicle>
</routes>
