<routes>
	<vehicle depart="0.1" departLane="1" departPos="87.7553977536944" departSpeed="25.9392" id="31" type="passenger">
		<route edges="19"/>
	</vehicle>
	<vehicle depart="0.1" departLane="1" departPos="41.35388146396432" departSpeed="22.7298" id="33" type="passenger">
		<route edges="19"/>
	</vehicle>
	<vehicle depart="0.1" departLane="1" departPos="368.07645062277606" departSpeed="19.2508" id="35" type="passenger">
		<route edges="16 20 22 19"/>
	</vehicle>
	<vehicle depart="0.1" departLane="1" departPos="335.32268997706757" departSpeed="19.9917" id="37" type="passenger">
		<route edges="16 20 19"/>
	</vehicle>
	<vehicle depart="0.1" departLane="0" departPos="278.6562256880045" departSpeed="20.6498" id="38" type="passenger">
		<route edges="16 20 19"/>
	</vehicle>
	<vehicle depart="0.1" departLane="1" departPos="299.38650910371825" departSpeed="20.6214" id="39" type="passenger">
		<route edges="16 20 22 19"/>
	</vehicle>
	<vehicle depart="0.1" departLane="1" departPos="264.27913617974286" departSpeed="19.9662" id="310" type="passenger">
		<route edges="16 20 22 19"/>
	</vehicle>
	<vehicle depart="0.1" departLane="0" departPos="244.1632337052115" departSpeed="20.1123" id="311" type="passenger">
		<route edges="16 20 19"/>
	</vehicle>
	<vehicle depart="0.1" departLane="0" departPos="0" departSpeed="22.2913" id="313" type="passenger">
		<route edges="22 20 19"/>
	</vehicle>
	<vehicle depart="0.1" departLane="1" departPos="235.8632970932009" departSpeed="20.1104" id="315" type="passenger">
		<route edges="16 20 22 19"/>
	</vehicle>
	<vehicle depart="0.1" departLane="1" departPos="187.88634523840133" departSpeed="23.5796" id="316" type="passenger">
		<route edges="16 20 22 19"/>
	</vehicle>
	<vehicle depart="0.1" departLane="0" departPos="122.84569795912077" departSpeed="22.2138" id="318" type="passenger">
		<route edges="16 20 19"/>
	</vehicle>
	<vehicle depart="0.1" departLane="0" departPos="0" departSpeed="19.4005" id="319" type="passenger">
		<route edges="17 22 20 22 19"/>
	</vehicle>
	<vehicle depart="0.1" departLane="1" departPos="126.2942640267095" departSpeed="22.3055" id="320" type="passenger">
		<route edges="16 20 19"/>
	</vehicle>
	<vehicle depart="0.1" departLane="0" departPos="11.68736202923774" departSpeed="18.8655" id="321" type="passenger">
		<route edges="21 17 22 20 22 19"/>
	</vehicle>
	<vehicle depart="0.1" departLane="1" departPos="102.71776413645405" departSpeed="20.7422" id="322" type="passenger">
		<route edges="16 20 19"/>
	</vehicle>
	<vehicle depart="0.1" departLane="0" departPos="65.6006227511853" departSpeed="15.908" id="323" type="passenger">
		<route edges="14 21 17 22 20 22 19"/>
	</vehicle>
	<vehicle depart="0.1" departLane="0" departPos="97.10321092723171" departSpeed="20.6633" id="324" type="passenger">
		<route edges="16 20 19"/>
	</vehicle>
	<vehicle depart="0.1" departLane="1" departPos="65.83081723431654" departSpeed="16.7527" id="325" type="passenger">
		<route edges="16 20 19"/>
	</vehicle>
	<vehicle depart="0.1" departLane="0" departPos="0" departSpeed="9.9999" id="327" type="passenger">
		<route edges="14 21 17 22 19"/>
	</vehicle>
	<vehicle depart="0.1" departLane="0" departPos="0" departSpeed="6.6305" id="328" type="passenger">
		<route edges="14 21 17 22 19"/>
	</vehicle>
	<vehicle depart="0.1" departLane="0" departPos="0" departSpeed="3.3059" id="329" type="passenger">
		<route edges="14 21 17 22 19"/>
	</vehicle>
</routes>
