<?xml version="1.0" encoding="UTF-8"?>

<!-- generated on Fri Dec 18 16:19:36 2020 by Eclipse SUMO netconvert Version 1.8.0
<configuration xmlns:xsi="http://www.w3.org/2001/XMLSchema-instance" xsi:noNamespaceSchemaLocation="http://sumo.dlr.de/xsd/netconvertConfiguration.xsd">

    <input>
        <node-files value="./converted_scenarios/SUMO/DEU_Stu-1_7_I-1-1/nodes.net.xml"/>
        <edge-files value="./converted_scenarios/SUMO/DEU_Stu-1_7_I-1-1/edges.net.xml"/>
        <connection-files value="./converted_scenarios/SUMO/DEU_Stu-1_7_I-1-1/_connections.net.xml"/>
        <tllogic-files value="./converted_scenarios/SUMO/DEU_Stu-1_7_I-1-1/_tll.net.xml"/>
    </input>

    <output>
        <output-file value="./converted_scenarios/SUMO/DEU_Stu-1_7_I-1-1/DEU_Stu-1_7_I-1-1.net.xml"/>
    </output>

    <processing>
        <plain.extend-edge-shape value="true"/>
        <geometry.remove.keep-edges.explicit value="true"/>
        <geometry.avoid-overlap value="true"/>
        <offset.disable-normalization value="true"/>
    </processing>

    <junctions>
        <no-turnarounds value="true"/>
        <junctions.internal-link-detail value="20"/>
    </junctions>

    <report>
        <aggregate-warnings value="5"/>
    </report>

    <random_number>
        <seed value="1234"/>
    </random_number>

</configuration>
-->

<net version="1.6" junctionCornerDetail="5" junctionLinkDetail="20" limitTurnSpeed="5.50" xmlns:xsi="http://www.w3.org/2001/XMLSchema-instance" xsi:noNamespaceSchemaLocation="http://sumo.dlr.de/xsd/net_file.xsd">

    <location netOffset="0.00,0.00" convBoundary="-179.82,128.59,206.07,469.95" origBoundary="-181.17,128.59,207.75,471.07" projParameter="!"/>

    <edge id=":2_0" function="internal">
        <lane id=":2_0_0" index="0" disallow="rail_fast" speed="36.11" length="0.10" width="3.50" shape="-1.61,146.70 -1.61,146.70"/>
    </edge>
    <edge id=":4_0" function="internal">
        <lane id=":4_0_0" index="0" disallow="bus rail_fast" speed="36.11" length="6.85" width="3.50" shape="-55.20,255.00 -58.59,260.95"/>
    </edge>
    <edge id=":4_1" function="internal">
        <lane id=":4_1_0" index="0" disallow="bus rail_fast" speed="36.11" length="6.89" width="3.50" shape="-58.23,253.25 -61.64,259.24"/>
    </edge>
    <edge id=":5_0" function="internal">
        <lane id=":5_0_0" index="0" disallow="rail_fast" speed="36.11" length="3.00" width="3.50" shape="-22.00,156.75 -24.38,158.57"/>
    </edge>
    <edge id=":6_0" function="internal">
        <lane id=":6_0_0" index="0" disallow="bus rail_fast" speed="36.11" length="3.00" width="3.50" shape="-83.74,251.37 -83.36,254.34"/>
    </edge>
    <edge id=":7_0" function="internal">
        <lane id=":7_0_0" index="0" disallow="bus rail_fast" speed="36.11" length="17.89" width="3.50" shape="-72.71,289.05 -73.23,290.28 -73.70,291.38 -74.12,292.39 -74.51,293.30 -74.86,294.13 -75.17,294.90 -75.45,295.63 -75.72,296.32 -75.96,296.99 -76.18,297.66 -76.40,298.34 -76.61,299.05 -76.81,299.80 -77.02,300.60 -77.24,301.48 -77.46,302.44 -77.70,303.50 -77.96,304.67 -78.25,305.98"/>
        <lane id=":7_0_1" index="1" disallow="bus rail_fast" speed="36.11" length="17.89" width="3.50" shape="-76.16,288.24 -76.68,289.48 -77.15,290.59 -77.58,291.59 -77.96,292.51 -78.30,293.34 -78.61,294.12 -78.90,294.84 -79.16,295.54 -79.39,296.21 -79.62,296.89 -79.83,297.57 -80.04,298.28 -80.24,299.03 -80.45,299.84 -80.66,300.72 -80.88,301.68 -81.12,302.74 -81.38,303.92 -81.67,305.23"/>
    </edge>
    <edge id=":7_2" function="internal">
        <lane id=":7_2_0" index="0" disallow="bus rail_fast" speed="36.11" length="17.96" width="3.50" shape="-80.24,287.38 -80.23,288.17 -80.22,288.94 -80.20,289.71 -80.19,290.47 -80.17,291.24 -80.17,292.02 -80.17,292.82 -80.18,293.63 -80.21,294.47 -80.25,295.34 -80.31,296.24 -80.38,297.18 -80.48,298.16 -80.60,299.19 -80.75,300.27 -80.93,301.41 -81.14,302.62 -81.39,303.89 -81.67,305.23"/>
    </edge>

    <edge id="14" from="1" to="2" priority="1" spreadType="center" length="79.89">
        <lane id="14_0" index="0" disallow="rail_fast" speed="36.11" length="79.89" width="3.50" customShape="1" shape="76.19,128.59 37.29,137.64 -1.61,146.70"/>
    </edge>
    <edge id="16" from="3" to="4" priority="1" spreadType="center" length="367.31">
        <lane id="16_0" index="0" disallow="rail_fast" speed="36.11" length="367.31" width="3.50" customShape="1" shape="204.38,330.68 202.19,322.29 199.68,310.90 195.74,291.62 193.64,282.83 191.58,275.62 189.48,269.48 187.05,263.49 184.48,258.10 181.09,251.95 176.44,244.21 172.30,237.95 168.16,232.32 164.36,227.71 160.31,223.35 156.35,219.60 152.15,216.13 148.14,213.25 143.94,210.64 139.56,208.33 134.12,205.86 128.55,203.71 122.39,201.74 116.11,200.13 109.74,198.86 102.82,197.85 95.34,197.14 86.82,196.71 77.27,196.63 65.17,196.95 21.26,199.19 13.28,199.88 6.87,200.78 1.52,201.84 -3.26,203.11 -7.92,204.70 -12.45,206.64 -16.37,208.68 -20.10,211.01 -23.63,213.67 -26.93,216.60 -30.38,220.15 -33.91,224.32 -38.15,229.92 -50.86,248.10 -55.14,254.90 -55.20,255.00"/>
        <lane id="16_1" index="1" disallow="rail_fast" speed="36.11" length="367.31" width="3.50" customShape="1" shape="207.76,329.78 205.56,321.34 203.03,309.85 199.03,290.30 196.87,281.35 194.73,273.98 192.55,267.69 190.02,261.54 187.34,256.01 183.86,249.76 179.10,241.87 174.85,235.48 170.58,229.73 166.65,225.01 162.45,220.54 158.34,216.69 153.99,213.12 149.82,210.16 145.46,207.48 140.93,205.10 135.34,202.57 129.61,200.37 123.27,198.35 116.83,196.70 110.30,195.41 103.21,194.38 95.57,193.65 86.89,193.21 77.16,193.13 64.89,193.46 20.43,195.73 12.28,196.47 5.70,197.42 0.18,198.56 -4.75,199.91 -9.58,201.59 -14.27,203.63 -18.35,205.78 -22.24,208.24 -25.91,211.01 -29.35,214.07 -32.92,217.74 -36.56,222.03 -40.89,227.74 -53.80,246.18 -58.15,253.12 -58.23,253.25"/>
    </edge>
    <edge id="17" from="5" to="6" priority="1" spreadType="center" length="121.34">
        <lane id="17_0" index="0" disallow="rail_fast" speed="36.11" length="121.34" width="3.50" customShape="1" shape="-24.38,158.57 -30.92,163.57 -49.58,177.08 -56.43,182.44 -61.47,186.80 -65.88,191.08 -69.66,195.25 -72.84,199.26 -75.72,203.50 -78.02,207.48 -80.04,211.63 -81.74,215.91 -83.08,220.32 -84.05,224.82 -84.66,229.39 -84.95,234.50 -84.87,240.13 -84.40,246.25 -83.74,251.37"/>
    </edge>
    <edge id="19" from="7" to="8" priority="1" spreadType="center" length="196.16">
        <lane id="19_0" index="0" disallow="rail_fast" speed="36.11" length="196.16" width="3.50" acceleration="1" customShape="1" shape="-78.25,305.98 -82.72,326.66 -85.07,335.99 -87.40,343.77 -89.78,350.49 -92.51,357.08 -95.61,363.50 -99.04,369.74 -103.30,376.65 -108.97,385.01 -122.55,403.78 -130.85,414.58 -140.38,426.30 -153.07,441.25 -173.00,464.50 -178.48,471.07"/>
        <lane id="19_1" index="1" disallow="rail_fast" speed="36.11" length="196.16" width="3.50" customShape="1" shape="-81.67,305.23 -86.11,325.76 -88.42,334.98 -90.72,342.65 -93.06,349.25 -95.74,355.72 -98.79,362.03 -102.17,368.17 -106.38,374.97 -112.01,383.25 -125.51,401.89 -133.75,412.60 -143.22,424.25 -155.86,439.12 -175.72,462.30 -181.17,468.83"/>
    </edge>
    <edge id="20" from="4" to="7" priority="1" spreadType="center" length="51.22">
        <lane id="20_0" index="0" disallow="bus rail_fast" speed="36.11" length="51.22" width="3.50" customShape="1" shape="-58.59,260.95 -62.89,268.70 -67.59,277.81 -71.09,285.22 -72.71,289.05"/>
        <lane id="20_1" index="1" disallow="bus rail_fast" speed="36.11" length="51.22" width="3.50" customShape="1" shape="-61.64,259.24 -66.03,267.14 -70.79,276.40 -74.35,283.96 -76.16,288.24"/>
    </edge>
    <edge id="21" from="2" to="5" priority="1" spreadType="center" length="24.39">
        <lane id="21_0" index="0" disallow="rail_fast" speed="36.11" length="24.39" width="3.50" customShape="1" shape="-1.61,146.70 -5.61,147.83 -9.49,149.30 -13.24,151.09 -17.28,153.44 -21.13,156.08 -22.00,156.75"/>
    </edge>
    <edge id="22" from="6" to="7" priority="1" spreadType="center" length="51.14">
        <lane id="22_0" index="0" disallow="bus rail_fast" speed="36.11" length="51.14" width="3.50" customShape="1" shape="-83.36,254.34 -81.82,265.91 -80.77,276.49 -80.27,285.09 -80.24,287.38"/>
    </edge>

    <junction id="1" type="dead_end" x="76.19" y="128.59" incLanes="" intLanes="" shape="75.80,126.88 76.59,130.29"/>
    <junction id="2" type="priority" x="-1.61" y="146.70" incLanes="14_0" intLanes=":2_0_0" shape="-1.12,148.38 -1.92,144.97 -2.18,145.04 -1.23,148.41">
        <request index="0" response="0" foes="0" cont="0"/>
    </junction>
    <junction id="3" type="dead_end" x="206.07" y="330.22" incLanes="" intLanes="" shape="209.45,329.33 202.68,331.10"/>
    <junction id="4" type="priority" x="-58.44" y="257.09" incLanes="16_0 16_1" intLanes=":4_0_0 :4_1_0" shape="-53.68,255.88 -59.74,252.37 -63.16,258.38 -57.06,261.81">
        <request index="0" response="00" foes="00" cont="0"/>
        <request index="1" response="00" foes="00" cont="0"/>
    </junction>
    <junction id="5" type="priority" x="-23.18" y="157.66" incLanes="21_0" intLanes=":5_0_0" shape="-20.93,158.14 -23.06,155.36 -25.44,157.18 -23.31,159.96">
        <request index="0" response="0" foes="0" cont="0"/>
    </junction>
    <junction id="6" type="priority" x="-83.55" y="252.86" incLanes="17_0" intLanes=":6_0_0" shape="-85.09,254.57 -81.62,254.11 -82.01,251.15 -85.48,251.59">
        <request index="0" response="0" foes="0" cont="0"/>
    </junction>
    <junction id="7" type="priority" x="-79.64" y="304.12" incLanes="20_0 20_1 22_0" intLanes=":7_0_0 :7_0_1 :7_2_0" shape="-70.98,289.45 -77.89,287.84 -78.49,287.72 -82.00,287.04 -81.94,290.86 -81.89,293.69 -81.94,296.02 -82.16,298.34 -82.61,301.12 -83.38,304.86 -76.54,306.35 -75.71,302.65 -75.03,299.93 -74.35,297.71 -73.54,295.54 -72.46,292.94">
        <request index="0" response="000" foes="100" cont="0"/>
        <request index="1" response="000" foes="100" cont="0"/>
        <request index="2" response="011" foes="011" cont="0"/>
    </junction>
    <junction id="8" type="dead_end" x="-179.82" y="469.95" incLanes="19_0 19_1" intLanes="" shape="-177.13,472.19 -182.51,467.71"/>

    <connection from="14" to="21" fromLane="0" toLane="0" contPos="-4.00" via=":2_0_0" dir="s" state="M"/>
    <connection from="16" to="20" fromLane="0" toLane="0" contPos="-4.00" via=":4_0_0" dir="r" state="M"/>
    <connection from="16" to="20" fromLane="1" toLane="1" contPos="-4.00" via=":4_1_0" dir="r" state="M"/>
    <connection from="17" to="22" fromLane="0" toLane="0" contPos="-4.00" via=":6_0_0" dir="s" state="M"/>
    <connection from="20" to="19" fromLane="0" toLane="0" contPos="-4.00" via=":7_0_0" dir="s" state="M"/>
    <connection from="20" to="19" fromLane="1" toLane="1" contPos="-4.00" via=":7_0_1" dir="s" state="M"/>
    <connection from="21" to="17" fromLane="0" toLane="0" contPos="-4.00" via=":5_0_0" dir="s" state="M"/>
    <connection from="22" to="19" fromLane="0" toLane="1" contPos="-4.00" via=":7_2_0" dir="s" state="m"/>

    <connection from=":2_0" to="21" fromLane="0" toLane="0" dir="s" state="M"/>
    <connection from=":4_0" to="20" fromLane="0" toLane="0" dir="r" state="M"/>
    <connection from=":4_1" to="20" fromLane="0" toLane="1" dir="r" state="M"/>
    <connection from=":5_0" to="17" fromLane="0" toLane="0" dir="s" state="M"/>
    <connection from=":6_0" to="22" fromLane="0" toLane="0" dir="s" state="M"/>
    <connection from=":7_0" to="19" fromLane="0" toLane="0" dir="s" state="M"/>
    <connection from=":7_0" to="19" fromLane="1" toLane="1" dir="s" state="M"/>
    <connection from=":7_2" to="19" fromLane="0" toLane="1" dir="s" state="M"/>

</net>
