<!-- generated on 2020-12-18 16:19:36.069123 by ipykernel_launcher.py v1_2_0+5214-53edc58fcd
-->
<nodes>
	<node id="1" type="from" x="76.19305" y="128.5883"/>
	<node id="2" type="to" x="-1.61425" y="146.7"/>
	<node id="3" type="from" x="206.06554999999997" y="330.21889999999996"/>
	<node id="4" type="to" x="-58.443975" y="257.0886"/>
	<node id="5" type="from" x="-23.1846" y="157.66385"/>
	<node id="6" type="to" x="-83.55335" y="252.85694999999998"/>
	<node id="7" type="from" x="-79.636725" y="304.11915"/>
	<node id="8" type="to" x="-179.820025" y="469.95000000000005"/>
</nodes>
