<!-- generated on Tue Feb  9 22:17:25 2021 by Eclipse SUMO netconvert Version 1.8.0
<configuration xmlns:xsi="http://www.w3.org/2001/XMLSchema-instance" xsi:noNamespaceSchemaLocation="http://sumo.dlr.de/xsd/netconvertConfiguration.xsd">

    <input>
        <node-files value="./converted_scenarios/scenario-factory/DEU_Speyer-2_5_I-1-1/DEU_Speyer-2_5_I-1-1.nod.xml"/>
        <edge-files value="./converted_scenarios/scenario-factory/DEU_Speyer-2_5_I-1-1/DEU_Speyer-2_5_I-1-1.edg.xml"/>
        <connection-files value="./converted_scenarios/scenario-factory/DEU_Speyer-2_5_I-1-1/DEU_Speyer-2_5_I-1-1.con.xml"/>
        <tllogic-files value="./converted_scenarios/scenario-factory/DEU_Speyer-2_5_I-1-1/DEU_Speyer-2_5_I-1-1.tll.xml"/>
        <type-files value="/home/zen/commonroad-interactive-benchmarks/install/commonroad-map-tool/crmapconverter/sumo_map/templates/DEU.typ.xml"/>
    </input>

    <output>
        <output-file value="./converted_scenarios/scenario-factory/DEU_Speyer-2_5_I-1-1/DEU_Speyer-2_5_I-1-1.net.xml"/>
    </output>

    <processing>
        <geometry.remove.keep-edges.explicit value="true"/>
        <geometry.avoid-overlap value="true"/>
        <offset.disable-normalization value="true"/>
    </processing>

    <junctions>
        <no-turnarounds value="true"/>
        <junctions.internal-link-detail value="20"/>
    </junctions>

    <report>
        <aggregate-warnings value="5"/>
    </report>

    <random_number>
        <seed value="1234"/>
    </random_number>

</configuration>
--><net xmlns:xsi="http://www.w3.org/2001/XMLSchema-instance" version="1.6" junctionCornerDetail="5" junctionLinkDetail="20" limitTurnSpeed="5.50" xsi:noNamespaceSchemaLocation="http://sumo.dlr.de/xsd/net_file.xsd">

    <location netOffset="0.00,0.00" convBoundary="-370.05,830.80,-197.80,973.05" origBoundary="-370.05,830.80,-197.80,973.05" projParameter="!"/>

    <type id="highway.bridleway" priority="1" speed="2.78" allow="pedestrian" oneway="1" width="2.00"/>
    <type id="highway.bus_guideway" priority="1" speed="27.78" allow="bus" oneway="1"/>
    <type id="highway.cycleway" priority="1" speed="8.33" allow="bicycle" oneway="0" width="1.00"/>
    <type id="highway.footway" priority="1" speed="2.78" allow="pedestrian" oneway="1" width="2.00"/>
    <type id="highway.ford" priority="1" speed="2.78" allow="army" oneway="0"/>
    <type id="highway.living_street" priority="2" speed="2.78" disallow="tram rail_urban rail rail_electric rail_fast ship" oneway="0"/>
    <type id="highway.motorway" priority="14" speed="39.44" allow="private emergency authority army vip passenger hov taxi bus coach delivery truck trailer motorcycle evehicle custom1 custom2" oneway="1"/>
    <type id="highway.motorway_link" priority="9" speed="22.22" allow="private emergency authority army vip passenger hov taxi bus coach delivery truck trailer motorcycle evehicle custom1 custom2" oneway="1"/>
    <type id="highway.path" priority="1" speed="2.78" allow="pedestrian bicycle" oneway="0" width="2.00"/>
    <type id="highway.pedestrian" priority="1" speed="2.78" allow="pedestrian" oneway="1" width="2.00"/>
    <type id="highway.primary" priority="12" speed="27.78" disallow="pedestrian tram rail_urban rail rail_electric rail_fast ship" oneway="0"/>
    <type id="highway.primary_link" priority="7" speed="22.22" disallow="pedestrian tram rail_urban rail rail_electric rail_fast ship" oneway="0"/>
    <type id="highway.raceway" priority="15" speed="83.33" allow="vip" oneway="0"/>
    <type id="highway.residential" priority="3" speed="13.89" disallow="pedestrian tram rail_urban rail rail_electric rail_fast ship" oneway="0"/>
    <type id="highway.secondary" priority="11" speed="27.78" disallow="pedestrian tram rail_urban rail rail_electric rail_fast ship" oneway="0"/>
    <type id="highway.secondary_link" priority="6" speed="22.22" disallow="pedestrian tram rail_urban rail rail_electric rail_fast ship" oneway="0"/>
    <type id="highway.service" priority="1" speed="5.56" allow="pedestrian delivery bicycle" oneway="0"/>
    <type id="highway.stairs" priority="1" speed="1.39" allow="pedestrian" oneway="1" width="2.00"/>
    <type id="highway.step" priority="1" speed="1.39" allow="pedestrian" oneway="1" width="2.00"/>
    <type id="highway.steps" priority="1" speed="1.39" allow="pedestrian" oneway="1" width="2.00"/>
    <type id="highway.tertiary" priority="10" speed="22.22" disallow="pedestrian tram rail_urban rail rail_electric rail_fast ship" oneway="0"/>
    <type id="highway.tertiary_link" priority="5" speed="22.22" disallow="pedestrian tram rail_urban rail rail_electric rail_fast ship" oneway="0"/>
    <type id="highway.track" priority="1" speed="5.56" allow="pedestrian motorcycle moped bicycle" oneway="0"/>
    <type id="highway.trunk" priority="13" speed="27.78" disallow="pedestrian bicycle tram rail_urban rail rail_electric rail_fast ship" oneway="0"/>
    <type id="highway.trunk_link" priority="8" speed="22.22" disallow="pedestrian bicycle tram rail_urban rail rail_electric rail_fast ship" oneway="0"/>
    <type id="highway.unclassified" priority="4" speed="13.89" disallow="pedestrian tram rail_urban rail rail_electric rail_fast ship" oneway="0"/>
    <type id="highway.unsurfaced" priority="1" speed="8.33" disallow="tram rail_urban rail rail_electric rail_fast ship" oneway="0"/>
    <type id="railway.highspeed" priority="21" speed="69.44" allow="rail_fast" oneway="1"/>
    <type id="railway.light_rail" priority="19" speed="27.78" allow="rail_urban" oneway="1"/>
    <type id="railway.preserved" priority="16" speed="27.78" allow="rail" oneway="1"/>
    <type id="railway.rail" priority="20" speed="44.44" allow="rail" oneway="1"/>
    <type id="railway.subway" priority="18" speed="27.78" allow="rail_urban" oneway="1"/>
    <type id="railway.tram" priority="17" speed="13.89" allow="tram" oneway="1"/>

    <edge id=":12_0" function="internal">
        <lane id=":12_0_0" index="0" disallow="pedestrian tram rail_urban rail rail_electric rail_fast ship" speed="36.11" length="2.95" width="3.50" shape="-298.91,945.29 -300.04,948.02"/>
    </edge>
    <edge id=":23_0" function="internal">
        <lane id=":23_0_0" index="0" disallow="pedestrian tram rail_urban rail rail_electric rail_fast ship" speed="11.62" length="30.19" width="3.50" shape="-264.59,907.14 -267.68,906.22 -269.80,905.82 -271.95,905.64 -274.11,905.72 -276.23,906.11 -278.27,906.82 -280.17,907.83 -281.90,909.12 -283.45,910.62 -284.81,912.30 -286.00,914.10 -287.52,916.95 -288.38,918.93"/>
    </edge>
    <edge id=":23_1" function="internal">
        <lane id=":23_1_0" index="0" disallow="pedestrian tram rail_urban rail rail_electric rail_fast ship" speed="36.11" length="42.41" width="3.50" shape="-264.59,907.14 -284.59,900.11 -304.60,893.07"/>
    </edge>
    <edge id=":23_2" function="internal">
        <lane id=":23_2_0" index="0" disallow="pedestrian tram rail_urban rail rail_electric rail_fast ship" speed="12.69" length="38.00" width="3.50" shape="-264.59,907.14 -268.37,905.60 -271.48,903.99 -273.93,902.39 -276.19,900.54 -277.80,898.85 -279.19,896.96 -280.30,894.91 -281.10,892.71 -281.57,890.42 -281.74,888.09 -281.56,885.18 -281.01,882.30 -279.99,878.95 -279.57,877.83"/>
    </edge>
    <edge id=":23_3" function="internal">
        <lane id=":23_3_0" index="0" disallow="pedestrian tram rail_urban rail rail_electric rail_fast ship" speed="11.19" length="29.28" width="3.50" shape="-273.06,880.40 -274.20,883.75 -274.83,886.61 -275.07,888.94 -275.01,891.28 -274.58,893.58 -274.00,895.23 -273.18,896.79 -272.16,898.21 -270.52,899.89 -268.65,901.30 -266.10,902.73 -263.41,903.85"/>
    </edge>
    <edge id=":23_4" function="internal">
        <lane id=":23_4_0" index="0" disallow="pedestrian tram rail_urban rail rail_electric rail_fast ship" speed="36.11" length="41.46" width="3.50" shape="-273.06,880.40 -280.73,899.68 -288.38,918.93"/>
    </edge>
    <edge id=":23_5" function="internal">
        <lane id=":23_5_0" index="0" disallow="pedestrian tram rail_urban rail rail_electric rail_fast ship" speed="12.63" length="35.89" width="3.50" shape="-276.32,879.12 -277.89,882.65 -279.12,884.89 -280.54,887.03 -282.16,889.01 -284.00,890.79 -286.06,892.31 -287.18,892.95 -288.33,893.50 -289.53,893.95 -292.01,894.58 -294.56,894.84 -297.12,894.78 -299.65,894.43 -302.15,893.84 -304.60,893.07"/>
    </edge>
    <edge id=":23_6" function="internal">
        <lane id=":23_6_0" index="0" disallow="pedestrian tram rail_urban rail rail_electric rail_fast ship" speed="11.66" length="30.45" width="3.50" shape="-303.43,889.77 -301.29,890.45 -299.13,890.95 -296.97,891.25 -294.82,891.30 -292.71,891.08 -290.64,890.54 -289.70,890.17 -288.76,889.72 -287.88,889.21 -286.15,887.94 -284.62,886.44 -283.25,884.75 -282.03,882.91 -280.96,880.96 -279.57,877.83"/>
    </edge>
    <edge id=":23_7" function="internal">
        <lane id=":23_7_0" index="0" disallow="pedestrian tram rail_urban rail rail_electric rail_fast ship" speed="36.11" length="42.42" width="3.50" shape="-303.43,889.77 -283.42,896.81 -263.41,903.85"/>
    </edge>
    <edge id=":23_8" function="internal">
        <lane id=":23_8_0" index="0" disallow="pedestrian tram rail_urban rail rail_electric rail_fast ship" speed="12.65" length="37.98" width="3.50" shape="-303.43,889.77 -299.63,891.30 -296.50,892.89 -294.04,894.46 -291.77,896.30 -290.15,897.98 -288.75,899.85 -287.63,901.90 -286.82,904.09 -286.34,906.38 -286.18,908.71 -286.37,911.63 -286.93,914.49 -287.96,917.84 -288.38,918.93"/>
    </edge>
    <edge id=":23_9" function="internal">
        <lane id=":23_9_0" index="0" disallow="pedestrian tram rail_urban rail rail_electric rail_fast ship" speed="11.14" length="29.19" width="3.50" shape="-294.88,916.33 -293.72,912.95 -293.07,910.04 -292.84,907.67 -292.94,905.29 -293.26,903.53 -293.83,901.84 -294.64,900.25 -295.67,898.79 -296.89,897.48 -298.74,895.98 -300.77,894.74 -303.48,893.49 -304.60,893.07"/>
    </edge>
    <edge id=":23_10" function="internal">
        <lane id=":23_10_0" index="0" disallow="pedestrian tram rail_urban rail rail_electric rail_fast ship" speed="36.11" length="41.43" width="3.50" shape="-294.88,916.33 -287.23,897.09 -279.57,877.83"/>
    </edge>
    <edge id=":23_11" function="internal">
        <lane id=":23_11_0" index="0" disallow="pedestrian tram rail_urban rail rail_electric rail_fast ship" speed="12.59" length="35.63" width="3.50" shape="-291.63,917.63 -290.64,915.36 -288.90,912.11 -287.50,910.00 -285.89,908.04 -284.04,906.25 -281.94,904.71 -279.62,903.49 -277.14,902.65 -274.57,902.19 -271.99,902.09 -269.45,902.31 -266.96,902.78 -263.41,903.85"/>
    </edge>
    <edge id=":24_0" function="internal">
        <lane id=":24_0_0" index="0" disallow="pedestrian tram rail_urban rail rail_electric rail_fast ship" speed="36.11" length="3.27" width="3.50" shape="-303.40,946.98 -302.14,943.96"/>
    </edge>
    <edge id=":24_1" function="internal">
        <lane id=":24_1_0" index="0" disallow="pedestrian tram rail_urban rail rail_electric rail_fast ship" speed="36.11" length="3.16" width="3.50" shape="-306.52,945.62 -305.40,942.67"/>
    </edge>
    <edge id=":26_0" function="internal">
        <lane id=":26_0_0" index="0" disallow="pedestrian tram rail_urban rail rail_electric rail_fast ship" speed="36.11" length="3.29" width="3.50" shape="-267.54,857.00 -268.80,860.04"/>
    </edge>
    <edge id=":26_1" function="internal">
        <lane id=":26_1_0" index="0" disallow="pedestrian tram rail_urban rail rail_electric rail_fast ship" speed="36.11" length="3.17" width="3.50" shape="-264.42,858.34 -265.54,861.31"/>
    </edge>
    <edge id=":9_0" function="internal">
        <lane id=":9_0_0" index="0" disallow="pedestrian tram rail_urban rail rail_electric rail_fast ship" speed="36.11" length="0.25" width="3.50" shape="-271.53,857.43 -271.44,857.20"/>
    </edge>

    <edge id="47715" from="24" to="23" priority="3" type="highway.residential" spreadType="center" length="28.36" shape="-304.33,944.72 -287.20,897.01">
        <lane id="47715_0" index="0" disallow="pedestrian tram rail_urban rail rail_electric rail_fast ship" speed="36.11" length="28.36" width="3.50" acceleration="1" customShape="1" shape="-305.40,942.67 -300.42,930.21 -294.88,916.33"/>
        <lane id="47715_1" index="1" disallow="pedestrian tram rail_urban rail rail_electric rail_fast ship" speed="36.11" length="28.37" width="3.50" customShape="1" shape="-302.14,943.96 -297.17,931.51 -291.62,917.61"/>
    </edge>
    <edge id="47717" from="23" to="12" priority="3" type="highway.residential" spreadType="center" length="28.39" shape="-282.33,898.95 -299.45,946.67">
        <lane id="47717_0" index="0" disallow="pedestrian tram rail_urban rail rail_electric rail_fast ship" speed="36.11" length="28.39" width="3.50" customShape="1" shape="-288.38,918.93 -293.92,932.80 -298.91,945.29"/>
    </edge>
    <edge id="47734" from="23" to="6" priority="3" type="highway.residential" spreadType="center" length="70.00" shape="-284.57,900.07 -370.05,868.26">
        <lane id="47734_0" index="0" disallow="pedestrian tram rail_urban rail rail_electric rail_fast ship" speed="36.11" length="70.00" width="3.50" customShape="1" shape="-304.60,893.07 -320.21,887.50 -340.48,880.00 -361.06,871.94 -370.05,868.26"/>
    </edge>
    <edge id="47735" from="18" to="23" priority="3" type="highway.residential" spreadType="center" length="70.01" shape="-368.88,864.96 -283.35,896.79">
        <lane id="47735_0" index="0" disallow="pedestrian tram rail_urban rail rail_electric rail_fast ship" speed="36.11" length="70.01" width="3.50" customShape="1" shape="-368.88,864.96 -359.78,868.69 -339.24,876.73 -319.01,884.21 -303.42,889.77"/>
    </edge>
    <edge id="47773" from="23" to="9" priority="3" type="highway.residential" spreadType="center" length="21.93" shape="-285.67,897.91 -271.49,857.31">
        <lane id="47773_0" index="0" disallow="pedestrian tram rail_urban rail rail_electric rail_fast ship" speed="36.11" length="21.93" width="3.50" customShape="1" shape="-279.57,877.83 -275.53,867.58 -271.53,857.43"/>
    </edge>
    <edge id="47775" from="26" to="23" priority="3" type="highway.residential" spreadType="center" length="20.53" shape="-266.61,859.25 -280.79,899.84">
        <lane id="47775_0" index="0" disallow="pedestrian tram rail_urban rail rail_electric rail_fast ship" speed="36.11" length="20.54" width="3.50" customShape="1" shape="-265.54,861.31 -269.02,870.15 -273.07,880.42"/>
        <lane id="47775_1" index="1" disallow="pedestrian tram rail_urban rail rail_electric rail_fast ship" speed="36.11" length="20.53" width="3.50" customShape="1" shape="-268.80,860.04 -272.28,868.87 -276.32,879.14"/>
    </edge>
    <edge id="47788" from="23" to="3" priority="3" type="highway.residential" spreadType="center" length="70.00" shape="-283.42,896.76 -197.80,928.24">
        <lane id="47788_0" index="0" disallow="pedestrian tram rail_urban rail rail_electric rail_fast ship" speed="36.11" length="70.00" width="3.50" customShape="1" shape="-263.41,903.85 -260.09,905.05 -215.82,921.43 -197.80,928.24"/>
    </edge>
    <edge id="47789" from="17" to="23" priority="3" type="highway.residential" spreadType="center" length="70.01" shape="-198.98,931.53 -284.63,900.05">
        <lane id="47789_0" index="0" disallow="pedestrian tram rail_urban rail rail_electric rail_fast ship" speed="36.11" length="70.01" width="3.50" customShape="1" shape="-198.98,931.53 -217.03,924.71 -261.28,908.34 -264.60,907.14"/>
    </edge>
    <edge id="47918" from="27" to="26" priority="3" type="highway.residential" spreadType="center" length="27.61">
        <lane id="47918_0" index="0" disallow="pedestrian tram rail_urban rail rail_electric rail_fast ship" speed="36.11" length="27.61" width="3.50" customShape="1" shape="-255.87,832.10 -257.95,837.88 -263.05,854.57 -264.42,858.34"/>
    </edge>
    <edge id="47919" from="27" to="26" priority="3" type="highway.residential" spreadType="center" length="27.51">
        <lane id="47919_0" index="0" disallow="pedestrian tram rail_urban rail rail_electric rail_fast ship" speed="36.11" length="27.51" width="3.50" customShape="1" shape="-255.87,832.10 -258.39,837.93 -265.78,852.93 -267.54,857.00"/>
    </edge>
    <edge id="47928" from="25" to="24" priority="3" type="highway.residential" spreadType="center" length="27.38">
        <lane id="47928_0" index="0" disallow="pedestrian tram rail_urban rail rail_electric rail_fast ship" speed="36.11" length="27.38" width="3.50" customShape="1" shape="-315.05,971.75 -312.53,965.95 -305.16,951.02 -303.40,946.98"/>
    </edge>
    <edge id="47929" from="25" to="24" priority="3" type="highway.residential" spreadType="center" length="27.50">
        <lane id="47929_0" index="0" disallow="pedestrian tram rail_urban rail rail_electric rail_fast ship" speed="36.11" length="27.50" width="3.50" customShape="1" shape="-315.05,971.75 -312.97,965.99 -307.88,949.37 -306.52,945.62"/>
    </edge>
    <edge id="48030" from="12" to="15" priority="3" type="highway.residential" spreadType="center" length="27.66">
        <lane id="48030_0" index="0" disallow="pedestrian tram rail_urban rail rail_electric rail_fast ship" speed="36.11" length="27.66" width="3.50" customShape="1" shape="-300.04,948.02 -301.94,952.40 -309.32,967.33 -311.80,973.05"/>
    </edge>
    <edge id="48031" from="9" to="16" priority="3" type="highway.residential" spreadType="center" length="29.15">
        <lane id="48031_0" index="0" disallow="pedestrian tram rail_urban rail rail_electric rail_fast ship" speed="36.11" length="29.15" width="3.50" customShape="1" shape="-271.44,857.20 -269.00,851.55 -261.61,836.55 -259.11,830.80"/>
    </edge>

    <junction id="12" type="priority" x="-299.45" y="946.67" incLanes="47717_0" intLanes=":12_0_0" shape="-297.28,945.94 -300.53,944.65 -301.65,947.33 -298.44,948.72" rightOfWay="edgePriority">
        <request index="0" response="0" foes="0" cont="0"/>
    </junction>
    <junction id="15" type="dead_end" x="-311.80" y="973.05" incLanes="48030_0" intLanes="" shape="-310.20,973.75 -313.41,972.35" rightOfWay="edgePriority"/>
    <junction id="16" type="dead_end" x="-259.11" y="830.80" incLanes="48031_0" intLanes="" shape="-260.72,830.10 -257.51,831.50" rightOfWay="edgePriority"/>
    <junction id="17" type="dead_end" x="-198.98" y="931.53" incLanes="" intLanes="" shape="-198.36,929.90 -199.60,933.17" rightOfWay="edgePriority"/>
    <junction id="18" type="dead_end" x="-368.88" y="864.96" incLanes="" intLanes="" shape="-369.54,866.57 -368.21,863.34" rightOfWay="edgePriority"/>
    <junction id="23" type="priority" x="-283.99" y="898.42" incLanes="47789_0 47775_0 47775_1 47735_0 47715_0 47715_1" intLanes=":23_0_0 :23_1_0 :23_2_0 :23_3_0 :23_4_0 :23_5_0 :23_6_0 :23_7_0 :23_8_0 :23_9_0 :23_10_0 :23_11_0" shape="-265.20,908.78 -262.82,902.20 -267.18,900.12 -270.37,897.47 -272.39,894.23 -273.24,890.41 -272.92,886.02 -271.43,881.04 -281.20,877.19 -283.59,882.04 -286.47,885.67 -289.83,888.10 -293.68,889.32 -298.01,889.33 -302.84,888.12 -305.19,894.72 -300.80,896.78 -297.59,899.41 -295.55,902.62 -294.69,906.40 -295.01,910.76 -296.50,915.68 -286.75,919.58 -284.35,914.77 -281.48,911.16 -278.12,908.76 -274.29,907.56 -269.98,907.57">
        <request index="0" response="000000010000" foes="000100010000" cont="0"/>
        <request index="1" response="111000110000" foes="111100110000" cont="0"/>
        <request index="2" response="110011110000" foes="110011110000" cont="0"/>
        <request index="3" response="000000000000" foes="100010000000" cont="0"/>
        <request index="4" response="000000000000" foes="100110000111" cont="0"/>
        <request index="5" response="011000000000" foes="011110000110" cont="0"/>
        <request index="6" response="010000000000" foes="010000000100" cont="0"/>
        <request index="7" response="110000111000" foes="110000111100" cont="0"/>
        <request index="8" response="110000110011" foes="110000110011" cont="0"/>
        <request index="9" response="000000000000" foes="000000100010" cont="0"/>
        <request index="10" response="000000000000" foes="000111100110" cont="0"/>
        <request index="11" response="000000011000" foes="000110011110" cont="0"/>
    </junction>
    <junction id="24" type="priority" x="-304.33" y="944.72" incLanes="47928_0 47929_0" intLanes=":24_0_0 :24_1_0" shape="-300.51,944.60 -307.02,942.02 -308.13,944.93 -301.80,947.67">
        <request index="0" response="00" foes="00" cont="0"/>
        <request index="1" response="00" foes="00" cont="0"/>
    </junction>
    <junction id="25" type="dead_end" x="-315.05" y="971.75" incLanes="" intLanes="" shape="-313.45,972.44 -316.65,971.05 -313.40,972.34 -316.70,971.15"/>
    <junction id="26" type="priority" x="-266.61" y="859.25" incLanes="47919_0 47918_0" intLanes=":26_0_0 :26_1_0" shape="-262.81,859.04 -269.14,856.30 -270.43,859.40 -263.90,861.94">
        <request index="0" response="00" foes="00" cont="0"/>
        <request index="1" response="00" foes="00" cont="0"/>
    </junction>
    <junction id="27" type="dead_end" x="-255.87" y="832.10" incLanes="" intLanes="" shape="-257.47,831.41 -254.26,832.80 -257.51,831.51 -254.22,832.70"/>
    <junction id="3" type="dead_end" x="-197.80" y="928.24" incLanes="47788_0" intLanes="" shape="-197.18,926.60 -198.42,929.87" rightOfWay="edgePriority"/>
    <junction id="6" type="dead_end" x="-370.05" y="868.26" incLanes="47734_0" intLanes="" shape="-370.71,869.88 -369.38,866.64" rightOfWay="edgePriority"/>
    <junction id="9" type="priority" x="-271.49" y="857.31" incLanes="47773_0" intLanes=":9_0_0" shape="-269.83,857.89 -273.04,856.51 -273.16,856.79 -269.90,858.07" rightOfWay="edgePriority">
        <request index="0" response="0" foes="0" cont="0"/>
    </junction>

    <connection from="47715" to="47734" fromLane="0" toLane="0" contPos="-4.00" shape="-294.88,916.33 -293.72,912.95 -293.07,910.04 -292.84,907.67 -292.94,905.29 -293.26,903.53 -293.83,901.84 -294.64,900.25 -295.67,898.79 -296.89,897.48 -298.74,895.98 -300.77,894.74 -303.48,893.49 -304.60,893.07" via=":23_9_0" dir="r" state="M"/>
    <connection from="47715" to="47773" fromLane="0" toLane="0" contPos="-4.00" shape="-294.88,916.33 -287.23,897.09 -279.57,877.83" via=":23_10_0" dir="s" state="M"/>
    <connection from="47715" to="47788" fromLane="1" toLane="0" contPos="-4.00" shape="-291.62,917.61 -290.64,915.36 -288.90,912.11 -287.50,910.00 -285.89,908.04 -284.04,906.25 -281.94,904.71 -279.62,903.49 -277.14,902.65 -274.57,902.19 -271.99,902.09 -269.45,902.31 -266.96,902.78 -263.41,903.85" via=":23_11_0" dir="l" state="m"/>
    <connection from="47717" to="48030" fromLane="0" toLane="0" contPos="-4.00" via=":12_0_0" dir="s" state="M"/>
    <connection from="47735" to="47773" fromLane="0" toLane="0" contPos="-4.00" shape="-303.43,889.77 -301.29,890.45 -299.13,890.95 -296.97,891.25 -294.82,891.30 -292.71,891.08 -290.64,890.54 -289.70,890.17 -288.76,889.72 -287.88,889.21 -286.15,887.94 -284.62,886.44 -283.25,884.75 -282.03,882.91 -280.96,880.96 -279.57,877.83" via=":23_6_0" dir="r" state="m"/>
    <connection from="47735" to="47788" fromLane="0" toLane="0" contPos="-4.00" shape="-303.43,889.77 -283.42,896.81 -263.41,903.85" via=":23_7_0" dir="s" state="m"/>
    <connection from="47735" to="47717" fromLane="0" toLane="0" contPos="-4.00" shape="-303.43,889.77 -299.63,891.30 -296.50,892.89 -294.04,894.46 -291.77,896.30 -290.15,897.98 -288.75,899.85 -287.63,901.90 -286.82,904.09 -286.34,906.38 -286.18,908.71 -286.37,911.63 -286.93,914.49 -287.96,917.84 -288.38,918.93" via=":23_8_0" dir="l" state="m"/>
    <connection from="47773" to="48031" fromLane="0" toLane="0" contPos="-4.00" via=":9_0_0" dir="s" state="M"/>
    <connection from="47775" to="47788" fromLane="0" toLane="0" contPos="-4.00" shape="-273.07,880.42 -274.20,883.75 -274.83,886.61 -275.07,888.94 -275.01,891.28 -274.58,893.58 -274.00,895.23 -273.18,896.79 -272.16,898.21 -270.52,899.89 -268.65,901.30 -266.10,902.73 -263.41,903.85" via=":23_3_0" dir="r" state="M"/>
    <connection from="47775" to="47717" fromLane="0" toLane="0" contPos="-4.00" shape="-273.07,880.42 -280.73,899.68 -288.38,918.93" via=":23_4_0" dir="s" state="M"/>
    <connection from="47775" to="47734" fromLane="1" toLane="0" contPos="-4.00" shape="-276.32,879.14 -277.89,882.65 -279.12,884.89 -280.54,887.03 -282.16,889.01 -284.00,890.79 -286.06,892.31 -287.18,892.95 -288.33,893.50 -289.53,893.95 -292.01,894.58 -294.56,894.84 -297.12,894.78 -299.65,894.43 -302.15,893.84 -304.60,893.07" via=":23_5_0" dir="l" state="m"/>
    <connection from="47789" to="47717" fromLane="0" toLane="0" contPos="-4.00" shape="-264.59,907.14 -267.68,906.22 -269.80,905.82 -271.95,905.64 -274.11,905.72 -276.23,906.11 -278.27,906.82 -280.17,907.83 -281.90,909.12 -283.45,910.62 -284.81,912.30 -286.00,914.10 -287.52,916.95 -288.38,918.93" via=":23_0_0" dir="r" state="m"/>
    <connection from="47789" to="47734" fromLane="0" toLane="0" contPos="-4.00" shape="-264.59,907.14 -284.59,900.11 -304.60,893.07" via=":23_1_0" dir="s" state="m"/>
    <connection from="47789" to="47773" fromLane="0" toLane="0" contPos="-4.00" shape="-264.59,907.14 -268.37,905.60 -271.48,903.99 -273.93,902.39 -276.19,900.54 -277.80,898.85 -279.19,896.96 -280.30,894.91 -281.10,892.71 -281.57,890.42 -281.74,888.09 -281.56,885.18 -281.01,882.30 -279.99,878.95 -279.57,877.83" via=":23_2_0" dir="l" state="m"/>
    <connection from="47918" to="47775" fromLane="0" toLane="0" contPos="-4.00" via=":26_1_0" dir="s" state="M"/>
    <connection from="47919" to="47775" fromLane="0" toLane="1" contPos="-4.00" via=":26_0_0" dir="s" state="M"/>
    <connection from="47928" to="47715" fromLane="0" toLane="1" contPos="-4.00" via=":24_0_0" dir="s" state="M"/>
    <connection from="47929" to="47715" fromLane="0" toLane="0" contPos="-4.00" via=":24_1_0" dir="s" state="M"/>

    <connection from=":12_0" to="48030" fromLane="0" toLane="0" dir="s" state="M"/>
    <connection from=":23_0" to="47717" fromLane="0" toLane="0" dir="r" state="M"/>
    <connection from=":23_1" to="47734" fromLane="0" toLane="0" dir="s" state="M"/>
    <connection from=":23_2" to="47773" fromLane="0" toLane="0" dir="l" state="M"/>
    <connection from=":23_3" to="47788" fromLane="0" toLane="0" dir="r" state="M"/>
    <connection from=":23_4" to="47717" fromLane="0" toLane="0" dir="s" state="M"/>
    <connection from=":23_5" to="47734" fromLane="0" toLane="0" dir="l" state="M"/>
    <connection from=":23_6" to="47773" fromLane="0" toLane="0" dir="r" state="M"/>
    <connection from=":23_7" to="47788" fromLane="0" toLane="0" dir="s" state="M"/>
    <connection from=":23_8" to="47717" fromLane="0" toLane="0" dir="l" state="M"/>
    <connection from=":23_9" to="47734" fromLane="0" toLane="0" dir="r" state="M"/>
    <connection from=":23_10" to="47773" fromLane="0" toLane="0" dir="s" state="M"/>
    <connection from=":23_11" to="47788" fromLane="0" toLane="0" dir="l" state="M"/>
    <connection from=":24_0" to="47715" fromLane="0" toLane="1" dir="s" state="M"/>
    <connection from=":24_1" to="47715" fromLane="0" toLane="0" dir="s" state="M"/>
    <connection from=":26_0" to="47775" fromLane="0" toLane="1" dir="s" state="M"/>
    <connection from=":26_1" to="47775" fromLane="0" toLane="0" dir="s" state="M"/>
    <connection from=":9_0" to="48031" fromLane="0" toLane="0" dir="s" state="M"/>

</net>