<routes>
	<vehicle depart="0.1" departLane="0" departPos="19.317827775333168" departSpeed="2.7103387" id="31" type="passenger">
		<route edges="40350 40272"/>
	</vehicle>
	<vehicle depart="0.1" departLane="0" departPos="62.03760979450871" departSpeed="0.0" id="37" type="passenger">
		<route edges="40349 40409"/>
	</vehicle>
	<vehicle depart="0.1" departLane="0" departPos="36.18753813988817" departSpeed="0.0" id="312" type="passenger">
		<route edges="40347 40176"/>
	</vehicle>
	<vehicle depart="0.1" departLane="0" departPos="54.53446399380477" departSpeed="0.0014031472" id="316" type="passenger">
		<route edges="40349 40409"/>
	</vehicle>
	<vehicle depart="0.1" departLane="0" departPos="8.162256683094116" departSpeed="0.061417752" id="318" type="passenger">
		<route edges=":55_5 40175"/>
	</vehicle>
	<vehicle depart="0.1" departLane="0" departPos="27.085099682395068" departSpeed="7.314681" id="328" type="passenger">
		<route edges="40175 40350"/>
	</vehicle>
	<vehicle depart="0.1" departLane="0" departPos="2.5" departSpeed="3.9631716" id="346" type="passenger">
		<route edges=":53_2 40346 40290"/>
	</vehicle>
	<vehicle depart="0.1" departLane="0" departPos="54.51561113521299" departSpeed="2.3738648" id="354" type="passenger">
		<route edges="40410 40350 40272"/>
	</vehicle>
	<vehicle depart="0.1" departLane="0" departPos="24.53936522625435" departSpeed="8.1432697" id="323" type="motorcycle">
		<route edges=":53_6 40346 40290"/>
	</vehicle>
	<vehicle depart="0.1" departLane="0" departPos="18.19694946493577" departSpeed="9.9509701" id="335" type="motorcycle">
		<route edges="40175 40409"/>
	</vehicle>
</routes>
