<routes>
	<vehicle depart="0.1" departLane="0" departPos="15.984198408962008" departSpeed="0.0" id="37" type="bicycle">
		<route edges=":54_1 5571"/>
	</vehicle>
	<vehicle depart="0.1" departLane="0" departPos="13.740345906799075" departSpeed="0.16297976" id="39" type="bicycle">
		<route edges=":60_2 5557 5483"/>
	</vehicle>
	<vehicle depart="0.1" departLane="0" departPos="16.654353039691507" departSpeed="0.0" id="311" type="passenger">
		<route edges=":54_1 5571"/>
	</vehicle>
	<vehicle depart="0.1" departLane="0" departPos="9.594005925254223" departSpeed="0.040382165" id="327" type="passenger">
		<route edges=":54_1 5571"/>
	</vehicle>
	<vehicle depart="0.1" departLane="0" departPos="19.24486132267175" departSpeed="1.4001296" id="336" type="passenger">
		<route edges=":55_0 5996 5591"/>
	</vehicle>
	<vehicle depart="0.1" departLane="0" departPos="5.594066856313496" departSpeed="7.2040581" id="343" type="passenger">
		<route edges=":55_3 5996"/>
	</vehicle>
	<vehicle depart="0.1" departLane="0" departPos="3.3206496193636243" departSpeed="0.64759929" id="321" type="motorcycle">
		<route edges=":55_4 5992 5989"/>
	</vehicle>
	<vehicle depart="0.1" departLane="0" departPos="22.439185440887357" departSpeed="0.50688926" id="30" type="truck">
		<route edges=":55_5 5484"/>
	</vehicle>
	<vehicle depart="0.1" departLane="0" departPos="9.268579894562087" departSpeed="1.7143013" id="319" type="truck">
		<route edges=":59_1 5555"/>
	</vehicle>
</routes>
