<!-- generated on Tue Feb  9 22:13:38 2021 by Eclipse SUMO netconvert Version 1.8.0
<configuration xmlns:xsi="http://www.w3.org/2001/XMLSchema-instance" xsi:noNamespaceSchemaLocation="http://sumo.dlr.de/xsd/netconvertConfiguration.xsd">

    <input>
        <node-files value="./converted_scenarios/scenario-factory/ARG_Carcarana-13_1_I-1-1/ARG_Carcarana-13_1_I-1-1.nod.xml"/>
        <edge-files value="./converted_scenarios/scenario-factory/ARG_Carcarana-13_1_I-1-1/ARG_Carcarana-13_1_I-1-1.edg.xml"/>
        <connection-files value="./converted_scenarios/scenario-factory/ARG_Carcarana-13_1_I-1-1/ARG_Carcarana-13_1_I-1-1.con.xml"/>
        <tllogic-files value="./converted_scenarios/scenario-factory/ARG_Carcarana-13_1_I-1-1/ARG_Carcarana-13_1_I-1-1.tll.xml"/>
        <type-files value="/home/zen/commonroad-interactive-benchmarks/install/commonroad-map-tool/crmapconverter/sumo_map/templates/DEU.typ.xml"/>
    </input>

    <output>
        <output-file value="./converted_scenarios/scenario-factory/ARG_Carcarana-13_1_I-1-1/ARG_Carcarana-13_1_I-1-1.net.xml"/>
    </output>

    <processing>
        <geometry.remove.keep-edges.explicit value="true"/>
        <geometry.avoid-overlap value="true"/>
        <offset.disable-normalization value="true"/>
    </processing>

    <junctions>
        <no-turnarounds value="true"/>
        <junctions.internal-link-detail value="20"/>
    </junctions>

    <report>
        <aggregate-warnings value="5"/>
    </report>

    <random_number>
        <seed value="1234"/>
    </random_number>

</configuration>
--><net xmlns:xsi="http://www.w3.org/2001/XMLSchema-instance" version="1.6" junctionCornerDetail="5" junctionLinkDetail="20" limitTurnSpeed="5.50" xsi:noNamespaceSchemaLocation="http://sumo.dlr.de/xsd/net_file.xsd">

    <location netOffset="0.00,0.00" convBoundary="3.64,803.59,235.83,1001.95" origBoundary="3.64,803.59,235.83,1001.95" projParameter="!"/>

    <type id="highway.bridleway" priority="1" speed="2.78" allow="pedestrian" oneway="1" width="2.00"/>
    <type id="highway.bus_guideway" priority="1" speed="27.78" allow="bus" oneway="1"/>
    <type id="highway.cycleway" priority="1" speed="8.33" allow="bicycle" oneway="0" width="1.00"/>
    <type id="highway.footway" priority="1" speed="2.78" allow="pedestrian" oneway="1" width="2.00"/>
    <type id="highway.ford" priority="1" speed="2.78" allow="army" oneway="0"/>
    <type id="highway.living_street" priority="2" speed="2.78" disallow="tram rail_urban rail rail_electric rail_fast ship" oneway="0"/>
    <type id="highway.motorway" priority="14" speed="39.44" allow="private emergency authority army vip passenger hov taxi bus coach delivery truck trailer motorcycle evehicle custom1 custom2" oneway="1"/>
    <type id="highway.motorway_link" priority="9" speed="22.22" allow="private emergency authority army vip passenger hov taxi bus coach delivery truck trailer motorcycle evehicle custom1 custom2" oneway="1"/>
    <type id="highway.path" priority="1" speed="2.78" allow="pedestrian bicycle" oneway="0" width="2.00"/>
    <type id="highway.pedestrian" priority="1" speed="2.78" allow="pedestrian" oneway="1" width="2.00"/>
    <type id="highway.primary" priority="12" speed="27.78" disallow="pedestrian tram rail_urban rail rail_electric rail_fast ship" oneway="0"/>
    <type id="highway.primary_link" priority="7" speed="22.22" disallow="pedestrian tram rail_urban rail rail_electric rail_fast ship" oneway="0"/>
    <type id="highway.raceway" priority="15" speed="83.33" allow="vip" oneway="0"/>
    <type id="highway.residential" priority="3" speed="13.89" disallow="pedestrian tram rail_urban rail rail_electric rail_fast ship" oneway="0"/>
    <type id="highway.secondary" priority="11" speed="27.78" disallow="pedestrian tram rail_urban rail rail_electric rail_fast ship" oneway="0"/>
    <type id="highway.secondary_link" priority="6" speed="22.22" disallow="pedestrian tram rail_urban rail rail_electric rail_fast ship" oneway="0"/>
    <type id="highway.service" priority="1" speed="5.56" allow="pedestrian delivery bicycle" oneway="0"/>
    <type id="highway.stairs" priority="1" speed="1.39" allow="pedestrian" oneway="1" width="2.00"/>
    <type id="highway.step" priority="1" speed="1.39" allow="pedestrian" oneway="1" width="2.00"/>
    <type id="highway.steps" priority="1" speed="1.39" allow="pedestrian" oneway="1" width="2.00"/>
    <type id="highway.tertiary" priority="10" speed="22.22" disallow="pedestrian tram rail_urban rail rail_electric rail_fast ship" oneway="0"/>
    <type id="highway.tertiary_link" priority="5" speed="22.22" disallow="pedestrian tram rail_urban rail rail_electric rail_fast ship" oneway="0"/>
    <type id="highway.track" priority="1" speed="5.56" allow="pedestrian motorcycle moped bicycle" oneway="0"/>
    <type id="highway.trunk" priority="13" speed="27.78" disallow="pedestrian bicycle tram rail_urban rail rail_electric rail_fast ship" oneway="0"/>
    <type id="highway.trunk_link" priority="8" speed="22.22" disallow="pedestrian bicycle tram rail_urban rail rail_electric rail_fast ship" oneway="0"/>
    <type id="highway.unclassified" priority="4" speed="13.89" disallow="pedestrian tram rail_urban rail rail_electric rail_fast ship" oneway="0"/>
    <type id="highway.unsurfaced" priority="1" speed="8.33" disallow="tram rail_urban rail rail_electric rail_fast ship" oneway="0"/>
    <type id="railway.highspeed" priority="21" speed="69.44" allow="rail_fast" oneway="1"/>
    <type id="railway.light_rail" priority="19" speed="27.78" allow="rail_urban" oneway="1"/>
    <type id="railway.preserved" priority="16" speed="27.78" allow="rail" oneway="1"/>
    <type id="railway.rail" priority="20" speed="44.44" allow="rail" oneway="1"/>
    <type id="railway.subway" priority="18" speed="27.78" allow="rail_urban" oneway="1"/>
    <type id="railway.tram" priority="17" speed="13.89" allow="tram" oneway="1"/>

    <edge id=":53_0" function="internal">
        <lane id=":53_0_0" index="0" disallow="pedestrian tram rail_urban rail rail_electric rail_fast ship" speed="36.11" length="22.20" width="3.50" shape="139.06,902.55 139.02,897.79 139.21,889.09 138.98,885.00 138.38,880.40"/>
    </edge>
    <edge id=":53_1" function="internal">
        <lane id=":53_1_0" index="0" disallow="pedestrian tram rail_urban rail rail_electric rail_fast ship" speed="7.31" length="9.34" width="3.50" shape="139.06,902.55 139.12,901.78 139.40,900.67 139.93,899.65 140.65,898.77 141.99,897.71 143.51,896.91 145.12,896.32"/>
    </edge>
    <edge id=":53_2" function="internal">
        <lane id=":53_2_0" index="0" disallow="pedestrian tram rail_urban rail rail_electric rail_fast ship" speed="12.25" length="22.73" width="3.50" shape="134.25,901.66 134.82,901.22 135.95,900.05 136.89,898.73 137.87,896.80 138.55,894.75 139.03,892.08 139.20,888.84 138.99,885.05 138.38,880.40"/>
    </edge>
    <edge id=":53_3" function="internal">
        <lane id=":53_3_0" index="0" disallow="pedestrian tram rail_urban rail rail_electric rail_fast ship" speed="36.11" length="12.14" width="3.50" shape="134.30,901.74 137.98,899.49 141.71,897.62 144.63,896.48 145.12,896.32"/>
    </edge>
    <edge id=":54_0" function="internal">
        <lane id=":54_0_0" index="0" disallow="pedestrian tram rail_urban rail rail_electric rail_fast ship" speed="36.11" length="17.65" width="3.50" shape="135.19,906.93 131.69,906.86 128.57,907.25 123.98,908.35 118.89,909.63 117.87,909.83"/>
    </edge>
    <edge id=":54_1" function="internal">
        <lane id=":54_1_0" index="0" disallow="pedestrian tram rail_urban rail rail_electric rail_fast ship" speed="24.86" length="16.00" width="3.49" shape="117.23,906.39 125.90,904.66 130.43,903.51 132.40,902.82 132.75,902.64"/>
    </edge>
    <edge id=":55_0" function="internal">
        <lane id=":55_0_0" index="0" disallow="pedestrian tram rail_urban rail rail_electric rail_fast ship" speed="9.04" length="18.83" width="3.50" shape="117.61,909.88 114.25,910.64 112.12,911.34 110.08,912.24 109.18,912.75 108.32,913.35 107.55,914.00 106.88,914.71 106.32,915.49 105.89,916.32 105.58,917.21 105.41,918.14 105.36,919.12 105.42,920.14 105.59,921.19"/>
    </edge>
    <edge id=":55_1" function="internal">
        <lane id=":55_1_0" index="0" disallow="pedestrian tram rail_urban rail rail_electric rail_fast ship" speed="11.83" length="31.25" width="3.50" shape="117.61,909.88 115.07,910.21 112.47,910.26 109.88,909.94 108.55,909.62 107.27,909.18 106.03,908.62 104.85,907.94 103.75,907.16 102.72,906.29 101.76,905.31 100.17,903.26 98.86,901.02 97.82,898.69 96.99,896.30 96.08,892.72"/>
    </edge>
    <edge id=":55_2" function="internal">
        <lane id=":55_2_0" index="0" disallow="pedestrian tram rail_urban rail rail_electric rail_fast ship" speed="10.74" length="25.80" width="3.50" shape="99.50,891.98 100.29,895.11 100.99,897.14 101.85,899.11 102.92,900.98 104.21,902.69 104.96,903.47 105.76,904.18 106.63,904.82 107.56,905.37 108.53,905.82 109.54,906.19 110.58,906.46 112.71,906.74 114.86,906.71 116.99,906.44"/>
    </edge>
    <edge id=":55_3" function="internal">
        <lane id=":55_3_0" index="0" disallow="pedestrian tram rail_urban rail rail_electric rail_fast ship" speed="36.11" length="29.84" width="3.50" shape="99.50,891.98 102.54,906.57 105.59,921.19"/>
    </edge>
    <edge id=":55_4" function="internal">
        <lane id=":55_4_0" index="0" disallow="pedestrian tram rail_urban rail rail_electric rail_fast ship" speed="36.11" length="29.83" width="3.50" shape="102.17,921.92 99.12,907.29 96.08,892.72"/>
    </edge>
    <edge id=":55_5" function="internal">
        <lane id=":55_5_0" index="0" disallow="pedestrian tram rail_urban rail rail_electric rail_fast ship" speed="10.27" length="24.53" width="3.50" shape="102.17,921.92 101.94,920.53 101.84,919.18 101.88,917.82 102.09,916.47 102.48,915.17 103.06,913.94 103.80,912.80 104.69,911.77 105.70,910.86 106.80,910.06 107.96,909.36 110.43,908.22 113.01,907.35 116.99,906.44"/>
    </edge>
    <edge id=":56_0" function="internal">
        <lane id=":56_0_0" index="0" disallow="pedestrian tram rail_urban rail rail_electric rail_fast ship" speed="11.15" length="28.45" width="3.50" shape="108.35,951.63 107.52,948.46 106.75,946.41 105.78,944.45 104.57,942.62 103.87,941.78 103.11,941.00 102.28,940.28 101.39,939.64 100.45,939.08 99.47,938.60 98.45,938.21 96.33,937.66 94.16,937.42 91.97,937.42 89.79,937.63 87.63,938.00"/>
    </edge>
    <edge id=":56_1" function="internal">
        <lane id=":56_1_0" index="0" disallow="pedestrian tram rail_urban rail rail_electric rail_fast ship" speed="36.11" length="30.17" width="3.50" shape="108.35,951.63 105.28,936.88 102.20,922.09"/>
    </edge>
    <edge id=":56_2" function="internal">
        <lane id=":56_2_0" index="0" disallow="pedestrian tram rail_urban rail rail_electric rail_fast ship" speed="36.11" length="30.16" width="3.50" shape="105.63,921.36 108.71,936.16 111.77,950.89"/>
    </edge>
    <edge id=":56_3" function="internal">
        <lane id=":56_3_0" index="0" disallow="pedestrian tram rail_urban rail rail_electric rail_fast ship" speed="10.98" length="27.63" width="3.50" shape="105.63,921.36 105.84,922.71 105.92,924.02 105.84,925.33 105.60,926.62 105.18,927.86 104.60,929.04 103.87,930.13 103.01,931.13 102.06,932.03 101.03,932.85 98.80,934.24 96.43,935.37 92.73,936.71 88.92,937.72 87.63,938.00"/>
    </edge>
    <edge id=":56_4" function="internal">
        <lane id=":56_4_0" index="0" disallow="pedestrian tram rail_urban rail rail_electric rail_fast ship" speed="9.85" length="22.06" width="3.50" shape="86.92,934.57 88.03,934.33 91.36,933.46 94.57,932.35 96.56,931.44 98.44,930.34 99.26,929.74 100.04,929.07 100.72,928.35 101.30,927.58 101.76,926.76 102.10,925.90 102.31,925.01 102.40,924.07 102.36,923.11 102.20,922.09"/>
    </edge>
    <edge id=":56_5" function="internal">
        <lane id=":56_5_0" index="0" disallow="pedestrian tram rail_urban rail rail_electric rail_fast ship" speed="12.15" length="34.00" width="3.50" shape="86.92,934.57 89.42,934.14 91.96,933.90 94.55,933.90 97.16,934.20 99.70,934.85 100.99,935.34 102.21,935.93 103.37,936.63 104.47,937.42 105.49,938.31 106.43,939.27 107.31,940.33 108.75,942.50 109.91,944.83 110.81,947.25 111.77,950.89"/>
    </edge>
    <edge id=":57_0" function="internal">
        <lane id=":57_0_0" index="0" disallow="pedestrian tram rail_urban rail rail_electric rail_fast ship" speed="11.12" length="28.36" width="3.50" shape="93.52,880.42 92.69,877.25 91.92,875.21 90.95,873.25 89.74,871.43 89.05,870.59 88.28,869.81 87.45,869.09 86.57,868.45 85.63,867.90 84.64,867.42 83.62,867.03 81.51,866.50 79.33,866.26 77.15,866.28 74.97,866.49 72.86,866.86"/>
    </edge>
    <edge id=":57_1" function="internal">
        <lane id=":57_1_0" index="0" disallow="pedestrian tram rail_urban rail rail_electric rail_fast ship" speed="36.11" length="38.88" width="3.50" shape="93.52,880.42 89.56,861.39 85.60,842.36"/>
    </edge>
    <edge id=":57_2" function="internal">
        <lane id=":57_2_0" index="0" disallow="pedestrian tram rail_urban rail rail_electric rail_fast ship" speed="36.11" length="38.84" width="3.50" shape="89.03,841.65 92.99,860.68 96.94,879.68"/>
    </edge>
    <edge id=":57_3" function="internal">
        <lane id=":57_3_0" index="0" disallow="pedestrian tram rail_urban rail rail_electric rail_fast ship" speed="12.21" length="34.23" width="3.50" shape="89.03,841.65 89.46,844.16 89.71,846.72 89.73,849.32 89.46,851.94 88.84,854.51 88.37,855.81 87.80,857.04 87.12,858.23 86.34,859.35 85.47,860.40 84.51,861.36 83.46,862.26 81.29,863.75 78.95,864.94 76.51,865.88 72.86,866.86"/>
    </edge>
    <edge id=":57_4" function="internal">
        <lane id=":57_4_0" index="0" disallow="pedestrian tram rail_urban rail rail_electric rail_fast ship" speed="11.21" length="28.68" width="3.50" shape="72.12,863.44 75.29,862.59 77.36,861.80 79.32,860.79 81.14,859.54 81.98,858.82 82.75,858.04 83.46,857.19 84.09,856.28 84.64,855.32 85.10,854.32 85.48,853.28 85.99,851.14 86.22,848.94 86.20,846.73 85.98,844.54 85.60,842.36"/>
    </edge>
    <edge id=":57_5" function="internal">
        <lane id=":57_5_0" index="0" disallow="pedestrian tram rail_urban rail rail_electric rail_fast ship" speed="12.13" length="33.95" width="3.50" shape="72.12,863.44 74.59,863.01 77.13,862.76 79.71,862.74 82.32,863.03 84.87,863.67 86.16,864.16 87.38,864.74 88.54,865.44 89.64,866.23 90.67,867.11 91.61,868.07 92.48,869.13 93.92,871.30 95.08,873.63 95.99,876.05 96.94,879.68"/>
    </edge>
    <edge id=":58_0" function="internal">
        <lane id=":58_0_0" index="0" disallow="pedestrian tram rail_urban rail rail_electric rail_fast ship" speed="13.11" length="41.07" width="3.50" shape="143.80,871.69 146.44,881.10 147.42,883.29 148.65,885.34 149.77,886.74 151.06,887.98 152.53,889.01 154.15,889.80 155.86,890.32 157.63,890.60 160.03,890.64 162.40,890.36 165.32,889.68 172.93,887.34"/>
    </edge>
    <edge id=":58_1" function="internal">
        <lane id=":58_1_0" index="0" disallow="pedestrian tram rail_urban rail rail_electric rail_fast ship" speed="36.11" length="29.11" width="3.50" shape="143.80,871.69 146.77,882.16 149.12,887.86 151.72,894.00 153.03,897.89 153.38,899.13"/>
    </edge>
    <edge id=":58_2" function="internal">
        <lane id=":58_2_0" index="0" disallow="pedestrian tram rail_urban rail rail_electric rail_fast ship" speed="36.11" length="29.32" width="3.50" shape="145.03,896.35 155.91,892.79 172.93,887.34"/>
    </edge>
    <edge id=":58_3" function="internal">
        <lane id=":58_3_0" index="0" disallow="pedestrian tram rail_urban rail rail_electric rail_fast ship" speed="6.80" length="10.20" width="3.50" shape="145.03,896.35 147.70,895.69 149.50,895.62 150.68,895.85 151.74,896.39 152.20,896.78 152.89,897.76 153.38,899.13"/>
    </edge>
    <edge id=":59_0" function="internal">
        <lane id=":59_0_0" index="0" disallow="pedestrian tram rail_urban rail rail_electric rail_fast ship" speed="13.95" length="39.69" width="3.50" shape="174.46,897.06 164.86,900.50 162.40,901.88 160.59,903.22 158.96,904.77 157.56,906.53 156.44,908.48 155.62,910.58 155.10,912.77 154.84,915.58 154.95,918.39 155.99,925.85"/>
    </edge>
    <edge id=":59_1" function="internal">
        <lane id=":59_1_0" index="0" disallow="pedestrian tram rail_urban rail rail_electric rail_fast ship" speed="36.11" length="28.16" width="3.50" shape="174.46,897.06 150.84,905.14 147.78,906.06"/>
    </edge>
    <edge id=":59_2" function="internal">
        <lane id=":59_2_0" index="0" disallow="pedestrian tram rail_urban rail rail_electric rail_fast ship" speed="36.11" length="26.51" width="3.50" shape="153.47,899.50 154.01,902.14 154.41,905.70 154.81,916.96 155.99,925.85"/>
    </edge>
    <edge id=":59_3" function="internal">
        <lane id=":59_3_0" index="0" disallow="pedestrian tram rail_urban rail rail_electric rail_fast ship" speed="6.68" length="9.94" width="3.50" shape="153.47,899.50 153.59,900.32 153.59,901.52 153.28,902.68 152.65,903.70 151.77,904.51 150.73,905.12 149.03,905.75 147.77,906.05"/>
    </edge>
    <edge id=":60_0" function="internal">
        <lane id=":60_0_0" index="0" disallow="pedestrian tram rail_urban rail rail_electric rail_fast ship" speed="11.88" length="24.08" width="3.50" shape="148.01,924.95 145.41,916.70 143.96,913.72 142.44,911.43 140.96,909.79 139.69,908.74 138.27,907.89 136.73,907.28 135.12,906.94 134.57,906.89"/>
    </edge>
    <edge id=":60_1" function="internal">
        <lane id=":60_1_0" index="0" disallow="pedestrian tram rail_urban rail rail_electric rail_fast ship" speed="36.11" length="23.98" width="3.49" shape="148.01,924.95 145.79,917.94 144.10,914.79 141.21,909.95 140.11,907.64 139.48,905.70 139.13,903.68 139.08,902.92"/>
    </edge>
    <edge id=":60_2" function="internal">
        <lane id=":60_2_0" index="0" disallow="pedestrian tram rail_urban rail rail_electric rail_fast ship" speed="36.11" length="12.74" width="3.50" shape="147.25,906.14 143.47,906.72 139.28,907.00 135.09,906.92 134.57,906.89"/>
    </edge>
    <edge id=":60_3" function="internal">
        <lane id=":60_3_0" index="0" disallow="pedestrian tram rail_urban rail rail_electric rail_fast ship" speed="6.60" length="10.22" width="3.49" shape="147.25,906.14 145.20,906.44 143.38,906.51 142.17,906.38 141.00,906.04 140.46,905.75 139.99,905.37 139.61,904.90 139.33,904.36 139.08,902.92"/>
    </edge>

    <edge id="5483" from="54" to="55" priority="3" type="highway.residential" spreadType="center" length="0.26" shape="125.77,908.11 106.25,909.10">
        <lane id="5483_0" index="0" disallow="pedestrian tram rail_urban rail rail_electric rail_fast ship" speed="36.11" length="0.26" width="3.50" customShape="1" shape="117.87,909.83 117.74,909.86 117.61,909.88"/>
    </edge>
    <edge id="5484" from="55" to="54" priority="3" type="highway.residential" spreadType="center" length="0.27" shape="106.08,905.62 125.60,904.62">
        <lane id="5484_0" index="0" disallow="pedestrian tram rail_urban rail rail_electric rail_fast ship" speed="36.11" length="0.27" width="3.50" customShape="1" shape="116.99,906.44 117.11,906.41 117.25,906.39"/>
    </edge>
    <edge id="5553" from="48" to="59" priority="3" type="highway.residential" spreadType="center" length="63.17">
        <lane id="5553_0" index="0" disallow="pedestrian tram rail_urban rail rail_electric rail_fast ship" speed="36.11" length="63.17" width="3.50" customShape="1" shape="235.83,882.88 233.62,883.04 224.57,884.04 216.58,885.28 209.14,886.81 200.82,888.96 189.19,892.46 174.46,897.06"/>
    </edge>
    <edge id="5555" from="59" to="60" priority="3" type="highway.residential" spreadType="center" length="0.62">
        <lane id="5555_0" index="0" disallow="pedestrian tram rail_urban rail rail_electric rail_fast ship" speed="36.11" length="0.62" width="3.50" customShape="1" shape="147.86,906.03 147.74,906.06 147.25,906.15"/>
    </edge>
    <edge id="5557" from="60" to="54" priority="3" type="highway.residential" spreadType="center" length="0.20">
        <lane id="5557_0" index="0" disallow="pedestrian tram rail_urban rail rail_electric rail_fast ship" speed="36.11" length="0.20" width="3.50" customShape="1" shape="135.39,906.95 135.19,906.93"/>
    </edge>
    <edge id="5571" from="54" to="53" priority="3" type="highway.residential" spreadType="center" length="1.79">
        <lane id="5571_0" index="0" disallow="pedestrian tram rail_urban rail rail_electric rail_fast ship" speed="36.11" length="1.79" width="3.49" customShape="1" shape="132.79,902.70 133.43,902.28 134.28,901.71"/>
    </edge>
    <edge id="5573" from="53" to="58" priority="3" type="highway.residential" spreadType="center" length="0.30">
        <lane id="5573_0" index="0" disallow="pedestrian tram rail_urban rail rail_electric rail_fast ship" speed="36.11" length="0.30" width="3.50" customShape="1" shape="144.74,896.44 145.03,896.35"/>
    </edge>
    <edge id="5575" from="58" to="26" priority="3" type="highway.residential" spreadType="center" length="63.24">
        <lane id="5575_0" index="0" disallow="pedestrian tram rail_urban rail rail_electric rail_fast ship" speed="36.11" length="63.24" width="3.50" customShape="1" shape="172.93,887.34 175.10,886.67 183.37,884.56 195.63,881.84 209.93,879.09 226.76,876.23 234.89,874.90"/>
    </edge>
    <edge id="5590" from="49" to="56" priority="3" type="highway.residential" spreadType="center" length="70.00" shape="18.40,948.78 100.16,934.70">
        <lane id="5590_0" index="0" disallow="pedestrian tram rail_urban rail rail_electric rail_fast ship" speed="36.11" length="70.00" width="3.50" customShape="1" shape="18.40,948.78 42.12,943.86 86.94,934.57"/>
    </edge>
    <edge id="5591" from="56" to="29" priority="3" type="highway.residential" spreadType="center" length="70.00" shape="100.76,938.15 19.09,952.21">
        <lane id="5591_0" index="0" disallow="pedestrian tram rail_urban rail rail_electric rail_fast ship" speed="36.11" length="70.00" width="3.50" customShape="1" shape="87.63,938.00 42.83,947.29 19.09,952.21"/>
    </edge>
    <edge id="5629" from="51" to="57" priority="3" type="highway.residential" spreadType="center" length="70.01" shape="3.64,877.96 84.68,860.69">
        <lane id="5629_0" index="0" disallow="pedestrian tram rail_urban rail rail_electric rail_fast ship" speed="36.11" length="70.01" width="3.50" customShape="1" shape="3.64,877.96 27.19,872.97 72.13,863.44"/>
    </edge>
    <edge id="5630" from="57" to="46" priority="3" type="highway.residential" spreadType="center" length="70.00" shape="85.41,864.11 4.38,881.38">
        <lane id="5630_0" index="0" disallow="pedestrian tram rail_urban rail rail_electric rail_fast ship" speed="36.11" length="70.00" width="3.50" customShape="1" shape="72.86,866.86 27.91,876.39 4.38,881.38"/>
    </edge>
    <edge id="5989" from="57" to="47" priority="3" type="highway.residential" spreadType="center" length="38.86" shape="83.28,862.62 77.68,804.32">
        <lane id="5989_0" index="0" disallow="pedestrian tram rail_urban rail rail_electric rail_fast ship" speed="36.11" length="38.86" width="3.50" customShape="1" shape="85.60,842.36 81.64,823.33 77.68,804.32"/>
    </edge>
    <edge id="5990" from="52" to="57" priority="3" type="highway.residential" spreadType="center" length="38.89" shape="81.11,803.59 86.76,862.29">
        <lane id="5990_0" index="0" disallow="pedestrian tram rail_urban rail rail_electric rail_fast ship" speed="36.11" length="38.89" width="3.50" customShape="1" shape="81.11,803.59 85.07,822.62 89.03,841.67"/>
    </edge>
    <edge id="5992" from="55" to="57" priority="3" type="highway.residential" spreadType="center" length="12.59" shape="104.74,908.10 83.41,863.10">
        <lane id="5992_0" index="0" disallow="pedestrian tram rail_urban rail rail_electric rail_fast ship" speed="36.11" length="12.59" width="3.50" customShape="1" shape="96.08,892.72 94.80,886.56 93.52,880.39"/>
    </edge>
    <edge id="5993" from="57" to="55" priority="3" type="highway.residential" spreadType="center" length="12.59" shape="86.57,861.60 107.90,906.60">
        <lane id="5993_0" index="0" disallow="pedestrian tram rail_urban rail rail_electric rail_fast ship" speed="36.11" length="12.59" width="3.50" customShape="1" shape="96.94,879.68 98.23,885.84 99.51,892.01"/>
    </edge>
    <edge id="5995" from="56" to="55" priority="3" type="highway.residential" spreadType="center" length="0.21" shape="98.69,936.18 104.61,907.00">
        <lane id="5995_0" index="0" disallow="pedestrian tram rail_urban rail rail_electric rail_fast ship" speed="36.11" length="0.21" width="3.50" customShape="1" shape="102.20,922.09 102.16,921.88"/>
    </edge>
    <edge id="5996" from="55" to="56" priority="3" type="highway.residential" spreadType="center" length="0.23" shape="108.04,907.70 102.11,936.88">
        <lane id="5996_0" index="0" disallow="pedestrian tram rail_urban rail rail_electric rail_fast ship" speed="36.11" length="0.23" width="3.50" customShape="1" shape="105.59,921.19 105.64,921.41"/>
    </edge>
    <edge id="5998" from="50" to="56" priority="3" type="highway.residential" spreadType="center" length="51.43" shape="118.83,1001.95 98.74,936.90">
        <lane id="5998_0" index="0" disallow="pedestrian tram rail_urban rail rail_electric rail_fast ship" speed="36.11" length="51.43" width="3.50" customShape="1" shape="118.83,1001.95 113.59,976.79 108.34,951.60"/>
    </edge>
    <edge id="5999" from="56" to="33" priority="3" type="highway.residential" spreadType="center" length="51.43" shape="102.08,935.87 122.25,1001.24">
        <lane id="5999_0" index="0" disallow="pedestrian tram rail_urban rail rail_electric rail_fast ship" speed="36.11" length="51.43" width="3.50" customShape="1" shape="111.77,950.89 117.01,976.08 122.25,1001.24"/>
    </edge>
    <edge id="6189" from="45" to="58" priority="3" type="highway.residential" spreadType="center" length="63.21">
        <lane id="6189_0" index="0" disallow="pedestrian tram rail_urban rail rail_electric rail_fast ship" speed="36.11" length="63.21" width="3.50" customShape="1" shape="130.84,809.84 132.41,818.72 136.31,839.01 139.81,855.27 143.35,869.97 143.80,871.69"/>
    </edge>
    <edge id="6191" from="58" to="59" priority="3" type="highway.residential" spreadType="center" length="0.38">
        <lane id="6191_0" index="0" disallow="pedestrian tram rail_urban rail rail_electric rail_fast ship" speed="36.11" length="0.38" width="3.50" customShape="1" shape="153.38,899.13 153.47,899.50"/>
    </edge>
    <edge id="6193" from="59" to="42" priority="3" type="highway.residential" spreadType="center" length="63.59">
        <lane id="6193_0" index="0" disallow="pedestrian tram rail_urban rail rail_electric rail_fast ship" speed="36.11" length="63.59" width="3.50" customShape="1" shape="155.99,925.85 157.30,934.93 160.16,951.77 163.94,971.51 167.09,986.77 167.43,988.39"/>
    </edge>
    <edge id="6312" from="40" to="60" priority="3" type="highway.residential" spreadType="center" length="64.93">
        <lane id="6312_0" index="0" disallow="pedestrian tram rail_urban rail rail_electric rail_fast ship" speed="36.11" length="64.93" width="3.50" customShape="1" shape="159.16,988.88 157.29,978.44 155.23,964.44 152.76,947.43 150.99,937.48 149.14,929.10 148.01,924.95"/>
    </edge>
    <edge id="6314" from="60" to="53" priority="3" type="highway.residential" spreadType="center" length="0.37">
        <lane id="6314_0" index="0" disallow="pedestrian tram rail_urban rail rail_electric rail_fast ship" speed="36.11" length="0.37" width="3.49" customShape="1" shape="139.08,902.92 139.06,902.55"/>
    </edge>
    <edge id="6316" from="53" to="16" priority="3" type="highway.residential" spreadType="center" length="66.39">
        <lane id="6316_0" index="0" disallow="pedestrian tram rail_urban rail rail_electric rail_fast ship" speed="36.11" length="66.39" width="3.50" customShape="1" shape="138.38,880.40 136.49,866.49 134.09,851.55 131.55,838.17 128.83,825.87 126.11,815.21"/>
    </edge>

    <junction id="16" type="dead_end" x="126.11" y="815.21" incLanes="6316_0" intLanes="" shape="124.42,815.64 127.81,814.77" rightOfWay="edgePriority"/>
    <junction id="26" type="dead_end" x="234.89" y="874.90" incLanes="5575_0" intLanes="" shape="234.60,873.17 235.17,876.63" rightOfWay="edgePriority"/>
    <junction id="29" type="dead_end" x="19.09" y="952.21" incLanes="5591_0" intLanes="" shape="19.45,953.92 18.74,950.50" rightOfWay="edgePriority"/>
    <junction id="33" type="dead_end" x="122.25" y="1001.24" incLanes="5999_0" intLanes="" shape="123.97,1000.88 120.54,1001.59" rightOfWay="edgePriority"/>
    <junction id="40" type="dead_end" x="159.16" y="988.88" incLanes="" intLanes="" shape="160.88,988.58 157.44,989.19" rightOfWay="edgePriority"/>
    <junction id="42" type="dead_end" x="167.43" y="988.39" incLanes="6193_0" intLanes="" shape="169.14,988.03 165.72,988.75" rightOfWay="edgePriority"/>
    <junction id="45" type="dead_end" x="130.84" y="809.84" incLanes="" intLanes="" shape="129.12,810.14 132.57,809.53" rightOfWay="edgePriority"/>
    <junction id="46" type="dead_end" x="4.38" y="881.38" incLanes="5630_0" intLanes="" shape="4.74,883.09 4.01,879.67" rightOfWay="edgePriority"/>
    <junction id="47" type="dead_end" x="77.68" y="804.32" incLanes="5989_0" intLanes="" shape="75.97,804.68 79.40,803.97" rightOfWay="edgePriority"/>
    <junction id="48" type="dead_end" x="235.83" y="882.88" incLanes="" intLanes="" shape="235.70,881.13 235.96,884.62" rightOfWay="edgePriority"/>
    <junction id="49" type="dead_end" x="18.40" y="948.78" incLanes="" intLanes="" shape="18.75,950.49 18.04,947.07" rightOfWay="edgePriority"/>
    <junction id="50" type="dead_end" x="118.83" y="1001.95" incLanes="" intLanes="" shape="120.54,1001.59 117.11,1002.31" rightOfWay="edgePriority"/>
    <junction id="51" type="dead_end" x="3.64" y="877.96" incLanes="" intLanes="" shape="4.00,879.67 3.28,876.25" rightOfWay="edgePriority"/>