<routes>
	<vehicle depart="0.1" departLane="1" departPos="29.770921682941847" departSpeed="0.0" id="38" type="bicycle">
		<route edges="47715 47788"/>
	</vehicle>
	<vehicle depart="0.1" departLane="0" departPos="64.2466283560509" departSpeed="0.21736402" id="33" type="passenger">
		<route edges="47735 47717"/>
	</vehicle>
	<vehicle depart="0.1" departLane="0" departPos="72.49998087750632" departSpeed="1.7171309" id="310" type="passenger">
		<route edges="47789 47773"/>
	</vehicle>
	<vehicle depart="0.1" departLane="0" departPos="2.5" departSpeed="3.0922951" id="330" type="passenger">
		<route edges=":23_5 47734"/>
	</vehicle>
	<vehicle depart="0.1" departLane="0" departPos="21.32643830066876" departSpeed="9.8627858" id="339" type="passenger">
		<route edges=":23_3 47788"/>
	</vehicle>
	<vehicle depart="0.1" departLane="1" departPos="15.402921269075252" departSpeed="1.0492701" id="340" type="passenger">
		<route edges="47775 47734"/>
	</vehicle>
	<vehicle depart="0.1" departLane="0" departPos="2.5" departSpeed="10.315103" id="345" type="passenger">
		<route edges=":23_3 47788"/>
	</vehicle>
	<vehicle depart="0.1" departLane="0" departPos="29.873717388055923" departSpeed="2.5806002" id="347" type="passenger">
		<route edges="47919 47775 47734"/>
	</vehicle>
	<vehicle depart="0.1" departLane="0" departPos="8.424366256635242" departSpeed="9.157195" id="349" type="passenger">
		<route edges="47775 47788"/>
	</vehicle>
	<vehicle depart="0.1" departLane="0" departPos="16.142420809651096" departSpeed="3.115289" id="353" type="passenger">
		<route edges="47919 47775"/>
	</vehicle>
</routes>
