<routes>
	<vehicle depart="0.1" departLane="0" departPos="36.046215577504405" departSpeed="0.20882116" id="36" type="passenger">
		<route edges="3541 3538 3535"/>
	</vehicle>
	<vehicle depart="0.1" departLane="0" departPos="35.57464627187097" departSpeed="1.5592265" id="310" type="passenger">
		<route edges="3904 3541 3595"/>
	</vehicle>
	<vehicle depart="0.1" departLane="0" departPos="26.829645233251036" departSpeed="0.09622189" id="328" type="passenger">
		<route edges="3904 4036"/>
	</vehicle>
	<vehicle depart="0.1" departLane="0" departPos="9.463361373204885" departSpeed="0.34236758" id="329" type="passenger">
		<route edges=":125_11 3905"/>
	</vehicle>
	<vehicle depart="0.1" departLane="0" departPos="26.036184783658864" departSpeed="12.527729" id="3106" type="passenger">
		<route edges=":125_4 4036 4033"/>
	</vehicle>
	<vehicle depart="0.1" departLane="0" departPos="71.39600290206518" departSpeed="13.977953" id="3114" type="passenger">
		<route edges="4057 4036"/>
	</vehicle>
	<vehicle depart="0.1" departLane="0" departPos="16.832660145985628" departSpeed="0.23355171" id="330" type="motorcycle">
		<route edges="3904 4036"/>
	</vehicle>
	<vehicle depart="0.1" departLane="0" departPos="81.40976431744501" departSpeed="0.85822195" id="392" type="truck">
		<route edges="4037 3541"/>
	</vehicle>
</routes>
