<!-- generated on Tue Feb  9 22:11:23 2021 by Eclipse SUMO netconvert Version 1.8.0
<configuration xmlns:xsi="http://www.w3.org/2001/XMLSchema-instance" xsi:noNamespaceSchemaLocation="http://sumo.dlr.de/xsd/netconvertConfiguration.xsd">

    <input>
        <node-files value="./converted_scenarios/scenario-factory/ARG_Carcarana-6_1_I-1-1/ARG_Carcarana-6_1_I-1-1.nod.xml"/>
        <edge-files value="./converted_scenarios/scenario-factory/ARG_Carcarana-6_1_I-1-1/ARG_Carcarana-6_1_I-1-1.edg.xml"/>
        <connection-files value="./converted_scenarios/scenario-factory/ARG_Carcarana-6_1_I-1-1/ARG_Carcarana-6_1_I-1-1.con.xml"/>
        <tllogic-files value="./converted_scenarios/scenario-factory/ARG_Carcarana-6_1_I-1-1/ARG_Carcarana-6_1_I-1-1.tll.xml"/>
        <type-files value="/home/zen/commonroad-interactive-benchmarks/install/commonroad-map-tool/crmapconverter/sumo_map/templates/DEU.typ.xml"/>
    </input>

    <output>
        <output-file value="./converted_scenarios/scenario-factory/ARG_Carcarana-6_1_I-1-1/ARG_Carcarana-6_1_I-1-1.net.xml"/>
    </output>

    <processing>
        <geometry.remove.keep-edges.explicit value="true"/>
        <geometry.avoid-overlap value="true"/>
        <offset.disable-normalization value="true"/>
    </processing>

    <junctions>
        <no-turnarounds value="true"/>
        <junctions.internal-link-detail value="20"/>
    </junctions>

    <report>
        <aggregate-warnings value="5"/>
    </report>

    <random_number>
        <seed value="1234"/>
    </random_number>

</configuration>
--><net xmlns:xsi="http://www.w3.org/2001/XMLSchema-instance" version="1.6" junctionCornerDetail="5" junctionLinkDetail="20" limitTurnSpeed="5.50" xsi:noNamespaceSchemaLocation="http://sumo.dlr.de/xsd/net_file.xsd">

    <location netOffset="0.00,0.00" convBoundary="7.15,339.18,453.44,716.97" origBoundary="7.15,339.18,453.44,716.97" projParameter="!"/>

    <type id="highway.bridleway" priority="1" speed="2.78" allow="pedestrian" oneway="1" width="2.00"/>
    <type id="highway.bus_guideway" priority="1" speed="27.78" allow="bus" oneway="1"/>
    <type id="highway.cycleway" priority="1" speed="8.33" allow="bicycle" oneway="0" width="1.00"/>
    <type id="highway.footway" priority="1" speed="2.78" allow="pedestrian" oneway="1" width="2.00"/>
    <type id="highway.ford" priority="1" speed="2.78" allow="army" oneway="0"/>
    <type id="highway.living_street" priority="2" speed="2.78" disallow="tram rail_urban rail rail_electric rail_fast ship" oneway="0"/>
    <type id="highway.motorway" priority="14" speed="39.44" allow="private emergency authority army vip passenger hov taxi bus coach delivery truck trailer motorcycle evehicle custom1 custom2" oneway="1"/>
    <type id="highway.motorway_link" priority="9" speed="22.22" allow="private emergency authority army vip passenger hov taxi bus coach delivery truck trailer motorcycle evehicle custom1 custom2" oneway="1"/>
    <type id="highway.path" priority="1" speed="2.78" allow="pedestrian bicycle" oneway="0" width="2.00"/>
    <type id="highway.pedestrian" priority="1" speed="2.78" allow="pedestrian" oneway="1" width="2.00"/>
    <type id="highway.primary" priority="12" speed="27.78" disallow="pedestrian tram rail_urban rail rail_electric rail_fast ship" oneway="0"/>
    <type id="highway.primary_link" priority="7" speed="22.22" disallow="pedestrian tram rail_urban rail rail_electric rail_fast ship" oneway="0"/>
    <type id="highway.raceway" priority="15" speed="83.33" allow="vip" oneway="0"/>
    <type id="highway.residential" priority="3" speed="13.89" disallow="pedestrian tram rail_urban rail rail_electric rail_fast ship" oneway="0"/>
    <type id="highway.secondary" priority="11" speed="27.78" disallow="pedestrian tram rail_urban rail rail_electric rail_fast ship" oneway="0"/>
    <type id="highway.secondary_link" priority="6" speed="22.22" disallow="pedestrian tram rail_urban rail rail_electric rail_fast ship" oneway="0"/>
    <type id="highway.service" priority="1" speed="5.56" allow="pedestrian delivery bicycle" oneway="0"/>
    <type id="highway.stairs" priority="1" speed="1.39" allow="pedestrian" oneway="1" width="2.00"/>
    <type id="highway.step" priority="1" speed="1.39" allow="pedestrian" oneway="1" width="2.00"/>
    <type id="highway.steps" priority="1" speed="1.39" allow="pedestrian" oneway="1" width="2.00"/>
    <type id="highway.tertiary" priority="10" speed="22.22" disallow="pedestrian tram rail_urban rail rail_electric rail_fast ship" oneway="0"/>
    <type id="highway.tertiary_link" priority="5" speed="22.22" disallow="pedestrian tram rail_urban rail rail_electric rail_fast ship" oneway="0"/>
    <type id="highway.track" priority="1" speed="5.56" allow="pedestrian motorcycle moped bicycle" oneway="0"/>
    <type id="highway.trunk" priority="13" speed="27.78" disallow="pedestrian bicycle tram rail_urban rail rail_electric rail_fast ship" oneway="0"/>
    <type id="highway.trunk_link" priority="8" speed="22.22" disallow="pedestrian bicycle tram rail_urban rail rail_electric rail_fast ship" oneway="0"/>
    <type id="highway.unclassified" priority="4" speed="13.89" disallow="pedestrian tram rail_urban rail rail_electric rail_fast ship" oneway="0"/>
    <type id="highway.unsurfaced" priority="1" speed="8.33" disallow="tram rail_urban rail rail_electric rail_fast ship" oneway="0"/>
    <type id="railway.highspeed" priority="21" speed="69.44" allow="rail_fast" oneway="1"/>
    <type id="railway.light_rail" priority="19" speed="27.78" allow="rail_urban" oneway="1"/>
    <type id="railway.preserved" priority="16" speed="27.78" allow="rail" oneway="1"/>
    <type id="railway.rail" priority="20" speed="44.44" allow="rail" oneway="1"/>
    <type id="railway.subway" priority="18" speed="27.78" allow="rail_urban" oneway="1"/>
    <type id="railway.tram" priority="17" speed="13.89" allow="tram" oneway="1"/>

    <edge id=":121_0" function="internal">
        <lane id=":121_0_0" index="0" disallow="pedestrian tram rail_urban rail rail_electric rail_fast ship" speed="11.17" length="28.68" width="3.50" shape="225.79,582.82 225.25,580.59 224.55,578.44 223.67,576.39 222.57,574.49 221.21,572.77 220.48,572.04 219.68,571.36 218.82,570.75 217.90,570.22 216.94,569.77 215.94,569.41 214.93,569.12 212.75,568.75 210.53,568.66 208.29,568.79 204.88,569.33"/>
    </edge>
    <edge id=":121_1" function="internal">
        <lane id=":121_1_0" index="0" disallow="pedestrian tram rail_urban rail rail_electric rail_fast ship" speed="36.11" length="38.79" width="3.50" shape="225.79,582.82 221.87,563.81 217.96,544.83"/>
    </edge>
    <edge id=":121_2" function="internal">
        <lane id=":121_2_0" index="0" disallow="pedestrian tram rail_urban rail rail_electric rail_fast ship" speed="12.18" length="34.01" width="3.50" shape="225.79,582.82 225.37,580.32 225.13,577.78 225.13,575.19 225.43,572.58 226.07,570.03 226.56,568.74 227.15,567.52 227.84,566.36 228.63,565.25 229.51,564.23 230.47,563.28 231.52,562.41 233.70,560.96 236.02,559.79 238.44,558.87 242.08,557.90"/>
    </edge>
    <edge id=":121_3" function="internal">
        <lane id=":121_3_0" index="0" disallow="pedestrian tram rail_urban rail rail_electric rail_fast ship" speed="11.17" length="28.45" width="3.50" shape="242.81,561.32 239.66,562.16 237.61,562.94 235.65,563.92 233.83,565.14 232.99,565.84 232.21,566.61 231.49,567.44 230.85,568.33 230.30,569.27 229.82,570.26 229.43,571.28 228.89,573.40 228.64,575.58 228.65,577.77 228.85,579.95 229.22,582.11"/>
    </edge>
    <edge id=":121_4" function="internal">
        <lane id=":121_4_0" index="0" disallow="pedestrian tram rail_urban rail rail_electric rail_fast ship" speed="36.11" length="38.77" width="3.50" shape="242.81,561.32 223.86,565.32 204.88,569.33"/>
    </edge>
    <edge id=":121_5" function="internal">
        <lane id=":121_5_0" index="0" disallow="pedestrian tram rail_urban rail rail_electric rail_fast ship" speed="12.16" length="34.14" width="3.50" shape="242.81,561.32 239.07,561.90 236.47,562.03 233.85,561.89 231.27,561.42 229.95,561.02 228.69,560.53 227.47,559.92 226.30,559.21 225.21,558.40 224.19,557.50 223.25,556.53 222.39,555.46 220.96,553.27 219.81,550.92 218.91,548.49 217.96,544.83"/>
    </edge>
    <edge id=":121_6" function="internal">
        <lane id=":121_6_0" index="0" disallow="pedestrian tram rail_urban rail rail_electric rail_fast ship" speed="11.15" length="28.54" width="3.50" shape="221.38,544.12 222.21,547.29 222.97,549.36 223.94,551.33 225.14,553.17 225.83,554.03 226.59,554.82 227.41,555.55 228.30,556.21 229.23,556.78 230.22,557.27 231.24,557.67 232.30,557.99 234.46,558.39 236.65,558.51 238.85,558.40 242.08,557.90"/>
    </edge>
    <edge id=":121_7" function="internal">
        <lane id=":121_7_0" index="0" disallow="pedestrian tram rail_urban rail rail_electric rail_fast ship" speed="36.11" length="38.79" width="3.50" shape="221.38,544.12 225.30,563.11 229.22,582.11"/>
    </edge>
    <edge id=":121_8" function="internal">
        <lane id=":121_8_0" index="0" disallow="pedestrian tram rail_urban rail rail_electric rail_fast ship" speed="12.25" length="34.44" width="3.50" shape="221.38,544.12 221.81,546.63 222.05,549.20 222.06,551.82 221.76,554.46 221.11,557.04 220.61,558.35 220.02,559.58 219.32,560.76 218.52,561.88 217.63,562.91 216.66,563.87 215.60,564.76 213.40,566.23 211.04,567.41 208.59,568.34 204.88,569.33"/>
    </edge>
    <edge id=":121_9" function="internal">
        <lane id=":121_9_0" index="0" disallow="pedestrian tram rail_urban rail rail_electric rail_fast ship" speed="11.25" length="28.86" width="3.50" shape="204.16,565.90 207.38,565.05 209.46,564.26 211.44,563.26 213.29,562.03 214.14,561.31 214.93,560.53 215.66,559.69 216.31,558.79 216.87,557.83 217.35,556.83 217.75,555.79 218.29,553.64 218.54,551.43 218.54,549.21 218.33,547.00 217.96,544.83"/>
    </edge>
    <edge id=":121_10" function="internal">
        <lane id=":121_10_0" index="0" disallow="pedestrian tram rail_urban rail rail_electric rail_fast ship" speed="36.11" length="38.75" width="3.50" shape="204.16,565.90 223.13,561.90 242.08,557.90"/>
    </edge>
    <edge id=":121_11" function="internal">
        <lane id=":121_11_0" index="0" disallow="pedestrian tram rail_urban rail rail_electric rail_fast ship" speed="12.18" length="34.27" width="3.50" shape="204.16,565.90 208.07,565.28 210.70,565.13 213.33,565.25 215.93,565.69 217.20,566.05 218.44,566.50 219.63,567.06 220.77,567.72 221.85,568.48 222.86,569.33 223.79,570.27 225.41,572.34 226.73,574.62 227.78,577.04 228.60,579.55 229.22,582.11"/>
    </edge>
    <edge id=":122_0" function="internal">
        <lane id=":122_0_0" index="0" disallow="pedestrian tram rail_urban rail rail_electric rail_fast ship" speed="11.16" length="28.57" width="3.50" shape="211.21,512.18 210.38,508.99 209.60,506.94 208.61,504.97 207.38,503.15 206.67,502.31 205.89,501.53 205.05,500.82 204.15,500.19 203.20,499.64 202.20,499.17 201.17,498.80 199.03,498.28 196.85,498.05 194.65,498.07 192.46,498.29 190.31,498.67"/>
    </edge>
    <edge id=":122_1" function="internal">
        <lane id=":122_1_0" index="0" disallow="pedestrian tram rail_urban rail rail_electric rail_fast ship" speed="36.11" length="38.83" width="3.50" shape="211.21,512.18 207.29,493.17 203.36,474.15"/>
    </edge>
    <edge id=":122_2" function="internal">
        <lane id=":122_2_0" index="0" disallow="pedestrian tram rail_urban rail rail_electric rail_fast ship" speed="12.20" length="34.15" width="3.50" shape="211.21,512.18 210.62,508.29 210.49,505.67 210.62,503.05 211.08,500.46 211.45,499.20 211.92,497.98 212.49,496.79 213.16,495.66 213.92,494.60 214.78,493.60 215.72,492.68 217.79,491.07 220.06,489.76 222.47,488.71 224.96,487.89 227.54,487.26"/>
    </edge>
    <edge id=":122_3" function="internal">
        <lane id=":122_3_0" index="0" disallow="pedestrian tram rail_urban rail rail_electric rail_fast ship" speed="11.19" length="28.59" width="3.50" shape="228.26,490.68 226.02,491.23 223.87,491.93 221.83,492.82 219.93,493.91 218.21,495.26 217.47,495.98 216.79,496.78 216.17,497.63 215.64,498.54 215.18,499.49 214.80,500.48 214.51,501.48 214.12,503.65 214.01,505.86 214.12,508.08 214.64,511.48"/>
    </edge>
    <edge id=":122_4" function="internal">
        <lane id=":122_4_0" index="0" disallow="pedestrian tram rail_urban rail rail_electric rail_fast ship" speed="36.11" length="38.78" width="3.50" shape="228.26,490.68 209.26,494.68 190.31,498.67"/>
    </edge>
    <edge id=":122_5" function="internal">
        <lane id=":122_5_0" index="0" disallow="pedestrian tram rail_urban rail rail_electric rail_fast ship" speed="12.19" length="34.32" width="3.50" shape="228.26,490.68 224.32,491.29 221.69,491.43 219.06,491.28 216.46,490.81 215.20,490.42 213.97,489.94 212.79,489.36 211.66,488.67 210.60,487.89 209.61,487.01 208.70,486.06 207.11,483.96 205.82,481.66 204.79,479.23 203.98,476.72 203.36,474.15"/>
    </edge>
    <edge id=":122_6" function="internal">
        <lane id=":122_6_0" index="0" disallow="pedestrian tram rail_urban rail rail_electric rail_fast ship" speed="11.18" length="28.72" width="3.50" shape="206.79,473.45 207.33,475.68 208.02,477.85 208.90,479.91 209.97,481.83 211.30,483.59 212.02,484.34 212.81,485.04 213.66,485.67 214.56,486.22 215.51,486.69 216.50,487.08 217.49,487.38 219.66,487.79 221.88,487.90 224.11,487.79 227.54,487.26"/>
    </edge>
    <edge id=":122_7" function="internal">
        <lane id=":122_7_0" index="0" disallow="pedestrian tram rail_urban rail rail_electric rail_fast ship" speed="36.11" length="38.83" width="3.50" shape="206.79,473.45 210.72,492.46 214.64,511.48"/>
    </edge>
    <edge id=":122_8" function="internal">
        <lane id=":122_8_0" index="0" disallow="pedestrian tram rail_urban rail rail_electric rail_fast ship" speed="12.25" length="34.43" width="3.50" shape="206.79,473.45 207.22,475.97 207.46,478.55 207.47,481.17 207.17,483.81 206.52,486.39 206.02,487.69 205.43,488.93 204.73,490.11 203.93,491.23 203.04,492.26 202.07,493.22 201.01,494.11 198.81,495.58 196.45,496.76 194.00,497.69 190.31,498.67"/>
    </edge>
    <edge id=":122_9" function="internal">
        <lane id=":122_9_0" index="0" disallow="pedestrian tram rail_urban rail rail_electric rail_fast ship" speed="11.25" length="28.87" width="3.50" shape="189.59,495.25 192.79,494.40 194.87,493.61 196.86,492.61 198.70,491.38 199.55,490.66 200.35,489.88 201.07,489.04 201.72,488.14 202.28,487.18 202.76,486.18 203.16,485.14 203.70,482.99 203.95,480.78 203.95,478.56 203.74,476.34 203.36,474.15"/>
    </edge>
    <edge id=":122_10" function="internal">
        <lane id=":122_10_0" index="0" disallow="pedestrian tram rail_urban rail rail_electric rail_fast ship" speed="36.11" length="38.78" width="3.50" shape="189.59,495.25 208.54,491.26 227.54,487.26"/>
    </edge>
    <edge id=":122_11" function="internal">
        <lane id=":122_11_0" index="0" disallow="pedestrian tram rail_urban rail rail_electric rail_fast ship" speed="12.17" length="34.17" width="3.50" shape="189.59,495.25 192.07,494.81 194.62,494.56 197.22,494.54 199.84,494.81 202.40,495.43 203.70,495.90 204.93,496.48 206.11,497.16 207.23,497.95 208.27,498.83 209.22,499.79 210.11,500.84 211.58,503.02 212.75,505.36 213.67,507.79 214.64,511.48"/>
    </edge>
    <edge id=":123_0" function="internal">
        <lane id=":123_0_0" index="0" disallow="pedestrian tram rail_urban rail rail_electric rail_fast ship" speed="11.24" length="28.85" width="3.50" shape="97.46,610.19 96.59,606.97 95.80,604.90 94.80,602.91 93.57,601.07 92.85,600.22 92.07,599.43 91.23,598.70 90.33,598.06 89.37,597.49 88.37,597.01 87.33,596.62 85.17,596.08 82.97,595.84 80.74,595.85 78.53,596.07 76.37,596.45"/>
    </edge>
    <edge id=":123_1" function="internal">
        <lane id=":123_1_0" index="0" disallow="pedestrian tram rail_urban rail rail_electric rail_fast ship" speed="36.11" length="38.85" width="3.50" shape="97.46,610.19 93.40,591.19 89.34,572.20"/>
    </edge>
    <edge id=":123_2" function="internal">
        <lane id=":123_2_0" index="0" disallow="pedestrian tram rail_urban rail rail_electric rail_fast ship" speed="12.20" length="34.33" width="3.50" shape="97.46,610.19 96.83,606.28 96.67,603.65 96.78,601.01 97.21,598.41 97.56,597.14 98.01,595.90 98.56,594.70 99.22,593.55 99.97,592.47 100.82,591.46 101.75,590.52 103.81,588.88 106.09,587.54 108.51,586.48 111.01,585.65 113.60,585.01"/>
    </edge>
    <edge id=":123_3" function="internal">
        <lane id=":123_3_0" index="0" disallow="pedestrian tram rail_urban rail rail_electric rail_fast ship" speed="11.20" length="28.74" width="3.50" shape="114.32,588.44 112.07,588.99 109.92,589.70 107.87,590.60 105.97,591.71 104.26,593.08 103.53,593.82 102.86,594.63 102.25,595.49 101.73,596.41 101.29,597.38 100.92,598.38 100.64,599.39 100.28,601.58 100.19,603.81 100.33,606.05 100.88,609.46"/>
    </edge>
    <edge id=":123_4" function="internal">
        <lane id=":123_4_0" index="0" disallow="pedestrian tram rail_urban rail rail_electric rail_fast ship" speed="36.11" length="38.79" width="3.50" shape="114.32,588.44 95.32,592.45 76.37,596.45"/>
    </edge>
    <edge id=":123_5" function="internal">
        <lane id=":123_5_0" index="0" disallow="pedestrian tram rail_urban rail rail_electric rail_fast ship" speed="12.19" length="34.16" width="3.50" shape="114.32,588.44 110.41,589.05 107.78,589.19 105.16,589.06 102.57,588.61 101.31,588.24 100.09,587.78 98.90,587.21 97.77,586.54 96.70,585.78 95.71,584.92 94.78,583.99 93.17,581.92 91.85,579.64 90.80,577.24 89.98,574.75 89.34,572.20"/>
    </edge>
    <edge id=":123_6" function="internal">
        <lane id=":123_6_0" index="0" disallow="pedestrian tram rail_urban rail rail_electric rail_fast ship" speed="11.19" length="28.59" width="3.50" shape="92.76,571.47 93.31,573.68 94.02,575.83 94.92,577.87 96.01,579.77 97.36,581.49 98.08,582.22 98.88,582.91 99.74,583.52 100.64,584.06 101.59,584.51 102.59,584.89 103.58,585.18 105.75,585.56 107.96,585.67 110.18,585.55 113.60,585.01"/>
    </edge>
    <edge id=":123_7" function="internal">
        <lane id=":123_7_0" index="0" disallow="pedestrian tram rail_urban rail rail_electric rail_fast ship" speed="36.11" length="38.85" width="3.50" shape="92.76,571.47 96.82,590.46 100.88,609.46"/>
    </edge>
    <edge id=":123_8" function="internal">
        <lane id=":123_8_0" index="0" disallow="pedestrian tram rail_urban rail rail_electric rail_fast ship" speed="12.18" length="34.19" width="3.50" shape="92.76,571.47 93.36,575.23 93.50,577.83 93.36,580.45 92.90,583.04 92.51,584.36 92.02,585.62 91.42,586.85 90.72,588.02 89.91,589.12 89.02,590.14 88.05,591.08 86.99,591.96 84.80,593.40 82.45,594.56 80.02,595.47 76.37,596.45"/>
    </edge>
    <edge id=":123_9" function="internal">
        <lane id=":123_9_0" index="0" disallow="pedestrian tram rail_urban rail rail_electric rail_fast ship" speed="11.17" length="28.61" width="3.50" shape="75.64,593.02 78.81,592.18 80.88,591.41 82.85,590.43 84.69,589.22 85.54,588.52 86.33,587.75 87.06,586.93 87.71,586.04 88.28,585.09 88.76,584.11 89.16,583.08 89.47,582.02 89.86,579.86 89.98,577.66 89.86,575.46 89.34,572.20"/>
    </edge>
    <edge id=":123_10" function="internal">
        <lane id=":123_10_0" index="0" disallow="pedestrian tram rail_urban rail rail_electric rail_fast ship" speed="36.11" length="38.80" width="3.50" shape="75.64,593.02 94.60,589.02 113.60,585.01"/>
    </edge>
    <edge id=":123_11" function="internal">
        <lane id=":123_11_0" index="0" disallow="pedestrian tram rail_urban rail rail_electric rail_fast ship" speed="12.24" length="34.43" width="3.50" shape="75.64,593.02 78.15,592.58 80.72,592.33 83.34,592.32 85.99,592.61 88.57,593.25 89.87,593.75 91.11,594.34 92.29,595.03 93.41,595.84 94.45,596.73 95.40,597.70 96.29,598.76 97.76,600.95 98.95,603.31 99.88,605.75 100.88,609.46"/>
    </edge>
    <edge id=":124_0" function="internal">
        <lane id=":124_0_0" index="0" disallow="pedestrian tram rail_urban rail rail_electric rail_fast ship" speed="11.20" length="28.73" width="3.50" shape="353.19,555.89 352.64,553.67 351.93,551.51 351.03,549.47 349.92,547.57 348.56,545.85 347.82,545.13 347.01,544.45 346.15,543.84 345.23,543.32 344.27,542.87 343.26,542.51 342.25,542.22 340.07,541.86 337.84,541.76 335.60,541.89 332.17,542.44"/>
    </edge>
    <edge id=":124_1" function="internal">
        <lane id=":124_1_0" index="0" disallow="pedestrian tram rail_urban rail rail_electric rail_fast ship" speed="36.11" length="38.80" width="3.50" shape="353.19,555.89 349.19,536.92 345.18,517.93"/>
    </edge>
    <edge id=":124_2" function="internal">
        <lane id=":124_2_0" index="0" disallow="pedestrian tram rail_urban rail rail_electric rail_fast ship" speed="12.15" length="33.99" width="3.50" shape="353.19,555.89 352.75,553.40 352.50,550.86 352.49,548.28 352.78,545.67 353.41,543.12 353.90,541.83 354.49,540.61 355.18,539.45 355.96,538.35 356.84,537.32 357.80,536.38 358.85,535.50 361.02,534.05 363.35,532.89 365.76,531.97 369.42,531.00"/>
    </edge>
    <edge id=":124_3" function="internal">
        <lane id=":124_3_0" index="0" disallow="pedestrian tram rail_urban rail rail_electric rail_fast ship" speed="11.15" length="28.41" width="3.50" shape="370.14,534.42 366.98,535.26 364.93,536.04 362.98,537.02 361.16,538.23 360.32,538.93 359.54,539.70 358.83,540.53 358.19,541.42 357.64,542.36 357.17,543.34 356.78,544.37 356.25,546.48 356.01,548.66 356.02,550.84 356.23,553.02 356.61,555.17"/>
    </edge>
    <edge id=":124_4" function="internal">
        <lane id=":124_4_0" index="0" disallow="pedestrian tram rail_urban rail rail_electric rail_fast ship" speed="36.11" length="38.81" width="3.50" shape="370.14,534.42 351.17,538.43 332.17,542.44"/>
    </edge>
    <edge id=":124_5" function="internal">
        <lane id=":124_5_0" index="0" disallow="pedestrian tram rail_urban rail rail_electric rail_fast ship" speed="12.21" length="34.32" width="3.50" shape="370.14,534.42 366.23,535.03 363.60,535.17 360.96,535.03 358.37,534.55 357.11,534.17 355.88,533.70 354.69,533.12 353.56,532.43 352.50,531.65 351.51,530.78 350.59,529.83 348.99,527.74 347.68,525.45 346.64,523.02 345.82,520.52 345.18,517.93"/>
    </edge>
    <edge id=":124_6" function="internal">
        <lane id=":124_6_0" index="0" disallow="pedestrian tram rail_urban rail rail_electric rail_fast ship" speed="11.21" length="28.74" width="3.50" shape="348.61,517.21 349.16,519.46 349.86,521.63 350.75,523.69 351.84,525.61 353.18,527.35 353.90,528.10 354.69,528.80 355.55,529.42 356.45,529.97 357.40,530.44 358.39,530.83 359.39,531.13 361.57,531.53 363.78,531.64 366.02,531.53 369.42,531.00"/>
    </edge>
    <edge id=":124_7" function="internal">
        <lane id=":124_7_0" index="0" disallow="pedestrian tram rail_urban rail rail_electric rail_fast ship" speed="36.11" length="38.79" width="3.50" shape="348.61,517.21 352.61,536.20 356.61,555.17"/>
    </edge>
    <edge id=":124_8" function="internal">
        <lane id=":124_8_0" index="0" disallow="pedestrian tram rail_urban rail rail_electric rail_fast ship" speed="12.25" length="34.55" width="3.50" shape="348.61,517.21 349.23,521.16 349.37,523.81 349.25,526.46 348.79,529.08 348.42,530.35 347.95,531.59 347.38,532.79 346.70,533.94 345.93,535.01 345.06,536.02 344.12,536.95 342.02,538.58 339.73,539.91 337.29,540.97 334.77,541.80 332.17,542.44"/>
    </edge>
    <edge id=":124_9" function="internal">
        <lane id=":124_9_0" index="0" disallow="pedestrian tram rail_urban rail rail_electric rail_fast ship" speed="11.25" length="28.97" width="3.50" shape="331.45,539.02 333.71,538.46 335.89,537.74 337.96,536.84 339.88,535.74 341.62,534.38 342.37,533.64 343.06,532.83 343.68,531.97 344.22,531.05 344.68,530.09 345.06,529.08 345.36,528.07 345.74,525.87 345.85,523.64 345.73,521.38 345.18,517.93"/>
    </edge>
    <edge id=":124_10" function="internal">
        <lane id=":124_10_0" index="0" disallow="pedestrian tram rail_urban rail rail_electric rail_fast ship" speed="36.11" length="38.81" width="3.50" shape="331.45,539.02 350.45,535.00 369.42,531.00"/>
    </edge>
    <edge id=":124_11" function="internal">
        <lane id=":124_11_0" index="0" disallow="pedestrian tram rail_urban rail rail_electric rail_fast ship" speed="12.20" length="34.31" width="3.50" shape="331.45,539.01 335.38,538.39 338.01,538.24 340.65,538.35 343.25,538.79 344.52,539.14 345.76,539.60 346.95,540.15 348.10,540.81 349.18,541.57 350.19,542.42 351.12,543.35 352.76,545.42 354.09,547.69 355.15,550.11 355.98,552.61 356.61,555.17"/>
    </edge>
    <edge id=":125_0" function="internal">
        <lane id=":125_0_0" index="0" disallow="pedestrian tram rail_urban rail rail_electric rail_fast ship" speed="11.14" length="28.55" width="3.50" shape="240.40,653.69 239.57,650.51 238.79,648.46 237.81,646.49 236.58,644.67 235.87,643.84 235.09,643.06 234.25,642.35 233.35,641.72 232.40,641.17 231.40,640.71 230.37,640.33 228.23,639.82 226.04,639.60 223.85,639.63 221.66,639.85 219.50,640.24"/>
    </edge>
    <edge id=":125_1" function="internal">
        <lane id=":125_1_0" index="0" disallow="pedestrian tram rail_urban rail rail_electric rail_fast ship" speed="36.11" length="38.81" width="3.50" shape="240.40,653.69 236.48,634.69 232.56,615.68"/>
    </edge>
    <edge id=":125_2" function="internal">
        <lane id=":125_2_0" index="0" disallow="pedestrian tram rail_urban rail rail_electric rail_fast ship" speed="12.19" length="34.05" width="3.50" shape="240.40,653.69 239.98,651.20 239.74,648.65 239.73,646.06 240.03,643.45 240.67,640.90 241.16,639.61 241.74,638.39 242.43,637.22 243.23,636.11 244.11,635.08 245.07,634.14 246.11,633.26 248.28,631.80 250.61,630.62 253.03,629.70 256.68,628.71"/>
    </edge>
    <edge id=":125_3" function="internal">
        <lane id=":125_3_0" index="0" disallow="pedestrian tram rail_urban rail rail_electric rail_fast ship" speed="11.18" length="28.48" width="3.50" shape="257.41,632.13 254.25,632.99 252.20,633.77 250.24,634.76 248.42,635.98 247.59,636.69 246.80,637.46 246.09,638.29 245.45,639.19 244.89,640.13 244.42,641.12 244.03,642.15 243.49,644.27 243.25,646.45 243.25,648.65 243.46,650.83 243.83,652.97"/>
    </edge>
    <edge id=":125_4" function="internal">
        <lane id=":125_4_0" index="0" disallow="pedestrian tram rail_urban rail rail_electric rail_fast ship" speed="36.11" length="38.77" width="3.50" shape="257.41,632.13 238.46,636.18 219.50,640.24"/>
    </edge>
    <edge id=":125_5" function="internal">
        <lane id=":125_5_0" index="0" disallow="pedestrian tram rail_urban rail rail_electric rail_fast ship" speed="12.14" length="34.15" width="3.50" shape="257.41,632.13 253.67,632.73 251.07,632.87 248.46,632.73 245.88,632.26 244.56,631.87 243.29,631.38 242.07,630.78 240.91,630.07 239.81,629.26 238.79,628.36 237.85,627.39 236.99,626.33 235.56,624.13 234.41,621.79 233.52,619.36 232.56,615.68"/>
    </edge>
    <edge id=":125_6" function="internal">
        <lane id=":125_6_0" index="0" disallow="pedestrian tram rail_urban rail rail_electric rail_fast ship" speed="11.14" length="28.54" width="3.50" shape="235.99,614.97 236.81,618.16 237.58,620.22 238.54,622.20 239.74,624.04 240.43,624.89 241.19,625.68 242.01,626.41 242.90,627.06 243.84,627.63 244.82,628.12 245.84,628.52 246.90,628.84 249.06,629.23 251.25,629.34 253.44,629.22 256.68,628.71"/>
    </edge>
    <edge id=":125_7" function="internal">
        <lane id=":125_7_0" index="0" disallow="pedestrian tram rail_urban rail rail_electric rail_fast ship" speed="36.11" length="38.80" width="3.50" shape="235.99,614.97 239.91,633.98 243.83,652.97"/>
    </edge>
    <edge id=":125_8" function="internal">
        <lane id=":125_8_0" index="0" disallow="pedestrian tram rail_urban rail rail_electric rail_fast ship" speed="12.28" length="34.55" width="3.50" shape="235.99,614.97 236.59,618.91 236.72,621.57 236.58,624.22 236.11,626.84 235.73,628.11 235.26,629.35 234.69,630.55 234.01,631.70 233.24,632.78 232.37,633.79 231.42,634.72 229.33,636.36 227.03,637.69 224.60,638.76 222.08,639.60 219.50,640.24"/>
    </edge>
    <edge id=":125_9" function="internal">
        <lane id=":125_9_0" index="0" disallow="pedestrian tram rail_urban rail rail_electric rail_fast ship" speed="11.28" length="29.00" width="3.50" shape="218.76,636.82 221.01,636.26 223.19,635.54 225.26,634.63 227.18,633.51 228.93,632.15 229.67,631.41 230.37,630.60 230.99,629.73 231.54,628.81 232.00,627.84 232.38,626.83 232.68,625.82 233.08,623.62 233.20,621.38 233.08,619.12 232.56,615.68"/>
    </edge>
    <edge id=":125_10" function="internal">
        <lane id=":125_10_0" index="0" disallow="pedestrian tram rail_urban rail rail_electric rail_fast ship" speed="36.11" length="38.78" width="3.50" shape="218.76,636.82 237.73,632.76 256.68,628.71"/>
    </edge>
    <edge id=":125_11" function="internal">
        <lane id=":125_11_0" index="0" disallow="pedestrian tram rail_urban rail rail_electric rail_fast ship" speed="12.15" length="34.16" width="3.50" shape="218.76,636.82 221.27,636.37 223.82,636.11 226.41,636.08 229.03,636.35 231.59,636.96 232.89,637.43 234.12,638.01 235.30,638.69 236.42,639.47 237.46,640.35 238.42,641.31 239.31,642.36 240.77,644.54 241.95,646.88 242.86,649.31 243.83,652.97"/>
    </edge>
    <edge id=":126_0" function="internal">
        <lane id=":126_0_0" index="0" disallow="pedestrian tram rail_urban rail rail_electric rail_fast ship" speed="11.14" length="28.48" width="3.50" shape="196.68,441.75 196.15,439.54 195.46,437.39 194.58,435.35 193.50,433.45 192.17,431.72 191.45,430.99 190.65,430.30 189.81,429.69 188.91,429.16 187.96,428.70 186.97,428.32 185.98,428.03 183.81,427.65 181.61,427.54 179.39,427.66 176.01,428.19"/>
    </edge>
    <edge id=":126_1" function="internal">
        <lane id=":126_1_0" index="0" disallow="pedestrian tram rail_urban rail rail_electric rail_fast ship" speed="36.11" length="38.80" width="3.50" shape="196.68,441.75 192.76,422.75 188.84,403.75"/>
    </edge>
    <edge id=":126_2" function="internal">