<routes>
	<vehicle depart="0.1" departLane="0" departPos="11.031967974461029" departSpeed="0.37338681" id="3107" type="bus">
		<route edges=":224_1 85530"/>
	</vehicle>
	<vehicle depart="0.1" departLane="0" departPos="6.029655819877052" departSpeed="0.046913269" id="321" type="passenger">
		<route edges=":224_2 86364"/>
	</vehicle>
	<vehicle depart="0.1" departLane="0" departPos="21.14932216690102" departSpeed="0.0" id="383" type="passenger">
		<route edges=":226_3 86357"/>
	</vehicle>
	<vehicle depart="0.1" departLane="0" departPos="13.846057069966681" departSpeed="0.13463189" id="392" type="passenger">
		<route edges=":226_3 86357"/>
	</vehicle>
	<vehicle depart="0.1" departLane="0" departPos="51.34667324896697" departSpeed="1.228339" id="3116" type="passenger">
		<route edges="86363 86360"/>
	</vehicle>
	<vehicle depart="0.1" departLane="0" departPos="43.10271474651303" departSpeed="2.2986927" id="3123" type="passenger">
		<route edges="86363 86360"/>
	</vehicle>
	<vehicle depart="0.1" departLane="0" departPos="33.25489171416439" departSpeed="3.2595526" id="3132" type="passenger">
		<route edges="86363 86360"/>
	</vehicle>
	<vehicle depart="0.1" departLane="0" departPos="20.5271158853792" departSpeed="3.2745461" id="3138" type="passenger">
		<route edges="86363 86360"/>
	</vehicle>
	<vehicle depart="0.1" departLane="0" departPos="11.074759399061023" departSpeed="1.0901145" id="3145" type="passenger">
		<route edges="86363 86360"/>
	</vehicle>
	<vehicle depart="0.1" departLane="0" departPos="9.734763254379974" departSpeed="0.0" id="30" type="truck">
		<route edges="84577 86361"/>
	</vehicle>
</routes>
