<!-- generated on Tue Feb  9 22:01:24 2021 by Eclipse SUMO netconvert Version 1.8.0
<configuration xmlns:xsi="http://www.w3.org/2001/XMLSchema-instance" xsi:noNamespaceSchemaLocation="http://sumo.dlr.de/xsd/netconvertConfiguration.xsd">

    <input>
        <node-files value="./converted_scenarios/scenario-factory/DEU_Speyer-3_4_I-1-1/DEU_Speyer-3_4_I-1-1.nod.xml"/>
        <edge-files value="./converted_scenarios/scenario-factory/DEU_Speyer-3_4_I-1-1/DEU_Speyer-3_4_I-1-1.edg.xml"/>
        <connection-files value="./converted_scenarios/scenario-factory/DEU_Speyer-3_4_I-1-1/DEU_Speyer-3_4_I-1-1.con.xml"/>
        <tllogic-files value="./converted_scenarios/scenario-factory/DEU_Speyer-3_4_I-1-1/DEU_Speyer-3_4_I-1-1.tll.xml"/>
        <type-files value="/home/zen/commonroad-interactive-benchmarks/install/commonroad-map-tool/crmapconverter/sumo_map/templates/DEU.typ.xml"/>
    </input>

    <output>
        <output-file value="./converted_scenarios/scenario-factory/DEU_Speyer-3_4_I-1-1/DEU_Speyer-3_4_I-1-1.net.xml"/>
    </output>

    <processing>
        <geometry.remove.keep-edges.explicit value="true"/>
        <geometry.avoid-overlap value="true"/>
        <offset.disable-normalization value="true"/>
    </processing>

    <junctions>
        <no-turnarounds value="true"/>
        <junctions.internal-link-detail value="20"/>
    </junctions>

    <report>
        <aggregate-warnings value="5"/>
    </report>

    <random_number>
        <seed value="1234"/>
    </random_number>

</configuration>
--><net xmlns:xsi="http://www.w3.org/2001/XMLSchema-instance" version="1.6" junctionCornerDetail="5" junctionLinkDetail="20" limitTurnSpeed="5.50" xsi:noNamespaceSchemaLocation="http://sumo.dlr.de/xsd/net_file.xsd">

    <location netOffset="0.00,0.00" convBoundary="495.96,-361.59,636.34,-177.77" origBoundary="495.96,-361.59,636.34,-177.77" projParameter="!"/>

    <type id="highway.bridleway" priority="1" speed="2.78" allow="pedestrian" oneway="1" width="2.00"/>
    <type id="highway.bus_guideway" priority="1" speed="27.78" allow="bus" oneway="1"/>
    <type id="highway.cycleway" priority="1" speed="8.33" allow="bicycle" oneway="0" width="1.00"/>
    <type id="highway.footway" priority="1" speed="2.78" allow="pedestrian" oneway="1" width="2.00"/>
    <type id="highway.ford" priority="1" speed="2.78" allow="army" oneway="0"/>
    <type id="highway.living_street" priority="2" speed="2.78" disallow="tram rail_urban rail rail_electric rail_fast ship" oneway="0"/>
    <type id="highway.motorway" priority="14" speed="39.44" allow="private emergency authority army vip passenger hov taxi bus coach delivery truck trailer motorcycle evehicle custom1 custom2" oneway="1"/>
    <type id="highway.motorway_link" priority="9" speed="22.22" allow="private emergency authority army vip passenger hov taxi bus coach delivery truck trailer motorcycle evehicle custom1 custom2" oneway="1"/>
    <type id="highway.path" priority="1" speed="2.78" allow="pedestrian bicycle" oneway="0" width="2.00"/>
    <type id="highway.pedestrian" priority="1" speed="2.78" allow="pedestrian" oneway="1" width="2.00"/>
    <type id="highway.primary" priority="12" speed="27.78" disallow="pedestrian tram rail_urban rail rail_electric rail_fast ship" oneway="0"/>
    <type id="highway.primary_link" priority="7" speed="22.22" disallow="pedestrian tram rail_urban rail rail_electric rail_fast ship" oneway="0"/>
    <type id="highway.raceway" priority="15" speed="83.33" allow="vip" oneway="0"/>
    <type id="highway.residential" priority="3" speed="13.89" disallow="pedestrian tram rail_urban rail rail_electric rail_fast ship" oneway="0"/>
    <type id="highway.secondary" priority="11" speed="27.78" disallow="pedestrian tram rail_urban rail rail_electric rail_fast ship" oneway="0"/>
    <type id="highway.secondary_link" priority="6" speed="22.22" disallow="pedestrian tram rail_urban rail rail_electric rail_fast ship" oneway="0"/>
    <type id="highway.service" priority="1" speed="5.56" allow="pedestrian delivery bicycle" oneway="0"/>
    <type id="highway.stairs" priority="1" speed="1.39" allow="pedestrian" oneway="1" width="2.00"/>
    <type id="highway.step" priority="1" speed="1.39" allow="pedestrian" oneway="1" width="2.00"/>
    <type id="highway.steps" priority="1" speed="1.39" allow="pedestrian" oneway="1" width="2.00"/>
    <type id="highway.tertiary" priority="10" speed="22.22" disallow="pedestrian tram rail_urban rail rail_electric rail_fast ship" oneway="0"/>
    <type id="highway.tertiary_link" priority="5" speed="22.22" disallow="pedestrian tram rail_urban rail rail_electric rail_fast ship" oneway="0"/>
    <type id="highway.track" priority="1" speed="5.56" allow="pedestrian motorcycle moped bicycle" oneway="0"/>
    <type id="highway.trunk" priority="13" speed="27.78" disallow="pedestrian bicycle tram rail_urban rail rail_electric rail_fast ship" oneway="0"/>
    <type id="highway.trunk_link" priority="8" speed="22.22" disallow="pedestrian bicycle tram rail_urban rail rail_electric rail_fast ship" oneway="0"/>
    <type id="highway.unclassified" priority="4" speed="13.89" disallow="pedestrian tram rail_urban rail rail_electric rail_fast ship" oneway="0"/>
    <type id="highway.unsurfaced" priority="1" speed="8.33" disallow="tram rail_urban rail rail_electric rail_fast ship" oneway="0"/>
    <type id="railway.highspeed" priority="21" speed="69.44" allow="rail_fast" oneway="1"/>
    <type id="railway.light_rail" priority="19" speed="27.78" allow="rail_urban" oneway="1"/>
    <type id="railway.preserved" priority="16" speed="27.78" allow="rail" oneway="1"/>
    <type id="railway.rail" priority="20" speed="44.44" allow="rail" oneway="1"/>
    <type id="railway.subway" priority="18" speed="27.78" allow="rail_urban" oneway="1"/>
    <type id="railway.tram" priority="17" speed="13.89" allow="tram" oneway="1"/>

    <edge id=":14_0" function="internal">
        <lane id=":14_0_0" index="0" disallow="pedestrian tram rail_urban rail rail_electric rail_fast ship" speed="36.11" length="2.93" width="3.50" shape="522.92,-319.98 520.63,-321.81"/>
    </edge>
    <edge id=":15_0" function="internal">
        <lane id=":15_0_0" index="0" disallow="pedestrian tram rail_urban rail rail_electric rail_fast ship" speed="36.11" length="2.93" width="3.50" shape="515.14,-326.65 513.05,-328.71"/>
    </edge>
    <edge id=":19_0" function="internal">
        <lane id=":19_0_0" index="0" disallow="pedestrian tram rail_urban rail rail_electric rail_fast ship" speed="36.11" length="2.98" width="3.50" shape="618.39,-340.21 616.32,-338.06"/>
    </edge>
    <edge id=":22_0" function="internal">
        <lane id=":22_0_0" index="0" disallow="pedestrian tram rail_urban rail rail_electric rail_fast ship" speed="36.11" length="2.93" width="3.50" shape="515.49,-331.22 517.58,-329.16"/>
    </edge>
    <edge id=":25_0" function="internal">
        <lane id=":25_0_0" index="0" disallow="pedestrian tram rail_urban rail rail_electric rail_fast ship" speed="36.11" length="7.84" width="3.50" shape="520.91,-326.13 521.36,-325.75 521.76,-325.41 522.12,-325.10 522.45,-324.81 522.75,-324.55 523.02,-324.30 523.28,-324.08 523.53,-323.86 523.77,-323.66 524.01,-323.47 524.26,-323.27 524.52,-323.08 524.80,-322.89 525.10,-322.68 525.43,-322.47 525.80,-322.25 526.21,-322.00 526.67,-321.74 527.18,-321.46"/>
        <lane id=":25_0_1" index="1" disallow="pedestrian tram rail_urban rail rail_electric rail_fast ship" speed="36.11" length="7.83" width="3.50" shape="520.91,-326.13 527.07,-321.30"/>
    </edge>
    <edge id=":27_0" function="internal">
        <lane id=":27_0_0" index="0" disallow="pedestrian tram rail_urban rail rail_electric rail_fast ship" speed="11.51" length="19.54" width="3.49" shape="589.03,-316.32 582.62,-312.65 578.67,-310.07 576.18,-308.15 574.67,-306.69 573.78,-305.40 573.60,-304.91 573.59,-304.81"/>
    </edge>
    <edge id=":27_1" function="internal">
        <lane id=":27_1_0" index="0" disallow="pedestrian tram rail_urban rail rail_electric rail_fast ship" speed="34.99" length="23.68" width="3.50" shape="589.03,-316.32 582.13,-312.78 576.97,-310.49 572.63,-308.89 569.17,-307.95 567.13,-307.59"/>
    </edge>
    <edge id=":27_2" function="internal">
        <lane id=":27_2_0" index="0" disallow="pedestrian tram rail_urban rail rail_electric rail_fast ship" speed="32.26" length="21.80" width="3.50" shape="566.15,-314.52 574.41,-315.77 580.49,-317.02 584.46,-318.16 586.86,-319.14 587.32,-319.38"/>
    </edge>
    <edge id=":27_3" function="internal">
        <lane id=":27_3_0" index="0" disallow="pedestrian tram rail_urban rail rail_electric rail_fast ship" speed="6.89" length="10.80" width="3.49" shape="566.64,-311.06 568.55,-311.12 569.77,-310.91 570.90,-310.41 571.86,-309.61 572.56,-308.59 573.04,-307.45 573.43,-305.63 573.50,-304.80"/>
    </edge>
    <edge id=":28_0" function="internal">
        <lane id=":28_0_0" index="0" disallow="pedestrian tram rail_urban rail rail_electric rail_fast ship" speed="36.11" length="29.09" width="3.49" shape="572.68,-247.52 570.66,-262.50 568.63,-274.94 568.37,-276.28"/>
    </edge>
    <edge id=":28_1" function="internal">
        <lane id=":28_1_0" index="0" disallow="pedestrian tram rail_urban rail rail_electric rail_fast ship" speed="36.11" length="31.19" width="3.50" shape="574.70,-279.08 576.11,-248.43 576.15,-247.92"/>
    </edge>
    <edge id=":29_0" function="internal">
        <lane id=":29_0_0" index="0" disallow="pedestrian tram rail_urban rail rail_electric rail_fast ship" speed="10.65" length="16.54" width="3.50" shape="561.90,-302.73 561.28,-303.41 559.97,-304.26 557.58,-305.28 554.07,-306.33 548.46,-307.54 546.43,-307.90"/>
    </edge>
    <edge id=":29_1" function="internal">
        <lane id=":29_1_0" index="0" disallow="pedestrian tram rail_urban rail rail_electric rail_fast ship" speed="7.65" length="14.52" width="3.50" shape="562.05,-302.78 561.43,-305.09 561.07,-307.49 561.05,-309.31 561.23,-310.50 561.62,-311.65 562.26,-312.67 563.15,-313.49 564.22,-314.06 565.38,-314.40 566.00,-314.50"/>
    </edge>
    <edge id=":29_2" function="internal">
        <lane id=":29_2_0" index="0" disallow="pedestrian tram rail_urban rail rail_electric rail_fast ship" speed="36.11" length="20.59" width="3.50" shape="566.95,-307.56 561.78,-307.08 556.64,-306.96 551.50,-307.24 546.43,-307.90"/>
    </edge>
    <edge id=":29_3" function="internal">
        <lane id=":29_3_0" index="0" disallow="pedestrian tram rail_urban rail rail_electric rail_fast ship" speed="36.11" length="18.54" width="3.50" shape="547.53,-314.81 552.08,-314.22 556.69,-313.96 561.31,-314.06 566.00,-314.50"/>
        <lane id=":29_3_1" index="1" disallow="pedestrian tram rail_urban rail rail_electric rail_fast ship" speed="36.11" length="19.56" width="3.50" shape="546.98,-311.35 551.82,-310.73 556.70,-310.46 561.58,-310.57 566.47,-311.03"/>
    </edge>
    <edge id=":8_0" function="internal">
        <lane id=":8_0_0" index="0" disallow="pedestrian tram rail_urban rail rail_electric rail_fast ship" speed="36.11" length="2.98" width="3.50" shape="613.78,-340.47 615.85,-342.62"/>
    </edge>

    <edge id="47688" from="27" to="8" priority="3" type="highway.residential" spreadType="center" length="34.00" shape="575.62,-313.48 614.83,-341.54">
        <lane id="47688_0" index="0" disallow="pedestrian tram rail_urban rail rail_electric rail_fast ship" speed="36.11" length="34.00" width="3.50" customShape="1" shape="587.32,-319.38 590.81,-321.33 595.47,-324.24 599.51,-327.19 603.73,-330.72 609.58,-336.18 613.78,-340.47"/>
    </edge>
    <edge id="47689" from="19" to="27" priority="3" type="highway.residential" spreadType="center" length="35.10" shape="617.36,-339.12 577.66,-310.63">
        <lane id="47689_0" index="0" disallow="pedestrian tram rail_urban rail rail_electric rail_fast ship" speed="36.11" length="35.10" width="3.50" customShape="1" shape="616.32,-338.06 611.99,-333.64 605.98,-328.04 601.61,-324.40 597.42,-321.33 592.59,-318.31 588.99,-316.30"/>
    </edge>
    <edge id="47756" from="29" to="27" priority="3" type="highway.residential" spreadType="center" length="0.15" shape="556.58,-312.34 576.13,-315.55">
        <lane id="47756_0" index="0" disallow="pedestrian tram rail_urban rail rail_electric rail_fast ship" speed="36.11" length="0.15" width="3.50" customShape="1" shape="566.00,-314.50 566.15,-314.52"/>
        <lane id="47756_1" index="1" disallow="pedestrian tram rail_urban rail rail_electric rail_fast ship" speed="36.11" length="0.24" width="3.50" customShape="1" shape="566.44,-311.03 566.56,-311.05 566.68,-311.06"/>
    </edge>
    <edge id="47758" from="27" to="29" priority="3" type="highway.residential" spreadType="center" length="0.27" shape="576.97,-310.36 557.87,-307.30">
        <lane id="47758_0" index="0" disallow="pedestrian tram rail_urban rail rail_electric rail_fast ship" speed="36.11" length="0.27" width="3.50" customShape="1" shape="567.13,-307.59 567.02,-307.58 566.86,-307.56"/>
    </edge>
    <edge id="47760" from="25" to="29" priority="3" type="highway.residential" spreadType="center" length="21.57" shape="523.91,-323.63 559.14,-312.25">
        <lane id="47760_0" index="0" disallow="pedestrian tram rail_urban rail rail_electric rail_fast ship" speed="36.11" length="21.57" width="3.50" customShape="1" shape="527.18,-321.46 529.61,-320.12 533.39,-318.48 537.78,-317.00 542.77,-315.73 547.34,-314.84 547.57,-314.80"/>
        <lane id="47760_1" index="1" disallow="pedestrian tram rail_urban rail rail_electric rail_fast ship" speed="36.11" length="22.47" width="3.50" customShape="1" shape="527.07,-321.30 529.93,-319.23 534.39,-316.40 538.08,-314.41 540.90,-313.13 543.79,-312.10 546.78,-311.39 547.00,-311.35"/>
    </edge>
    <edge id="47764" from="27" to="28" priority="3" type="highway.residential" spreadType="center" length="25.77">
        <lane id="47764_0" index="0" disallow="pedestrian tram rail_urban rail rail_electric rail_fast ship" speed="36.11" length="25.77" width="3.49" customShape="1" shape="573.52,-304.80 573.54,-304.26 574.65,-279.05"/>
    </edge>
    <edge id="47825" from="28" to="17" priority="3" type="highway.residential" spreadType="center" length="70.00" shape="572.91,-275.49 577.75,-178.16">
        <lane id="47825_0" index="0" disallow="pedestrian tram rail_urban rail rail_electric rail_fast ship" speed="36.11" length="70.00" width="3.50" customShape="1" shape="576.15,-247.92 578.62,-225.97 579.30,-217.46 579.55,-209.93 579.41,-201.40 578.76,-187.35 578.16,-180.86 577.75,-178.16"/>
    </edge>
    <edge id="47826" from="24" to="28" priority="3" type="highway.residential" spreadType="center" length="70.01" shape="574.15,-177.77 569.42,-275.32">
        <lane id="47826_0" index="0" disallow="pedestrian tram rail_urban rail rail_electric rail_fast ship" speed="36.11" length="70.01" width="3.50" customShape="1" shape="574.15,-177.77 574.63,-180.77 575.24,-187.18 575.90,-201.18 576.05,-209.66 575.82,-217.11 575.14,-225.56 572.67,-247.53"/>
    </edge>
    <edge id="47828" from="22" to="25" priority="3" type="highway.residential" spreadType="center" length="4.50">
        <lane id="47828_0" index="0" disallow="pedestrian tram rail_urban rail rail_electric rail_fast ship" speed="36.11" length="4.50" width="3.50" customShape="1" shape="517.58,-329.16 519.93,-326.96 520.91,-326.13"/>
    </edge>
    <edge id="47829" from="14" to="15" priority="3" type="highway.residential" spreadType="center" length="7.32">
        <lane id="47829_0" index="0" disallow="pedestrian tram rail_urban rail rail_electric rail_fast ship" speed="36.11" length="7.32" width="3.50" customShape="1" shape="520.63,-321.81 517.61,-324.33 515.14,-326.65"/>
    </edge>
    <edge id="47831" from="28" to="29" priority="3" type="highway.residential" spreadType="center" length="26.95">
        <lane id="47831_0" index="0" disallow="pedestrian tram rail_urban rail rail_electric rail_fast ship" speed="36.11" length="26.95" width="3.49" customShape="1" shape="570.20,-277.09 562.25,-302.05 562.02,-302.77"/>
    </edge>
    <edge id="47909" from="8" to="18" priority="3" type="highway.residential" spreadType="center" length="26.14">
        <lane id="47909_0" index="0" disallow="pedestrian tram rail_urban rail rail_electric rail_fast ship" speed="36.11" length="26.14" width="3.50" customShape="1" shape="615.85,-342.62 633.10,-360.83 633.84,-361.59"/>
    </edge>
    <edge id="47962" from="15" to="20" priority="3" type="highway.residential" spreadType="center" length="26.07">
        <lane id="47962_0" index="0" disallow="pedestrian tram rail_urban rail rail_electric rail_fast ship" speed="36.11" length="26.07" width="3.50" customShape="1" shape="513.05,-328.71 508.29,-333.96 495.96,-348.39"/>
    </edge>
    <edge id="47974" from="21" to="22" priority="3" type="highway.residential" spreadType="center" length="25.72">
        <lane id="47974_0" index="0" disallow="pedestrian tram rail_urban rail rail_electric rail_fast ship" speed="36.11" length="25.72" width="3.50" customShape="1" shape="498.63,-350.64 510.86,-336.33 515.49,-331.22"/>
    </edge>
    <edge id="48001" from="23" to="19" priority="3" type="highway.residential" spreadType="center" length="26.08">
        <lane id="48001_0" index="0" disallow="pedestrian tram rail_urban rail rail_electric rail_fast ship" speed="36.11" length="26.08" width="3.50" customShape="1" shape="636.34,-359.13 635.61,-358.39 618.39,-340.21"/>
    </edge>
    <edge id="48044" from="29" to="14" priority="3" type="highway.residential" spreadType="center" length="26.67" shape="557.21,-307.38 521.75,-320.87">
        <lane id="48044_0" index="0" disallow="pedestrian tram rail_urban rail rail_electric rail_fast ship" speed="36.11" length="26.67" width="3.50" customShape="1" shape="546.43,-307.90 546.28,-307.92 546.16,-307.94 542.90,-308.71 539.75,-309.82 536.70,-311.19 532.78,-313.29 528.07,-316.27 522.92,-319.98"/>
    </edge>

    <junction id="14" type="priority" x="521.75" y="-320.87" incLanes="48044_0" intLanes=":14_0_0" shape="521.85,-318.60 523.99,-321.37 521.75,-323.15 519.51,-320.47" rightOfWay="edgePriority">
        <request index="0" response="0" foes="0" cont="0"/>
    </junction>
    <junction id="15" type="priority" x="514.07" y="-327.66" incLanes="47829_0" intLanes=":15_0_0" shape="513.94,-325.38 516.34,-327.93 514.29,-329.94 511.80,-327.48" rightOfWay="edgePriority">
        <request index="0" response="0" foes="0" cont="0"/>
    </junction>
    <junction id="17" type="dead_end" x="577.75" y="-178.16" incLanes="47825_0" intLanes="" shape="579.48,-177.90 576.02,-178.43" rightOfWay="edgePriority"/>
    <junction id="18" type="dead_end" x="633.84" y="-361.59" incLanes="47909_0" intLanes="" shape="632.59,-362.81 635.09,-360.36" rightOfWay="edgePriority"/>
    <junction id="19" type="priority" x="617.36" y="-339.12" incLanes="48001_0" intLanes=":19_0_0" shape="619.66,-339.01 617.12,-341.41 615.07,-339.28 617.57,-336.83" rightOfWay="edgePriority">
        <request index="0" response="0" foes="0" cont="0"/>
    </junction>
    <junction id="20" type="dead_end" x="495.96" y="-348.39" incLanes="47962_0" intLanes="" shape="494.63,-347.25 497.29,-349.52" rightOfWay="edgePriority"/>
    <junction id="21" type="dead_end" x="498.63" y="-350.64" incLanes="" intLanes="" shape="497.30,-349.51 499.96,-351.78" rightOfWay="edgePriority"/>
    <junction id="22" type="priority" x="516.51" y="-330.17" incLanes="47974_0" intLanes=":22_0_0" shape="516.38,-327.89 518.78,-330.44 516.73,-332.46 514.25,-329.99" rightOfWay="edgePriority">
        <request index="0" response="0" foes="0" cont="0"/>
    </junction>
    <junction id="23" type="dead_end" x="636.34" y="-359.13" incLanes="" intLanes="" shape="635.09,-360.36 637.59,-357.91" rightOfWay="edgePriority"/>
    <junction id="24" type="dead_end" x="574.15" y="-177.77" incLanes="" intLanes="" shape="575.88,-177.49 572.42,-178.04" rightOfWay="edgePriority"/>
    <junction id="25" type="priority" x="523.91" y="-323.63" incLanes="47828_0" intLanes=":25_0_0 :25_0_1" shape="526.04,-319.89 528.22,-322.88 525.77,-324.35 524.97,-324.95 524.20,-325.60 523.28,-326.41 522.04,-327.47 519.79,-324.79" rightOfWay="edgePriority">
        <request index="0" response="00" foes="00" cont="0"/>
        <request index="1" response="00" foes="00" cont="0"/>
    </junction>
    <junction id="27" type="priority" x="576.69" y="-312.09" incLanes="47689_0 47756_0 47756_1" intLanes=":27_0_0 :27_1_0 :27_2_0 :27_3_0" shape="589.88,-314.79 586.47,-320.90 582.48,-318.87 579.37,-317.73 576.65,-317.18 573.83,-316.95 570.41,-316.74 565.90,-316.25 567.38,-305.86 569.79,-306.01 570.64,-305.88 571.25,-305.63 571.63,-305.24 571.77,-304.73 575.26,-304.88 576.85,-306.73 578.88,-308.20 581.73,-310.04 585.39,-312.23">
        <request index="0" response="0000" foes="1000" cont="0"/>
        <request index="1" response="0000" foes="1000" cont="0"/>
        <request index="2" response="0000" foes="0000" cont="0"/>
        <request index="3" response="0011" foes="0011" cont="0"/>
    </junction>
    <junction id="28" type="priority" x="571.17" y="-275.38" incLanes="47826_0 47764_0" intLanes=":28_0_0 :28_1_0" shape="570.94,-247.33 577.89,-248.11 576.36,-279.81 568.60,-276.38 570.19,-270.41 570.81,-265.90 570.82,-262.08 570.59,-258.21 570.50,-253.55">
        <request index="0" response="00" foes="00" cont="0"/>
        <request index="1" response="00" foes="00" cont="0"/>
    </junction>
    <junction id="29" type="priority" x="557.75" y="-309.04" incLanes="47831_0 47758_0 47760_0 47760_1" intLanes=":29_0_0 :29_1_0 :29_2_0 :29_3_0 :29_3_1" shape="560.36,-302.24 563.68,-303.30 563.80,-304.45 564.25,-304.91 564.96,-305.29 565.94,-305.60 567.19,-305.83 565.76,-316.24 561.97,-315.73 559.14,-315.44 556.79,-315.37 554.45,-315.52 551.63,-315.91 547.85,-316.53 546.14,-306.17 550.34,-305.44 553.80,-304.73 556.54,-304.06 558.54,-303.42 559.82,-302.82">
        <request index="0" response="00100" foes="00100" cont="0"/>
        <request index="1" response="11100" foes="11100" cont="0"/>
        <request index="2" response="00000" foes="00011" cont="0"/>
        <request index="3" response="00000" foes="00010" cont="0"/>
        <request index="4" response="00000" foes="00010" cont="0"/>
    </junction>
    <junction id="8" type="priority" x="614.83" y="-341.54" incLanes="47688_0" intLanes=":8_0_0" shape="617.12,-341.42 614.58,-343.82 612.53,-341.69 615.03,-339.24" rightOfWay="edgePriority">
        <request index="0" response="0" foes="0" cont="0"/>
    </junction>

    <connection from="47688" to="47909" fromLane="0" toLane="0" contPos="-4.00" via=":8_0_0" dir="s" state="M"/>
    <connection from="47689" to="47764" fromLane="0" toLane="0" contPos="-4.00" shape="588.99,-316.30 582.62,-312.65 578.67,-310.07 576.18,-308.15 574.67,-306.69 573.78,-305.40 573.60,-304.91 573.53,-304.39" via=":27_0_0" dir="r" state="M"/>
    <connection from="47689" to="47758" fromLane="0" toLane="0" contPos="-4.00" shape="588.99,-316.30 582.13,-312.78 576.97,-310.49 572.63,-308.89 569.17,-307.95 567.13,-307.59" via=":27_1_0" dir="s" state="M"/>
    <connection from="47756" to="47688" fromLane="0" toLane="0" contPos="-4.00" shape="566.25,-314.53 574.41,-315.77 580.49,-317.02 584.46,-318.16 586.86,-319.14 587.32,-319.38" via=":27_2_0" dir="s" state="M"/>
    <connection from="47756" to="47764" fromLane="1" toLane="0" contPos="-4.00" shape="566.68,-311.06 568.55,-311.12 569.77,-310.91 570.90,-310.41 571.86,-309.61 572.56,-308.59 573.04,-307.45 573.43,-305.63 573.53,-304.39" via=":27_3_0" dir="l" state="m"/>
    <connection from="47758" to="48044" fromLane="0" toLane="0" contPos="-4.00" shape="566.86,-307.56 561.78,-307.08 556.64,-306.96 551.50,-307.24 546.43,-307.90" via=":29_2_0" dir="s" state="M"/>
    <connection from="47760" to="47756" fromLane="0" toLane="0" contPos="-4.00" shape="547.53,-314.81 552.08,-314.22 556.69,-313.96 561.31,-314.06 566.00,-314.50" via=":29_3_0" dir="s" state="M"/>
    <connection from="47760" to="47756" fromLane="1" toLane="1" contPos="-4.00" shape="546.98,-311.35 551.82,-310.73 556.70,-310.46 561.58,-310.57 566.44,-311.03" via=":29_3_1" dir="s" state="M"/>
    <connection from="47764" to="47825" fromLane="0" toLane="0" contPos="-4.00" shape="573.55,-304.14 576.11,-248.43 576.15,-247.92" via=":28_1_0" dir="s" state="M"/>
    <connection from="47826" to="47831" fromLane="0" toLane="0" contPos="-4.00" shape="572.68,-247.52 570.66,-262.50 568.63,-274.94 566.60,-285.34 564.51,-294.17 562.44,-301.45 562.29,-301.93" via=":28_0_0" dir="s" state="M"/>
    <connection from="47828" to="47760" fromLane="0" toLane="0" contPos="-4.00" via=":25_0_0" dir="s" state="M"/>
    <connection from="47828" to="47760" fromLane="0" toLane="1" contPos="-4.00" via=":25_0_1" dir="s" state="M"/>
    <connection from="47829" to="47962" fromLane="0" toLane="0" contPos="-4.00" via=":15_0_0" dir="s" state="M"/>
    <connection from="47831" to="48044" fromLane="0" toLane="0" contPos="-4.00" shape="562.21,-302.17 561.99,-302.64 561.28,-303.41 559.97,-304.26 557.58,-305.28 554.07,-306.33 548.46,-307.54 546.43,-307.90" via=":29_0_0" dir="r" state="m"/>
    <connection from="47831" to="47756" fromLane="0" toLane="0" contPos="-4.00" shape="562.21,-302.17 561.43,-305.09 561.07,-307.49 561.05,-309.31 561.23,-310.50 561.62,-311.65 562.26,-312.67 563.15,-313.49 564.22,-314.06 565.38,-314.40 566.00,-314.50" via=":29_1_0" dir="l" state="m"/>
    <connection from="47974" to="47828" fromLane="0" toLane="0" contPos="-4.00" via=":22_0_0" dir="s" state="M"/>
    <connection from="48001" to="47689" fromLane="0" toLane="0" contPos="-4.00" via=":19_0_0" dir="s" state="M"/>
    <connection from="48044" to="47829" fromLane="0" toLane="0" contPos="-4.00" via=":14_0_0" dir="s" state="M"/>

    <connection from=":14_0" to="47829" fromLane="0" toLane="0" dir="s" state="M"/>
    <connection from=":15_0" to="47962" fromLane="0" toLane="0" dir="s" state="M"/>
    <connection from=":19_0" to="47689" fromLane="0" toLane="0" dir="s" state="M"/>
    <connection from=":22_0" to="47828" fromLane="0" toLane="0" dir="s" state="M"/>
    <connection from=":25_0" to="47760" fromLane="0" toLane="0" dir="s" state="M"/>
    <connection from=":25_0" to="47760" fromLane="1" toLane="1" dir="s" state="M"/>
    <connection from=":27_0" to="47764" fromLane="0" toLane="0" dir="r" state="M"/>
    <connection from=":27_1" to="47758" fromLane="0" toLane="0" dir="s" state="M"/>
    <connection from=":27_2" to="47688" fromLane="0" toLane="0" dir="s" state="M"/>
    <connection from=":27_3" to="47764" fromLane="0" toLane="0" dir="l" state="M"/>
    <connection from=":28_0" to="47831" fromLane="0" toLane="0" dir="s" state="M"/>
    <connection from=":28_1" to="47825" fromLane="0" toLane="0" dir="s" state="M"/>
    <connection from=":29_0" to="48044" fromLane="0" toLane="0" dir="r" state="M"/>
    <connection from=":29_1" to="47756" fromLane="0" toLane="0" dir="l" state="M"/>
    <connection from=":29_2" to="48044" fromLane="0" toLane="0" dir="s" state="M"/>
    <connection from=":29_3" to="47756" fromLane="0" toLane="0" dir="s" state="M"/>
    <connection from=":29_3" to="47756" fromLane="1" toLane="1" dir="s" state="M"/>
    <connection from=":8_0" to="47909" fromLane="0" toLane="0" dir="s" state="M"/>

</net>