<routes>
	<vehicle depart="0.1" departLane="0" departPos="41.862325212859545" departSpeed="3.212771e-05" id="30" type="passenger">
		<route edges=":28_0 47831"/>
	</vehicle>
	<vehicle depart="0.1" departLane="0" departPos="34.36151143105456" departSpeed="0.00037370327" id="31" type="passenger">
		<route edges=":28_0 47831"/>
	</vehicle>
	<vehicle depart="0.1" departLane="0" departPos="26.858325104749344" departSpeed="0.002685805" id="34" type="passenger">
		<route edges=":28_0 47831"/>
	</vehicle>
	<vehicle depart="0.1" departLane="0" departPos="19.34542617134192" departSpeed="0.013218899" id="35" type="passenger">
		<route edges=":28_0 47831"/>
	</vehicle>
	<vehicle depart="0.1" departLane="0" departPos="56.866197021887004" departSpeed="0.0" id="37" type="passenger">
		<route edges=":28_0 47831"/>
	</vehicle>
	<vehicle depart="0.1" departLane="0" departPos="49.36197537347849" departSpeed="0.0" id="38" type="passenger">
		<route edges=":28_0 47831"/>
	</vehicle>
	<vehicle depart="0.1" departLane="0" departPos="11.79669047055166" departSpeed="0.051550904" id="313" type="passenger">
		<route edges=":28_0 47831"/>
	</vehicle>
	<vehicle depart="0.1" departLane="0" departPos="2.5" departSpeed="8.0636934" id="323" type="passenger">
		<route edges=":27_0 47764 47825"/>
	</vehicle>
	<vehicle depart="0.1" departLane="0" departPos="11.519414951819925" departSpeed="16.52164" id="328" type="passenger">
		<route edges=":27_2 47688 47909"/>
	</vehicle>
	<vehicle depart="0.1" departLane="1" departPos="2.5" departSpeed="12.208537" id="331" type="passenger">
		<route edges=":29_3 47756 47764"/>
	</vehicle>
</routes>
