<routes>
	<vehicle depart="0.1" departLane="0" departPos="22.31703902461005" departSpeed="2.0015753" id="321" type="bicycle">
		<route edges="21532 21529"/>
	</vehicle>
	<vehicle depart="0.1" departLane="0" departPos="2.5" departSpeed="9.9964691" id="311" type="passenger">
		<route edges="21533 21536"/>
	</vehicle>
	<vehicle depart="0.1" departLane="0" departPos="13.161085250216608" departSpeed="10.636769" id="312" type="passenger">
		<route edges=":41_6 21529"/>
	</vehicle>
	<vehicle depart="0.1" departLane="0" departPos="30.320100232459396" departSpeed="0.0" id="313" type="passenger">
		<route edges="21532 21529"/>
	</vehicle>
	<vehicle depart="0.1" departLane="0" departPos="21.49389585672181" departSpeed="8.2733603" id="315" type="passenger">
		<route edges=":41_8 21533 21634"/>
	</vehicle>
	<vehicle depart="0.1" departLane="0" departPos="34.57389335893394" departSpeed="0.31658045" id="317" type="passenger">
		<route edges="21530 21559"/>
	</vehicle>
	<vehicle depart="0.1" departLane="0" departPos="17.355538083027135" departSpeed="4.545401" id="319" type="passenger">
		<route edges="21560 21533"/>
	</vehicle>
	<vehicle depart="0.1" departLane="0" departPos="29.082699064370146" departSpeed="5.3234382" id="328" type="passenger">
		<route edges="22902 21560 21533"/>
	</vehicle>
	<vehicle depart="0.1" departLane="0" departPos="21.25983304294312" departSpeed="1.8177793" id="327" type="motorcycle">
		<route edges="21532 21529"/>
	</vehicle>
	<vehicle depart="0.1" departLane="0" departPos="17.559330441421523" departSpeed="6.0312421" id="324" type="truck">
		<route edges=":41_9 21559 22345"/>
	</vehicle>
</routes>
