<routes>
	<vehicle depart="0.1" departLane="1" departPos="29.888455084770797" departSpeed="6.4564154" id="332" type="bicycle">
		<route edges=":8_1 125160"/>
	</vehicle>
	<vehicle depart="0.1" departLane="0" departPos="14.453383640271245" departSpeed="9.1156122" id="339" type="passenger">
		<route edges="125160"/>
	</vehicle>
	<vehicle depart="0.1" departLane="0" departPos="34.02206637648458" departSpeed="7.7284989" id="340" type="passenger">
		<route edges=":8_1 125160"/>
	</vehicle>
	<vehicle depart="0.1" departLane="1" departPos="66.76221683991137" departSpeed="19.824031" id="346" type="passenger">
		<route edges="125185 125160"/>
	</vehicle>
	<vehicle depart="0.1" departLane="2" departPos="53.46551732599162" departSpeed="30.05893" id="350" type="passenger">
		<route edges="125185 125160"/>
	</vehicle>
	<vehicle depart="0.1" departLane="2" departPos="39.99623252125671" departSpeed="26.637954" id="351" type="passenger">
		<route edges="125185 125160"/>
	</vehicle>
	<vehicle depart="0.1" departLane="1" departPos="45.929415472490106" departSpeed="18.937864" id="348" type="motorcycle">
		<route edges="125185 125160"/>
	</vehicle>
</routes>
