<!-- generated on Tue Feb  9 22:14:28 2021 by Eclipse SUMO netconvert Version 1.8.0
<configuration xmlns:xsi="http://www.w3.org/2001/XMLSchema-instance" xsi:noNamespaceSchemaLocation="http://sumo.dlr.de/xsd/netconvertConfiguration.xsd">

    <input>
        <node-files value="./converted_scenarios/scenario-factory/ESP_SantBoideLlobregat-22_2_I-1-1/ESP_SantBoideLlobregat-22_2_I-1-1.nod.xml"/>
        <edge-files value="./converted_scenarios/scenario-factory/ESP_SantBoideLlobregat-22_2_I-1-1/ESP_SantBoideLlobregat-22_2_I-1-1.edg.xml"/>
        <connection-files value="./converted_scenarios/scenario-factory/ESP_SantBoideLlobregat-22_2_I-1-1/ESP_SantBoideLlobregat-22_2_I-1-1.con.xml"/>
        <tllogic-files value="./converted_scenarios/scenario-factory/ESP_SantBoideLlobregat-22_2_I-1-1/ESP_SantBoideLlobregat-22_2_I-1-1.tll.xml"/>
        <type-files value="/home/zen/commonroad-interactive-benchmarks/install/commonroad-map-tool/crmapconverter/sumo_map/templates/DEU.typ.xml"/>
    </input>

    <output>
        <output-file value="./converted_scenarios/scenario-factory/ESP_SantBoideLlobregat-22_2_I-1-1/ESP_SantBoideLlobregat-22_2_I-1-1.net.xml"/>
    </output>

    <processing>
        <geometry.remove.keep-edges.explicit value="true"/>
        <geometry.avoid-overlap value="true"/>
        <offset.disable-normalization value="true"/>
    </processing>

    <junctions>
        <no-turnarounds value="true"/>
        <junctions.internal-link-detail value="20"/>
    </junctions>

    <report>
        <aggregate-warnings value="5"/>
    </report>

    <random_number>
        <seed value="1234"/>
    </random_number>

</configuration>
--><net xmlns:xsi="http://www.w3.org/2001/XMLSchema-instance" version="1.6" junctionCornerDetail="5" junctionLinkDetail="20" limitTurnSpeed="5.50" xsi:noNamespaceSchemaLocation="http://sumo.dlr.de/xsd/net_file.xsd">

    <location netOffset="0.00,0.00" convBoundary="786.01,148.21,954.66,262.96" origBoundary="785.00,144.85,955.62,262.96" projParameter="!"/>

    <type id="highway.bridleway" priority="1" speed="2.78" allow="pedestrian" oneway="1" width="2.00"/>
    <type id="highway.bus_guideway" priority="1" speed="27.78" allow="bus" oneway="1"/>
    <type id="highway.cycleway" priority="1" speed="8.33" allow="bicycle" oneway="0" width="1.00"/>
    <type id="highway.footway" priority="1" speed="2.78" allow="pedestrian" oneway="1" width="2.00"/>
    <type id="highway.ford" priority="1" speed="2.78" allow="army" oneway="0"/>
    <type id="highway.living_street" priority="2" speed="2.78" disallow="tram rail_urban rail rail_electric rail_fast ship" oneway="0"/>
    <type id="highway.motorway" priority="14" speed="39.44" allow="private emergency authority army vip passenger hov taxi bus coach delivery truck trailer motorcycle evehicle custom1 custom2" oneway="1"/>
    <type id="highway.motorway_link" priority="9" speed="22.22" allow="private emergency authority army vip passenger hov taxi bus coach delivery truck trailer motorcycle evehicle custom1 custom2" oneway="1"/>
    <type id="highway.path" priority="1" speed="2.78" allow="pedestrian bicycle" oneway="0" width="2.00"/>
    <type id="highway.pedestrian" priority="1" speed="2.78" allow="pedestrian" oneway="1" width="2.00"/>
    <type id="highway.primary" priority="12" speed="27.78" disallow="pedestrian tram rail_urban rail rail_electric rail_fast ship" oneway="0"/>
    <type id="highway.primary_link" priority="7" speed="22.22" disallow="pedestrian tram rail_urban rail rail_electric rail_fast ship" oneway="0"/>
    <type id="highway.raceway" priority="15" speed="83.33" allow="vip" oneway="0"/>
    <type id="highway.residential" priority="3" speed="13.89" disallow="pedestrian tram rail_urban rail rail_electric rail_fast ship" oneway="0"/>
    <type id="highway.secondary" priority="11" speed="27.78" disallow="pedestrian tram rail_urban rail rail_electric rail_fast ship" oneway="0"/>
    <type id="highway.secondary_link" priority="6" speed="22.22" disallow="pedestrian tram rail_urban rail rail_electric rail_fast ship" oneway="0"/>
    <type id="highway.service" priority="1" speed="5.56" allow="pedestrian delivery bicycle" oneway="0"/>
    <type id="highway.stairs" priority="1" speed="1.39" allow="pedestrian" oneway="1" width="2.00"/>
    <type id="highway.step" priority="1" speed="1.39" allow="pedestrian" oneway="1" width="2.00"/>
    <type id="highway.steps" priority="1" speed="1.39" allow="pedestrian" oneway="1" width="2.00"/>
    <type id="highway.tertiary" priority="10" speed="22.22" disallow="pedestrian tram rail_urban rail rail_electric rail_fast ship" oneway="0"/>
    <type id="highway.tertiary_link" priority="5" speed="22.22" disallow="pedestrian tram rail_urban rail rail_electric rail_fast ship" oneway="0"/>
    <type id="highway.track" priority="1" speed="5.56" allow="pedestrian motorcycle moped bicycle" oneway="0"/>
    <type id="highway.trunk" priority="13" speed="27.78" disallow="pedestrian bicycle tram rail_urban rail rail_electric rail_fast ship" oneway="0"/>
    <type id="highway.trunk_link" priority="8" speed="22.22" disallow="pedestrian bicycle tram rail_urban rail rail_electric rail_fast ship" oneway="0"/>
    <type id="highway.unclassified" priority="4" speed="13.89" disallow="pedestrian tram rail_urban rail rail_electric rail_fast ship" oneway="0"/>
    <type id="highway.unsurfaced" priority="1" speed="8.33" disallow="tram rail_urban rail rail_electric rail_fast ship" oneway="0"/>
    <type id="railway.highspeed" priority="21" speed="69.44" allow="rail_fast" oneway="1"/>
    <type id="railway.light_rail" priority="19" speed="27.78" allow="rail_urban" oneway="1"/>
    <type id="railway.preserved" priority="16" speed="27.78" allow="rail" oneway="1"/>
    <type id="railway.rail" priority="20" speed="44.44" allow="rail" oneway="1"/>
    <type id="railway.subway" priority="18" speed="27.78" allow="rail_urban" oneway="1"/>
    <type id="railway.tram" priority="17" speed="13.89" allow="tram" oneway="1"/>

    <edge id=":6_0" function="internal">
        <lane id=":6_0_0" index="0" disallow="pedestrian tram rail_urban rail rail_electric rail_fast ship" speed="36.11" length="3.83" width="3.50" shape="893.58,202.04 893.46,201.78 893.35,201.54 893.26,201.33 893.17,201.14 893.08,200.97 893.00,200.81 892.93,200.66 892.86,200.52 892.79,200.38 892.71,200.25 892.64,200.12 892.56,199.98 892.47,199.84 892.38,199.69 892.28,199.52 892.17,199.34 892.05,199.14 891.91,198.92 891.76,198.68"/>
    </edge>
    <edge id=":8_0" function="internal">
        <lane id=":8_0_0" index="0" disallow="pedestrian tram rail_urban rail rail_electric rail_fast ship" speed="30.10" length="15.73" width="3.50" shape="877.55,184.68 876.59,184.01 872.24,181.39 867.29,178.83 863.71,177.27"/>
    </edge>
    <edge id=":8_1" function="internal">
        <lane id=":8_1_0" index="0" disallow="pedestrian tram rail_urban rail rail_electric rail_fast ship" speed="36.11" length="16.13" width="3.50" shape="879.43,180.97 863.93,176.52"/>
        <lane id=":8_1_1" index="1" disallow="pedestrian tram rail_urban rail rail_electric rail_fast ship" speed="36.11" length="16.06" width="3.50" shape="880.38,177.60 864.94,173.17"/>
        <lane id=":8_1_2" index="2" disallow="pedestrian tram rail_urban rail rail_electric rail_fast ship" speed="36.11" length="16.00" width="3.50" shape="881.33,174.23 865.95,169.81"/>
    </edge>

    <edge id="125160" from="8" to="4" priority="3" type="highway.residential" spreadType="center" length="82.53">
        <lane id="125160_0" index="0" disallow="pedestrian tram rail_urban rail rail_electric rail_fast ship" speed="36.11" length="83.08" width="3.50" customShape="1" shape="863.92,176.56 816.79,162.41 801.36,157.43 787.96,152.72 784.74,151.47"/>
        <lane id="125160_1" index="1" disallow="pedestrian tram rail_urban rail rail_electric rail_fast ship" speed="36.11" length="82.80" width="3.50" customShape="1" shape="864.93,173.21 817.98,159.11 802.64,154.17 789.31,149.49 786.01,148.21"/>
        <lane id="125160_2" index="2" disallow="pedestrian tram rail_urban rail rail_electric rail_fast ship" speed="36.11" length="82.53" width="3.50" customShape="1" shape="865.94,169.86 819.12,155.80 803.85,150.88 790.61,146.24 787.28,144.95"/>
    </edge>
    <edge id="125185" from="3" to="8" priority="3" type="highway.residential" spreadType="center" length="77.23">
        <lane id="125185_0" index="0" disallow="pedestrian tram rail_urban rail rail_electric rail_fast ship" speed="36.11" length="77.23" width="3.50" customShape="1" shape="953.70,202.12 921.82,193.05 879.42,180.99"/>
        <lane id="125185_1" index="1" disallow="pedestrian tram rail_urban rail rail_electric rail_fast ship" speed="36.11" length="77.24" width="3.50" customShape="1" shape="954.66,198.75 922.77,189.68 880.37,177.62"/>
        <lane id="125185_2" index="2" disallow="pedestrian tram rail_urban rail rail_electric rail_fast ship" speed="36.11" length="77.24" width="3.50" customShape="1" shape="955.62,195.39 923.72,186.31 881.33,174.26"/>
    </edge>
    <edge id="126097" from="7" to="6" priority="3" type="highway.residential" spreadType="center" length="68.09">
        <lane id="126097_0" index="0" disallow="pedestrian tram rail_urban rail rail_electric rail_fast ship" speed="36.11" length="68.09" width="3.50" customShape="1" shape="878.27,262.96 879.75,261.81 883.20,258.75 886.05,255.80 888.62,252.61 891.25,248.83 893.04,245.72 894.54,242.46 895.90,238.60 897.26,233.66 898.03,229.64 898.41,226.07 898.44,222.49 898.06,217.89 897.47,214.36 895.80,207.91 894.48,204.03 893.58,202.04"/>
    </edge>
    <edge id="126099" from="6" to="8" priority="3" type="highway.residential" spreadType="center" length="20.11">
        <lane id="126099_0" index="0" disallow="pedestrian tram rail_urban rail rail_electric rail_fast ship" speed="36.11" length="20.11" width="3.50" customShape="1" shape="891.76,198.68 890.84,197.17 888.61,194.25 886.11,191.55 883.00,188.72 880.94,187.08 880.84,187.00 877.64,184.57"/>
    </edge>

    <junction id="3" type="dead_end" x="954.66" y="198.75" incLanes="" intLanes="" shape="956.09,193.70 953.22,203.80" rightOfWay="edgePriority"/>
    <junction id="4" type="dead_end" x="786.01" y="148.21" incLanes="125160_0 125160_1 125160_2" intLanes="" shape="784.11,153.10 787.91,143.32" rightOfWay="edgePriority"/>
    <junction id="6" type="priority" x="892.76" y="200.31" incLanes="126097_0" intLanes=":6_0_0" shape="893.26,197.77 890.27,199.59 890.99,200.77 891.23,201.18 891.45,201.61 891.70,202.14 892.03,202.86 895.13,201.22 894.51,199.90 894.27,199.45 894.02,199.01 893.69,198.48" rightOfWay="edgePriority">
        <request index="0" response="0" foes="0" cont="0"/>
    </junction>
    <junction id="7" type="dead_end" x="878.27" y="262.96" incLanes="" intLanes="" shape="879.33,264.34 877.20,261.57" rightOfWay="edgePriority"/>
    <junction id="8" type="priority" x="874.76" y="179.02" incLanes="126099_0 125185_0 125185_1 125185_2" intLanes=":8_0_0 :8_1_0 :8_1_1 :8_1_2" shape="876.58,185.96 878.69,183.17 878.94,182.68 881.80,172.57 866.44,168.18 863.42,178.24 866.51,179.25 868.73,180.19 870.46,181.19 872.09,182.39 874.00,183.94">
        <request index="0" response="1110" foes="1110" cont="0"/>
        <request index="1" response="0000" foes="0001" cont="0"/>
        <request index="2" response="0000" foes="0001" cont="0"/>
        <request index="3" response="0000" foes="0001" cont="0"/>
    </junction>

    <connection from="125185" to="125160" fromLane="0" toLane="0" contPos="-4.00" shape="889.93,183.98 862.26,176.04 851.66,172.88" via=":8_1_0" dir="s" state="M"/>
    <connection from="125185" to="125160" fromLane="1" toLane="1" contPos="-4.00" shape="890.88,180.61 863.26,172.68 852.67,169.53" via=":8_1_1" dir="s" state="M"/>
    <connection from="125185" to="125160" fromLane="2" toLane="2" contPos="-4.00" shape="891.84,177.25 864.26,169.33 853.67,166.17" via=":8_1_2" dir="s" state="M"/>
    <connection from="126097" to="126099" fromLane="0" toLane="0" contPos="-4.00" via=":6_0_0" dir="r" state="M"/>
    <connection from="126099" to="125160" fromLane="0" toLane="0" contPos="-4.00" shape="880.74,186.92 876.59,184.01 872.24,181.39 867.29,178.83 861.71,176.39 855.52,174.11 851.66,172.88" via=":8_0_0" dir="s" state="m"/>

    <connection from=":6_0" to="126099" fromLane="0" toLane="0" dir="r" state="M"/>
    <connection from=":8_0" to="125160" fromLane="0" toLane="0" dir="s" state="M"/>
    <connection from=":8_1" to="125160" fromLane="0" toLane="0" dir="s" state="M"/>
    <connection from=":8_1" to="125160" fromLane="1" toLane="1" dir="s" state="M"/>
    <connection from=":8_1" to="125160" fromLane="2" toLane="2" dir="s" state="M"/>

</net>