<routes>
	<vehicle depart="0.1" departLane="0" departPos="26.263689957770904" departSpeed="9.9268529" id="34" type="passenger">
		<route edges=":47_2 34745 34748"/>
	</vehicle>
	<vehicle depart="0.1" departLane="0" departPos="29.993228371283692" departSpeed="1.6869218" id="314" type="passenger">
		<route edges=":49_3 34744 34914"/>
	</vehicle>
	<vehicle depart="0.1" departLane="0" departPos="62.54331079157846" departSpeed="0.54847301" id="330" type="passenger">
		<route edges="34873 34744"/>
	</vehicle>
	<vehicle depart="0.1" departLane="0" departPos="52.150665784385765" departSpeed="0.37054195" id="332" type="passenger">
		<route edges="34873 34744"/>
	</vehicle>
	<vehicle depart="0.1" departLane="0" departPos="44.6094315625154" departSpeed="0.36214433" id="340" type="passenger">
		<route edges="34873 34744"/>
	</vehicle>
	<vehicle depart="0.1" departLane="0" departPos="34.05575720440805" departSpeed="0.63302096" id="343" type="passenger">
		<route edges="34873 34744"/>
	</vehicle>
	<vehicle depart="0.1" departLane="0" departPos="26.808747510362775" departSpeed="1.2943933" id="348" type="passenger">
		<route edges="34873 34744"/>
	</vehicle>
	<vehicle depart="0.1" departLane="0" departPos="16.67049223742496" departSpeed="1.0484218" id="355" type="passenger">
		<route edges="34873 34744"/>
	</vehicle>
	<vehicle depart="0.1" departLane="0" departPos="23.37957344537579" departSpeed="2.3714514" id="361" type="passenger">
		<route edges=":49_0 34744"/>
	</vehicle>
	<vehicle depart="0.1" departLane="0" departPos="2.5" departSpeed="0.57413614" id="366" type="passenger">
		<route edges="34747 34744"/>
	</vehicle>
</routes>
