<routes>
	<vehicle depart="0.1" departLane="0" departPos="18.696396019713386" departSpeed="0.13525842" id="327" type="bicycle">
		<route edges="8282 8285"/>
	</vehicle>
	<vehicle depart="0.1" departLane="0" departPos="22.830004280906216" departSpeed="0.34806293" id="325" type="bus">
		<route edges=":198_0 8285"/>
	</vehicle>
	<vehicle depart="0.1" departLane="0" departPos="18.39288378669029" departSpeed="1.5552547" id="318" type="passenger">
		<route edges=":198_3 8285 8360"/>
	</vehicle>
	<vehicle depart="0.1" departLane="0" departPos="44.326232384515215" departSpeed="0.11100234" id="319" type="passenger">
		<route edges="8369 8285"/>
	</vehicle>
	<vehicle depart="0.1" departLane="0" departPos="6.114225611023309" departSpeed="1.5195276" id="322" type="passenger">
		<route edges=":197_5 8360"/>
	</vehicle>
	<vehicle depart="0.1" departLane="0" departPos="2.5" departSpeed="0.68267697" id="348" type="passenger">
		<route edges="8282 8285"/>
	</vehicle>
	<vehicle depart="0.1" departLane="0" departPos="6.100267572020993" departSpeed="2.6005015" id="328" type="motorcycle">
		<route edges="8282 8285"/>
	</vehicle>
</routes>
