<!-- generated on Tue Feb  9 22:20:34 2021 by Eclipse SUMO netconvert Version 1.8.0
<configuration xmlns:xsi="http://www.w3.org/2001/XMLSchema-instance" xsi:noNamespaceSchemaLocation="http://sumo.dlr.de/xsd/netconvertConfiguration.xsd">

    <input>
        <node-files value="./converted_scenarios/scenario-factory/BEL_Zwevegem-1_2_I-1-1/BEL_Zwevegem-1_2_I-1-1.nod.xml"/>
        <edge-files value="./converted_scenarios/scenario-factory/BEL_Zwevegem-1_2_I-1-1/BEL_Zwevegem-1_2_I-1-1.edg.xml"/>
        <connection-files value="./converted_scenarios/scenario-factory/BEL_Zwevegem-1_2_I-1-1/BEL_Zwevegem-1_2_I-1-1.con.xml"/>
        <tllogic-files value="./converted_scenarios/scenario-factory/BEL_Zwevegem-1_2_I-1-1/BEL_Zwevegem-1_2_I-1-1.tll.xml"/>
        <type-files value="/home/zen/commonroad-interactive-benchmarks/install/commonroad-map-tool/crmapconverter/sumo_map/templates/DEU.typ.xml"/>
    </input>

    <output>
        <output-file value="./converted_scenarios/scenario-factory/BEL_Zwevegem-1_2_I-1-1/BEL_Zwevegem-1_2_I-1-1.net.xml"/>
    </output>

    <processing>
        <geometry.remove.keep-edges.explicit value="true"/>
        <geometry.avoid-overlap value="true"/>
        <offset.disable-normalization value="true"/>
    </processing>

    <junctions>
        <no-turnarounds value="true"/>
        <junctions.internal-link-detail value="20"/>
    </junctions>

    <report>
        <aggregate-warnings value="5"/>
    </report>

    <random_number>
        <seed value="1234"/>
    </random_number>

</configuration>
--><net xmlns:xsi="http://www.w3.org/2001/XMLSchema-instance" version="1.6" junctionCornerDetail="5" junctionLinkDetail="20" limitTurnSpeed="5.50" xsi:noNamespaceSchemaLocation="http://sumo.dlr.de/xsd/net_file.xsd">

    <location netOffset="0.00,0.00" convBoundary="-179.98,905.61,-38.06,1049.15" origBoundary="-179.98,905.61,-38.06,1049.15" projParameter="!"/>

    <type id="highway.bridleway" priority="1" speed="2.78" allow="pedestrian" oneway="1" width="2.00"/>
    <type id="highway.bus_guideway" priority="1" speed="27.78" allow="bus" oneway="1"/>
    <type id="highway.cycleway" priority="1" speed="8.33" allow="bicycle" oneway="0" width="1.00"/>
    <type id="highway.footway" priority="1" speed="2.78" allow="pedestrian" oneway="1" width="2.00"/>
    <type id="highway.ford" priority="1" speed="2.78" allow="army" oneway="0"/>
    <type id="highway.living_street" priority="2" speed="2.78" disallow="tram rail_urban rail rail_electric rail_fast ship" oneway="0"/>
    <type id="highway.motorway" priority="14" speed="39.44" allow="private emergency authority army vip passenger hov taxi bus coach delivery truck trailer motorcycle evehicle custom1 custom2" oneway="1"/>
    <type id="highway.motorway_link" priority="9" speed="22.22" allow="private emergency authority army vip passenger hov taxi bus coach delivery truck trailer motorcycle evehicle custom1 custom2" oneway="1"/>
    <type id="highway.path" priority="1" speed="2.78" allow="pedestrian bicycle" oneway="0" width="2.00"/>
    <type id="highway.pedestrian" priority="1" speed="2.78" allow="pedestrian" oneway="1" width="2.00"/>
    <type id="highway.primary" priority="12" speed="27.78" disallow="pedestrian tram rail_urban rail rail_electric rail_fast ship" oneway="0"/>
    <type id="highway.primary_link" priority="7" speed="22.22" disallow="pedestrian tram rail_urban rail rail_electric rail_fast ship" oneway="0"/>
    <type id="highway.raceway" priority="15" speed="83.33" allow="vip" oneway="0"/>
    <type id="highway.residential" priority="3" speed="13.89" disallow="pedestrian tram rail_urban rail rail_electric rail_fast ship" oneway="0"/>
    <type id="highway.secondary" priority="11" speed="27.78" disallow="pedestrian tram rail_urban rail rail_electric rail_fast ship" oneway="0"/>
    <type id="highway.secondary_link" priority="6" speed="22.22" disallow="pedestrian tram rail_urban rail rail_electric rail_fast ship" oneway="0"/>
    <type id="highway.service" priority="1" speed="5.56" allow="pedestrian delivery bicycle" oneway="0"/>
    <type id="highway.stairs" priority="1" speed="1.39" allow="pedestrian" oneway="1" width="2.00"/>
    <type id="highway.step" priority="1" speed="1.39" allow="pedestrian" oneway="1" width="2.00"/>
    <type id="highway.steps" priority="1" speed="1.39" allow="pedestrian" oneway="1" width="2.00"/>
    <type id="highway.tertiary" priority="10" speed="22.22" disallow="pedestrian tram rail_urban rail rail_electric rail_fast ship" oneway="0"/>
    <type id="highway.tertiary_link" priority="5" speed="22.22" disallow="pedestrian tram rail_urban rail rail_electric rail_fast ship" oneway="0"/>
    <type id="highway.track" priority="1" speed="5.56" allow="pedestrian motorcycle moped bicycle" oneway="0"/>
    <type id="highway.trunk" priority="13" speed="27.78" disallow="pedestrian bicycle tram rail_urban rail rail_electric rail_fast ship" oneway="0"/>
    <type id="highway.trunk_link" priority="8" speed="22.22" disallow="pedestrian bicycle tram rail_urban rail rail_electric rail_fast ship" oneway="0"/>
    <type id="highway.unclassified" priority="4" speed="13.89" disallow="pedestrian tram rail_urban rail rail_electric rail_fast ship" oneway="0"/>
    <type id="highway.unsurfaced" priority="1" speed="8.33" disallow="tram rail_urban rail rail_electric rail_fast ship" oneway="0"/>
    <type id="railway.highspeed" priority="21" speed="69.44" allow="rail_fast" oneway="1"/>
    <type id="railway.light_rail" priority="19" speed="27.78" allow="rail_urban" oneway="1"/>
    <type id="railway.preserved" priority="16" speed="27.78" allow="rail" oneway="1"/>
    <type id="railway.rail" priority="20" speed="44.44" allow="rail" oneway="1"/>
    <type id="railway.subway" priority="18" speed="27.78" allow="rail_urban" oneway="1"/>
    <type id="railway.tram" priority="17" speed="13.89" allow="tram" oneway="1"/>

    <edge id=":15_0" function="internal">
        <lane id=":15_0_0" index="0" disallow="pedestrian tram rail_urban rail rail_electric rail_fast ship" speed="11.88" length="28.97" width="3.50" shape="-103.43,983.84 -104.43,983.42 -106.50,982.68 -108.59,982.16 -110.69,981.88 -112.79,981.87 -114.85,982.15 -116.84,982.74 -118.73,983.62 -120.51,984.76 -122.15,986.12 -123.66,987.66 -125.73,990.25 -127.54,993.08"/>
    </edge>
    <edge id=":15_1" function="internal">
        <lane id=":15_1_0" index="0" disallow="pedestrian tram rail_urban rail rail_electric rail_fast ship" speed="36.11" length="39.08" width="3.50" shape="-103.43,983.84 -109.07,981.34 -139.25,968.22"/>
    </edge>
    <edge id=":15_2" function="internal">
        <lane id=":15_2_0" index="0" disallow="pedestrian tram rail_urban rail rail_electric rail_fast ship" speed="9.03" length="19.94" width="3.50" shape="-103.43,983.84 -106.08,982.51 -108.58,980.91 -110.39,979.38 -111.97,977.61 -112.95,976.13 -113.71,974.52 -114.22,972.82 -114.49,971.06 -114.49,968.91"/>
    </edge>
    <edge id=":15_3" function="internal">
        <lane id=":15_3_0" index="0" disallow="pedestrian tram rail_urban rail rail_electric rail_fast ship" speed="9.83" length="19.55" width="3.50" shape="-137.89,965.00 -134.16,966.40 -130.86,967.27 -128.06,967.70 -125.22,967.77 -122.97,967.52 -120.77,966.97 -118.97,966.23"/>
    </edge>
    <edge id=":15_4" function="internal">
        <lane id=":15_4_0" index="0" disallow="pedestrian tram rail_urban rail rail_electric rail_fast ship" speed="36.11" length="39.14" width="3.50" shape="-137.89,965.00 -107.66,978.14 -102.01,980.64"/>
    </edge>
    <edge id=":15_5" function="internal">
        <lane id=":15_5_0" index="0" disallow="pedestrian tram rail_urban rail rail_electric rail_fast ship" speed="11.71" length="35.27" width="3.50" shape="-137.89,965.00 -134.38,966.70 -132.11,968.05 -129.96,969.64 -128.00,971.47 -127.08,972.53 -126.27,973.66 -125.55,974.87 -124.94,976.15 -124.47,977.49 -124.14,978.87 -123.95,980.27 -123.90,981.67 -123.98,983.10 -124.44,985.76 -125.24,988.32 -126.29,990.75 -127.54,993.08"/>
    </edge>
    <edge id=":15_6" function="internal">
        <lane id=":15_6_0" index="0" disallow="pedestrian tram rail_urban rail rail_electric rail_fast ship" speed="10.69" length="29.17" width="3.50" shape="-130.55,991.30 -129.49,989.32 -128.60,987.26 -127.94,985.12 -127.56,982.91 -127.51,981.79 -127.56,980.66 -127.72,979.55 -127.99,978.46 -128.37,977.41 -128.85,976.40 -129.43,975.44 -130.10,974.53 -130.84,973.69 -132.48,972.16 -134.29,970.84 -136.22,969.69 -139.25,968.22"/>
    </edge>
    <edge id=":15_7" function="internal">
        <lane id=":15_7_0" index="0" disallow="pedestrian tram rail_urban rail rail_electric rail_fast ship" speed="36.11" length="27.46" width="3.50" shape="-130.55,991.30 -116.46,967.73"/>
    </edge>
    <edge id=":15_8" function="internal">
        <lane id=":15_8_0" index="0" disallow="pedestrian tram rail_urban rail rail_electric rail_fast ship" speed="12.86" length="34.11" width="3.50" shape="-130.55,991.30 -128.50,988.11 -126.14,985.15 -124.36,983.35 -122.40,981.75 -120.27,980.40 -117.97,979.35 -115.54,978.65 -113.04,978.32 -110.51,978.34 -108.01,978.69 -105.56,979.31 -103.17,980.15 -102.01,980.64"/>
    </edge>

    <edge id="37551" from="15" to="11" priority="3" type="highway.residential" spreadType="center" length="81.14">
        <lane id="37551_0" index="0" disallow="pedestrian tram rail_urban rail rail_electric rail_fast ship" speed="36.11" length="81.14" width="3.50" customShape="1" shape="-116.54,967.68 -107.46,952.52 -104.34,947.95 -100.93,943.59 -96.57,938.72 -89.83,931.95 -82.35,924.49 -68.65,909.75 -64.85,905.61"/>
    </edge>
    <edge id="37605" from="15" to="9" priority="3" type="highway.residential" spreadType="center" length="44.24" shape="-122.35,978.77 -179.98,950.95">
        <lane id="37605_0" index="0" disallow="pedestrian tram rail_urban rail rail_electric rail_fast ship" speed="36.11" length="44.24" width="3.50" customShape="1" shape="-139.25,968.22 -159.61,959.59 -179.98,950.95"/>
    </edge>
    <edge id="37606" from="14" to="15" priority="3" type="highway.residential" spreadType="center" length="44.26" shape="-178.61,947.73 -120.83,975.62">
        <lane id="37606_0" index="0" disallow="pedestrian tram rail_urban rail rail_electric rail_fast ship" speed="36.11" length="44.26" width="3.50" customShape="1" shape="-178.61,947.73 -158.25,956.37 -137.86,965.01"/>
    </edge>
    <edge id="37608" from="13" to="15" priority="3" type="highway.residential" spreadType="center" length="70.00" shape="-39.48,1012.31 -122.33,978.78">
        <lane id="37608_0" index="0" disallow="pedestrian tram rail_urban rail rail_electric rail_fast ship" speed="36.11" length="70.00" width="3.50" customShape="1" shape="-39.48,1012.31 -103.43,983.84"/>
    </edge>
    <edge id="37609" from="15" to="3" priority="3" type="highway.residential" spreadType="center" length="70.00" shape="-121.01,975.54 -38.06,1009.11">
        <lane id="37609_0" index="0" disallow="pedestrian tram rail_urban rail rail_electric rail_fast ship" speed="36.11" length="70.00" width="3.50" customShape="1" shape="-102.01,980.64 -38.06,1009.11"/>
    </edge>
    <edge id="37745" from="12" to="15" priority="3" type="highway.residential" spreadType="center" length="70.08" shape="-172.41,1047.35 -123.05,976.15">
        <lane id="37745_0" index="0" disallow="pedestrian tram rail_urban rail rail_electric rail_fast ship" speed="36.11" length="70.08" width="3.50" customShape="1" shape="-172.41,1047.35 -165.38,1037.93 -146.05,1013.53 -139.43,1004.69 -134.01,996.83 -130.51,991.23"/>
    </edge>
    <edge id="37746" from="15" to="6" priority="3" type="highway.residential" spreadType="center" length="70.00" shape="-120.18,978.14 -169.38,1049.15">
        <lane id="37746_0" index="0" disallow="pedestrian tram rail_urban rail rail_electric rail_fast ship" speed="36.11" length="70.00" width="3.50" customShape="1" shape="-127.54,993.08 -131.04,998.68 -136.50,1006.60 -143.15,1015.50 -162.50,1039.92 -169.38,1049.15"/>
    </edge>

    <junction id="11" type="dead_end" x="-64.85" y="905.61" incLanes="37551_0" intLanes="" shape="-66.14,904.43 -63.56,906.80" rightOfWay="edgePriority"/>
    <junction id="12" type="dead_end" x="-172.41" y="1047.35" incLanes="" intLanes="" shape="-171.01,1048.40 -173.81,1046.31" rightOfWay="edgePriority"/>
    <junction id="13" type="dead_end" x="-39.48" y="1012.31" incLanes="" intLanes="" shape="-38.77,1010.71 -40.19,1013.91" rightOfWay="edgePriority"/>
    <junction id="14" type="dead_end" x="-178.61" y="947.73" incLanes="" intLanes="" shape="-179.29,949.34 -177.93,946.12" rightOfWay="edgePriority"/>
    <junction id="15" type="priority" x="-121.64" y="977.18" incLanes="37608_0 37606_0 37745_0" intLanes=":15_0_0 :15_1_0 :15_2_0 :15_3_0 :15_4_0 :15_5_0 :15_6_0 :15_7_0 :15_8_0" shape="-104.14,985.44 -101.29,979.04 -106.06,976.80 -109.84,974.75 -112.63,972.91 -114.43,971.27 -115.23,969.82 -115.04,968.58 -118.04,966.78 -121.18,968.08 -123.96,967.82 -127.56,966.95 -131.98,965.48 -137.20,963.39 -139.94,969.83 -135.16,972.33 -131.76,975.20 -129.75,978.43 -129.12,982.02 -129.86,985.98 -131.99,990.30 -126.06,994.01 -122.96,989.79 -119.64,986.68 -116.10,984.70 -112.33,983.83 -108.35,984.07">
        <request index="0" response="000000000" foes="000100000" cont="0"/>
        <request index="1" response="000000000" foes="111100000" cont="0"/>
        <request index="2" response="000011000" foes="110011000" cont="0"/>
        <request index="3" response="000000000" foes="010000100" cont="0"/>
        <request index="4" response="000000000" foes="110000100" cont="0"/>
        <request index="5" response="000000011" foes="110000011" cont="0"/>
        <request index="6" response="000000010" foes="000000010" cont="0"/>
        <request index="7" response="000111110" foes="000111110" cont="0"/>
        <request index="8" response="000110110" foes="000110110" cont="0"/>
    </junction>
    <junction id="3" type="dead_end" x="-38.06" y="1009.11" incLanes="37609_0" intLanes="" shape="-37.35,1007.51 -38.77,1010.71" rightOfWay="edgePriority"/>
    <junction id="6" type="dead_end" x="-169.38" y="1049.15" incLanes="37746_0" intLanes="" shape="-167.98,1050.19 -170.79,1048.10" rightOfWay="edgePriority"/>
    <junction id="9" type="dead_end" x="-179.98" y="950.95" incLanes="37605_0" intLanes="" shape="-180.66,952.56 -179.30,949.34" rightOfWay="edgePriority"/>

    <connection from="37606" to="37551" fromLane="0" toLane="0" contPos="-4.00" shape="-137.86,965.01 -134.16,966.40 -130.86,967.27 -128.06,967.70 -125.22,967.77 -122.97,967.52 -120.77,966.97 -118.67,966.10 -116.72,964.93 -114.96,963.50 -113.04,961.42 -111.40,959.10 -110.82,958.13" via=":15_3_0" dir="r" state="M"/>
    <connection from="37606" to="37609" fromLane="0" toLane="0" contPos="-4.00" shape="-137.86,965.01 -107.66,978.14 -102.01,980.64" via=":15_4_0" dir="s" state="M"/>
    <connection from="37606" to="37746" fromLane="0" toLane="0" contPos="-4.00" shape="-137.86,965.01 -134.38,966.70 -132.11,968.05 -129.96,969.64 -128.00,971.47 -127.08,972.53 -126.27,973.66 -125.55,974.87 -124.94,976.15 -124.47,977.49 -124.14,978.87 -123.95,980.27 -123.90,981.67 -123.98,983.10 -124.44,985.76 -125.24,988.32 -126.29,990.75 -127.54,993.08" via=":15_5_0" dir="l" state="m"/>
    <connection from="37608" to="37746" fromLane="0" toLane="0" contPos="-4.00" shape="-103.43,983.84 -104.43,983.42 -106.50,982.68 -108.59,982.16 -110.69,981.88 -112.79,981.87 -114.85,982.15 -116.84,982.74 -118.73,983.62 -120.51,984.76 -122.15,986.12 -123.66,987.66 -125.73,990.25 -127.54,993.08" via=":15_0_0" dir="r" state="M"/>
    <connection from="37608" to="37605" fromLane="0" toLane="0" contPos="-4.00" shape="-103.43,983.84 -109.07,981.34 -139.25,968.22" via=":15_1_0" dir="s" state="M"/>
    <connection from="37608" to="37551" fromLane="0" toLane="0" contPos="-4.00" shape="-103.43,983.84 -106.08,982.51 -108.58,980.91 -110.39,979.38 -111.97,977.61 -112.95,976.13 -113.71,974.52 -114.22,972.82 -114.49,971.06 -114.49,968.69 -114.14,966.34 -113.32,963.50 -112.19,960.76 -110.82,958.13" via=":15_2_0" dir="l" state="m"/>
    <connection from="37745" to="37605" fromLane="0" toLane="0" contPos="-4.00" shape="-130.55,991.30 -129.49,989.32 -128.60,987.26 -127.94,985.12 -127.56,982.91 -127.51,981.79 -127.56,980.66 -127.72,979.55 -127.99,978.46 -128.37,977.41 -128.85,976.40 -129.43,975.44 -130.10,974.53 -130.84,973.69 -132.48,972.16 -134.29,970.84 -136.22,969.69 -139.25,968.22" via=":15_6_0" dir="r" state="m"/>
    <connection from="37745" to="37551" fromLane="0" toLane="0" contPos="-4.00" shape="-130.55,991.30 -113.10,962.09 -110.82,958.13" via=":15_7_0" dir="s" state="m"/>
    <connection from="37745" to="37609" fromLane="0" toLane="0" contPos="-4.00" shape="-130.55,991.30 -128.50,988.11 -126.14,985.15 -124.36,983.35 -122.40,981.75 -120.27,980.40 -117.97,979.35 -115.54,978.65 -113.04,978.32 -110.51,978.34 -108.01,978.69 -105.56,979.31 -103.17,980.15 -102.01,980.64" via=":15_8_0" dir="l" state="m"/>

    <connection from=":15_0" to="37746" fromLane="0" toLane="0" dir="r" state="M"/>
    <connection from=":15_1" to="37605" fromLane="0" toLane="0" dir="s" state="M"/>
    <connection from=":15_2" to="37551" fromLane="0" toLane="0" dir="l" state="M"/>
    <connection from=":15_3" to="37551" fromLane="0" toLane="0" dir="r" state="M"/>
    <connection from=":15_4" to="37609" fromLane="0" toLane="0" dir="s" state="M"/>
    <connection from=":15_5" to="37746" fromLane="0" toLane="0" dir="l" state="M"/>
    <connection from=":15_6" to="37605" fromLane="0" toLane="0" dir="r" state="M"/>
    <connection from=":15_7" to="37551" fromLane="0" toLane="0" dir="s" state="M"/>
    <connection from=":15_8" to="37609" fromLane="0" toLane="0" dir="l" state="M"/>

</net>