<routes>
	<vehicle depart="0.1" departLane="0" departPos="69.17296780956224" departSpeed="0.17245581" id="31" type="passenger">
		<route edges="37745 37605"/>
	</vehicle>
	<vehicle depart="0.1" departLane="0" departPos="12.624732681069624" departSpeed="1.0194598" id="318" type="passenger">
		<route edges=":15_5 37746"/>
	</vehicle>
	<vehicle depart="0.1" departLane="0" departPos="4.730659593438121" departSpeed="1.0405213" id="320" type="passenger">
		<route edges=":15_5 37746"/>
	</vehicle>
	<vehicle depart="0.1" departLane="0" departPos="37.68831642015945" departSpeed="1.203324" id="322" type="passenger">
		<route edges="37606 37551"/>
	</vehicle>
	<vehicle depart="0.1" departLane="0" departPos="2.5" departSpeed="5.4233626" id="325" type="passenger">
		<route edges=":15_2 37551"/>
	</vehicle>
	<vehicle depart="0.1" departLane="0" departPos="53.255597495362096" departSpeed="6.2751197" id="328" type="passenger">
		<route edges="37608 37605"/>
	</vehicle>
	<vehicle depart="0.1" departLane="0" departPos="28.849305398560045" departSpeed="6.3490914" id="332" type="passenger">
		<route edges="37608 37605"/>
	</vehicle>
	<vehicle depart="0.1" departLane="0" departPos="34.05862926516421" departSpeed="6.7488418" id="329" type="motorcycle">
		<route edges="37608 37605"/>
	</vehicle>
	<vehicle depart="0.1" departLane="0" departPos="26.730854068703255" departSpeed="0.76311295" id="326" type="truck">
		<route edges="37606 37551"/>
	</vehicle>
</routes>
