<routes>
	<vehicle depart="0.1" departLane="0" departPos="5.00042727984003" departSpeed="0.015947163" id="31" type="passenger">
		<route edges=":69_0 14444"/>
	</vehicle>
	<vehicle depart="0.1" departLane="0" departPos="45.89641963660077" departSpeed="0.23533982" id="32" type="passenger">
		<route edges="14025 14545"/>
	</vehicle>
	<vehicle depart="0.1" departLane="0" departPos="11.104998203480616" departSpeed="6.4194682" id="325" type="passenger">
		<route edges=":72_0 14441 14024"/>
	</vehicle>
	<vehicle depart="0.1" departLane="0" departPos="32.121116766530264" departSpeed="0.011470044" id="330" type="passenger">
		<route edges=":68_4 14442 14445"/>
	</vehicle>
	<vehicle depart="0.1" departLane="0" departPos="6.394844508639435" departSpeed="2.2884445" id="331" type="passenger">
		<route edges=":69_5 14412"/>
	</vehicle>
	<vehicle depart="0.1" departLane="0" departPos="2.5" departSpeed="0.013192202" id="332" type="passenger">
		<route edges=":68_4 14442"/>
	</vehicle>
	<vehicle depart="0.1" departLane="0" departPos="69.05221978324245" departSpeed="0.0" id="333" type="passenger">
		<route edges="14379 14445"/>
	</vehicle>
	<vehicle depart="0.1" departLane="0" departPos="66.62608255061716" departSpeed="0.16234927" id="336" type="passenger">
		<route edges="14025 14545"/>
	</vehicle>
	<vehicle depart="0.1" departLane="0" departPos="56.59698530725952" departSpeed="0.62740996" id="337" type="passenger">
		<route edges="14025 14545"/>
	</vehicle>
	<vehicle depart="0.1" departLane="0" departPos="61.55118995345017" departSpeed="0.00020260187" id="338" type="passenger">
		<route edges="14379 14445"/>
	</vehicle>
</routes>
