<!-- generated on 2020-12-18 16:04:32.441265 by ipykernel_launcher.py v1_2_0+5214-53edc58fcd
-->
<nodes>
	<node id="1" type="from" x="50.6334" y="63.8926"/>
	<node id="2" type="to" x="26.47135" y="76.9855"/>
	<node id="3" type="from" x="-48.269" y="388.087875"/>
	<node id="4" type="to" x="16.93925" y="88.65305000000001"/>
	<node id="5" type="from" x="21.939124999999997" y="88.636425"/>
	<node id="6" type="to" x="-43.457675" y="389.448525"/>
	<node id="7" type="from" x="18.18255" y="64.39987500000001"/>
	<node id="8" type="to" x="15.4847" y="12.695525"/>
	<node id="9" type="from" x="18.635825" y="73.661775"/>
	<node id="10" type="to" x="18.624425000000002" y="73.40545"/>
	<node id="11" type="from" x="21.6489" y="0.6244500000000001"/>
	<node id="12" type="to" x="55.8106" y="-11.17035"/>
	<node id="13" type="from" x="-74.97125" y="10.40785"/>
	<node id="14" type="to" x="8.732399999999998" y="3.2028000000000003"/>
	<node id="15" type="from" x="10.515799999999999" y="81.4799"/>
	<node id="16" type="to" x="-68.4779" y="79.19900000000001"/>
	<node id="17" type="from" x="15.088799999999999" y="5.105475"/>
	<node id="18" type="to" x="15.075225" y="4.84445"/>
	<node id="19" type="from" x="14.556575" y="-4.770925"/>
	<node id="20" type="to" x="18.43255" y="-149.85965"/>
</nodes>
