<!-- generated on 2020-12-18 16:27:13.140516 by ipykernel_launcher.py v1_2_0+5214-53edc58fcd
-->
<tlLogics/>
