<!-- generated on 2020-12-18 16:27:12.909436 by ipykernel_launcher.py v1_2_0+5214-53edc58fcd
-->
<edges>
	<edge from="1" function="normal" id="7487" length="41.185230924021596" numLanes="1" priority="1" speed="36.11111111111111" spreadType="center" to="2">
		<lane allow="moped bicycle pedestrian custom1 trailer evehicle rail_urban ship private truck vip custom2 authority delivery rail_electric taxi tram army hov coach motorcycle passenger bus rail emergency" index="0" length="41.185230924021596" shape="-43.91395,45.1721 -23.3818,46.55555 -2.82205,47.943200000000004" speed="36.11111111111111" width="2.499589864357746"/>
	</edge>
	<edge from="3" function="normal" id="7488" length="41.15460998587977" numLanes="1" priority="1" speed="36.11111111111111" spreadType="center" to="4">
		<lane allow="moped bicycle pedestrian custom1 trailer evehicle rail_urban ship private truck vip custom2 authority delivery rail_electric taxi tram army hov coach motorcycle passenger bus rail emergency" index="0" length="41.15460998587977" shape="-3.0176499999999997,50.434650000000005 -23.55,49.04985 -44.078900000000004,47.66415" speed="36.11111111111111" width="2.4983188947770425"/>
	</edge>
	<edge from="5" function="normal" id="7490" length="68.12318343367735" numLanes="2" priority="1" speed="36.11111111111111" spreadType="center" to="6">
		<lane allow="moped bicycle pedestrian custom1 trailer evehicle rail_urban ship private truck vip custom2 authority delivery rail_electric taxi tram army hov coach motorcycle passenger bus rail emergency" index="0" length="68.12318343367735" shape="42.97655,44.37565 36.43555,10.95135 29.89385,-22.4795" speed="36.11111111111111" width="2.499040465858848"/>
		<lane allow="moped bicycle pedestrian custom1 trailer evehicle rail_urban ship private truck vip custom2 authority delivery rail_electric taxi tram army hov coach motorcycle passenger bus rail emergency" index="1" length="68.12318343367735" shape="45.43015,43.89895 38.888999999999996,10.47125 32.3459,-22.9637" speed="36.11111111111111" width="2.499933513115894"/>
	</edge>
	<edge from="7" function="normal" id="7491" length="176.0260381414436" numLanes="1" priority="1" speed="36.11111111111111" spreadType="center" to="8">
		<lane allow="moped bicycle pedestrian custom1 trailer evehicle rail_urban ship private truck vip custom2 authority delivery rail_electric taxi tram army hov coach motorcycle passenger bus rail emergency" index="0" length="176.0260381414436" shape="-61.38015,8.75045 -141.1565,45.926 -220.93290000000002,83.10155" speed="36.11111111111111" width="2.4974750168920616"/>
	</edge>
	<edge from="9" function="normal" id="7492" length="48.10322656175644" numLanes="1" priority="1" speed="36.11111111111111" spreadType="center" to="10">
		<lane allow="moped bicycle pedestrian custom1 trailer evehicle rail_urban ship private truck vip custom2 authority delivery rail_electric taxi tram army hov coach motorcycle passenger bus rail emergency" index="0" length="48.10322656175644" shape="53.45440000000001,50.491550000000004 77.455,48.900800000000004 101.4524,47.31155" speed="36.11111111111111" width="2.4986416569808463"/>
	</edge>
	<edge from="11" function="normal" id="7493" length="48.11091073207963" numLanes="1" priority="1" speed="36.11111111111111" spreadType="center" to="12">
		<lane allow="moped bicycle pedestrian custom1 trailer evehicle rail_urban ship private truck vip custom2 authority delivery rail_electric taxi tram army hov coach motorcycle passenger bus rail emergency" index="0" length="48.11091073207963" shape="101.6176,49.8061 77.6202,51.39535 53.61175,52.983850000000004" speed="36.11111111111111" width="2.4984837201791037"/>
	</edge>
	<edge from="13" function="normal" id="7494" length="27.773314015276576" numLanes="1" priority="1" speed="36.11111111111111" spreadType="center" to="14">
		<lane allow="moped bicycle pedestrian custom1 trailer evehicle rail_urban ship private truck vip custom2 authority delivery rail_electric taxi tram army hov coach motorcycle passenger bus rail emergency" index="0" length="27.773314015276576" shape="-51.21775,40.26845 -52.9349,26.4884 -54.65215,12.708300000000001" speed="36.11111111111111" width="2.497600036034592"/>
	</edge>
	<edge from="15" function="normal" id="7495" length="25.773290001369908" numLanes="1" priority="1" speed="36.11111111111111" spreadType="center" to="16">
		<lane allow="moped bicycle pedestrian custom1 trailer evehicle rail_urban ship private truck vip custom2 authority delivery rail_electric taxi tram army hov coach motorcycle passenger bus rail emergency" index="0" length="25.773290001369908" shape="11.8977,48.89125 24.76025,49.690799999999996 37.621300000000005,50.490899999999996" speed="36.11111111111111" width="2.499087593502881"/>
	</edge>
	<edge from="17" function="normal" id="7496" length="25.76902676457518" numLanes="1" priority="1" speed="36.11111111111111" spreadType="center" to="18">
		<lane allow="moped bicycle pedestrian custom1 trailer evehicle rail_urban ship private truck vip custom2 authority delivery rail_electric taxi tram army hov coach motorcycle passenger bus rail emergency" index="0" length="25.76902676457518" shape="37.48205,52.98565 24.605150000000002,52.186 11.76265,51.38715" speed="36.11111111111111" width="2.4999804999239505"/>
	</edge>
	<edge from="19" function="normal" id="7497" length="54.51203355725705" numLanes="1" priority="1" speed="36.11111111111111" spreadType="center" to="20">
		<lane allow="moped bicycle pedestrian custom1 trailer evehicle rail_urban ship private vip custom2 authority delivery rail_electric taxi tram army hov coach motorcycle passenger rail emergency" index="0" length="54.51203355725705" shape="-64.78395,105.1348 -61.3773,95.63175000000001 -56.64145,82.8522 -54.484750000000005,76.12305 -52.9549,70.2628 -51.98905,65.30945 -51.40705,60.2962 -50.9531,52.73835" speed="36.11111111111111" width="2.49778502077341"/>
	</edge>
	<edge from="21" function="normal" id="7498" length="88.7002331068542" numLanes="1" priority="1" speed="36.11111111111111" spreadType="center" to="22">
		<lane allow="moped bicycle pedestrian custom1 trailer evehicle rail_urban ship private truck vip custom2 authority delivery rail_electric taxi tram army hov coach motorcycle passenger bus rail emergency" index="0" length="88.7002331068542" shape="5.77085,57.70335 10.89245,101.75305 16.01405,145.81015" speed="36.11111111111111" width="2.49998872397457"/>
	</edge>
	<edge from="23" function="normal" id="7499" length="88.70708694310804" numLanes="1" priority="1" speed="36.11111111111111" spreadType="center" to="24">
		<lane allow="moped bicycle pedestrian custom1 trailer evehicle rail_urban ship private truck vip custom2 authority delivery rail_electric taxi tram army hov coach motorcycle passenger bus rail emergency" index="0" length="88.70708694310804" shape="13.53075,146.09879999999998 8.40915,102.04175000000001 3.28755,57.9851" speed="36.11111111111111" width="2.4985035141059946"/>
	</edge>
	<edge from="25" function="normal" id="7500" length="80.42163482701653" numLanes="1" priority="1" speed="36.11111111111111" spreadType="center" to="26">
		<lane allow="moped bicycle pedestrian custom1 trailer evehicle rail_urban ship private truck vip custom2 authority delivery rail_electric taxi tram army hov coach motorcycle passenger bus rail emergency" index="0" length="80.42163482701653" shape="23.25985,-27.12445 -13.80455,-11.531500000000001 -50.86895,4.06145" speed="36.11111111111111" width="2.4984947188257154"/>
	</edge>
	<edge from="27" function="normal" id="7502" length="204.24676911543241" numLanes="2" priority="1" speed="36.11111111111111" spreadType="center" to="28">
		<lane allow="moped bicycle pedestrian custom1 trailer evehicle rail_urban ship private truck vip custom2 authority delivery rail_electric taxi tram army hov coach motorcycle passenger bus rail emergency" index="0" length="204.24676911543241" shape="77.7502,262.1148 61.80565,161.23590000000002 45.86405,60.37235" speed="36.11111111111111" width="2.4993795590106003"/>
		<lane allow="moped bicycle pedestrian custom1 trailer evehicle rail_urban ship private truck vip custom2 authority delivery rail_electric taxi tram army hov coach motorcycle passenger bus rail emergency" index="1" length="204.24676911543241" shape="80.22025,261.72915 64.27465,160.84355 48.3288,59.9593" speed="36.11111111111111" width="2.4996458149105854"/>
	</edge>
	<edge from="29" function="normal" id="7504" length="261.5463075401043" numLanes="2" priority="1" speed="36.11111111111111" spreadType="center" to="30">
		<lane allow="moped bicycle pedestrian custom1 trailer evehicle rail_urban ship private truck vip custom2 authority delivery rail_electric taxi tram army hov coach motorcycle passenger bus rail emergency" index="0" length="261.5463075401043" shape="27.54335,-36.86885 4.9756,-207.7467 1.67045,-229.53455 -8.9968,-295.82935" speed="36.11111111111111" width="2.499950289505781"/>
		<lane allow="moped bicycle pedestrian custom1 trailer evehicle rail_urban ship private truck vip custom2 authority delivery rail_electric taxi tram army hov coach motorcycle passenger bus rail emergency" index="1" length="261.5463075401043" shape="30.02055,-37.20505 7.44785,-208.11825 4.1405,-229.92 -6.52805,-296.22335" speed="36.11111111111111" width="2.4999558156095474"/>
	</edge>
	<edge from="31" function="normal" id="7505" length="48.597083172993415" numLanes="1" priority="1" speed="36.11111111111111" spreadType="center" to="32">
		<lane allow="moped bicycle pedestrian custom1 trailer evehicle rail_urban ship private truck vip custom2 authority delivery rail_electric taxi tram army hov coach motorcycle passenger bus rail emergency" index="0" length="48.597083172993415" shape="81.89615,-50.5047 59.30455,-41.5582 36.713,-32.6117" speed="36.11111111111111" width="2.4985263656803745"/>
	</edge>
	<edge from="4" function="normal" id="7506" length="11.321149305443939" numLanes="1" priority="1" speed="36.11111111111111" spreadType="center" to="13">
		<lane allow="moped bicycle pedestrian custom1 trailer evehicle rail_urban ship private vip custom2 authority delivery rail_electric taxi tram army hov coach motorcycle passenger rail emergency" index="0" length="11.321149305443939" shape="-44.078900000000004,47.66415 -45.7599,47.4094 -47.3519,46.82195 -48.308949999999996,46.21705 -49.14085,45.4491 -50.10965,44.05665 -50.75495,42.4857 -51.21775,40.26845" speed="36.11111111111111" width="2.497600036034592"/>
	</edge>
	<edge from="26" function="normal" id="7507" length="11.509718870574204" numLanes="1" priority="1" speed="36.11111111111111" spreadType="center" to="7">
		<lane allow="moped bicycle pedestrian custom1 trailer evehicle rail_urban ship private vip custom2 authority delivery rail_electric taxi tram army hov coach motorcycle passenger rail emergency" index="0" length="11.509718870574204" shape="-50.86895,4.06145 -60.90575,8.52975 -61.38015,8.75045" speed="36.11111111111111" width="2.4974750168920616"/>
	</edge>
	<edge from="18" function="normal" id="7508" length="14.81095961303712" numLanes="1" priority="1" speed="36.11111111111111" spreadType="center" to="3">
		<lane allow="moped bicycle pedestrian custom1 trailer evehicle rail_urban ship private truck vip custom2 authority delivery rail_electric taxi tram army hov coach motorcycle passenger bus rail emergency" index="0" length="14.81095961303712" shape="11.76265,51.38715 4.36035,50.910399999999996 -3.0176499999999997,50.434650000000005" speed="36.11111111111111" width="2.4983188947770425"/>
	</edge>
	<edge from="28" function="normal" id="7509" length="12.516956130931776" numLanes="1" priority="1" speed="36.11111111111111" spreadType="center" to="9">
		<lane allow="moped bicycle pedestrian custom1 trailer evehicle rail_urban ship private vip custom2 authority delivery rail_electric taxi tram army hov coach motorcycle passenger rail emergency" index="0" length="12.516956130931776" shape="48.3288,59.9593 48.07035,57.58435 48.10695,55.79445 48.4567,54.040949999999995 48.93905,52.95085 49.6605,52.003550000000004 50.60425,51.27745 51.69755,50.80265 53.45440000000001,50.491550000000004" speed="36.11111111111111" width="2.4986416569808463"/>
	</edge>
	<edge from="6" function="normal" id="7510" length="9.755449091704557" numLanes="1" priority="1" speed="36.11111111111111" spreadType="center" to="25">
		<lane allow="moped bicycle pedestrian custom1 trailer evehicle rail_urban ship private vip custom2 authority delivery rail_electric taxi tram army hov coach motorcycle passenger rail emergency" index="0" length="9.755449091704557" shape="29.89385,-22.4795 29.3884,-24.36345 28.86205,-25.554299999999998 28.1017,-26.6084 27.61095,-27.036 27.0502,-27.36545 26.4337,-27.57255 25.789250000000003,-27.6612 24.496650000000002,-27.5309 23.25985,-27.12445" speed="36.11111111111111" width="2.4984947188257154"/>
	</edge>
	<edge from="12" function="normal" id="7511" length="13.506682636530654" numLanes="1" priority="1" speed="36.11111111111111" spreadType="center" to="5">
		<lane allow="moped bicycle pedestrian custom1 trailer evehicle rail_urban ship private vip custom2 authority delivery rail_electric taxi tram army hov coach motorcycle passenger rail emergency" index="0" length="13.506682636530654" shape="53.61175,52.983850000000004 51.8641,52.8923 50.7342,52.5702 49.6912,52.0295 48.77175,51.297250000000005 47.65105,49.937650000000005 46.800399999999996,48.39255 45.985299999999995,46.1862 45.43015,43.89895" speed="36.11111111111111" width="2.4984837201791037"/>
	</edge>
	<edge from="16" function="normal" id="7512" length="15.842388325417499" numLanes="1" priority="1" speed="36.11111111111111" spreadType="center" to="9">
		<lane allow="moped bicycle pedestrian custom1 trailer evehicle rail_urban ship private vip custom2 authority delivery rail_electric taxi tram army hov coach motorcycle passenger rail emergency" index="0" length="15.842388325417499" shape="37.621300000000005,50.490899999999996 43.9572,50.732 50.293350000000004,50.6553 53.45440000000001,50.491550000000004" speed="36.11111111111111" width="2.4986416569808463"/>
	</edge>
	<edge from="24" function="normal" id="7513" length="15.025473054891211" numLanes="1" priority="1" speed="36.11111111111111" spreadType="center" to="15">
		<lane allow="moped bicycle pedestrian custom1 trailer evehicle rail_urban ship private vip custom2 authority delivery rail_electric taxi tram army hov coach motorcycle passenger rail emergency" index="0" length="15.025473054891211" shape="3.28755,57.9851 3.1765499999999998,56.31625 3.26305,54.64745 3.6252000000000004,53.01815 4.3557500000000005,51.5202 5.499700000000001,50.3103 6.95455,49.497150000000005 8.56175,49.04675 10.2234,48.8708 11.8977,48.89125" speed="36.11111111111111" width="2.4985035141059946"/>
	</edge>
	<edge from="32" function="normal" id="7514" length="9.944525952128444" numLanes="1" priority="1" speed="36.11111111111111" spreadType="center" to="29">
		<lane allow="moped bicycle pedestrian custom1 trailer evehicle rail_urban ship private vip custom2 authority delivery rail_electric taxi tram army hov coach motorcycle passenger rail emergency" index="0" length="9.944525952128444" shape="36.713,-32.6117 35.44845,-32.2095 34.134100000000004,-32.04295 33.47295,-32.0935 32.83065,-32.25785 32.238299999999995,-32.5553 31.718249999999998,-32.9662 31.2845,-33.46745 30.6515,-34.6309 30.12285,-36.54775 30.02055,-37.20505" speed="36.11111111111111" width="2.4985263656803745"/>
	</edge>
	<edge from="18" function="normal" id="7515" length="10.584817664946433" numLanes="1" priority="1" speed="36.11111111111111" spreadType="center" to="21">
		<lane allow="moped bicycle pedestrian custom1 trailer evehicle rail_urban ship private vip custom2 authority delivery rail_electric taxi tram army hov coach motorcycle passenger rail emergency" index="0" length="10.584817664946433" shape="11.76265,51.38715 10.459900000000001,51.36865 9.22915,51.49425 8.10915,51.7984 7.16145,52.31755 6.4498,53.06905 5.9873,54.0441 5.7433,55.18215 5.68385,56.4193 5.77085,57.70335" speed="36.11111111111111" width="2.4999804999239505"/>
	</edge>
	<edge from="28" function="normal" id="7516" length="12.236463668610437" numLanes="1" priority="1" speed="36.11111111111111" spreadType="center" to="17">
		<lane allow="moped bicycle pedestrian custom1 trailer evehicle rail_urban ship private vip custom2 authority delivery rail_electric taxi tram army hov coach motorcycle passenger rail emergency" index="0" length="12.236463668610437" shape="45.86405,60.37235 45.45635,58.663349999999994 44.77335,57.05335 43.7666,55.62479999999999 42.4433,54.4841 40.8891,53.684 39.206649999999996,53.20485 37.48205,52.98565" speed="36.11111111111111" width="2.4993795590106003"/>
	</edge>
	<edge from="24" function="normal" id="7517" length="10.819505317789291" numLanes="1" priority="1" speed="36.11111111111111" spreadType="center" to="3">
		<lane allow="moped bicycle pedestrian custom1 trailer evehicle rail_urban ship private vip custom2 authority delivery rail_electric taxi tram army hov coach motorcycle passenger rail emergency" index="0" length="10.819505317789291" shape="3.28755,57.9851 3.12805,56.913399999999996 2.8966,55.8555 2.5765000000000002,54.821200000000005 2.14925,53.8267 1.59295,52.89835 0.8894,52.0766 0.04525000000000001,51.40135 -0.91355,50.90215 -1.9479,50.58615 -3.0176499999999997,50.434650000000005" speed="36.11111111111111" width="2.4983188947770425"/>
	</edge>
	<edge from="20" function="normal" id="7518" length="11.854594716499948" numLanes="1" priority="1" speed="36.11111111111111" spreadType="center" to="1">
		<lane allow="moped bicycle pedestrian custom1 trailer evehicle rail_urban ship private vip custom2 authority delivery rail_electric taxi tram army hov coach motorcycle passenger rail emergency" index="0" length="11.854594716499948" shape="-50.9531,52.73835 -50.6609,50.3836 -50.1438,48.68175 -49.597049999999996,47.62935 -48.85595,46.7046 -47.923950000000005,45.973749999999995 -46.84685,45.4798 -45.69025,45.21805 -43.91395,45.1721" speed="36.11111111111111" width="2.49778502077341"/>
	</edge>
	<edge from="28" function="normal" id="7524" length="16.255414802663605" numLanes="2" priority="1" speed="36.11111111111111" spreadType="center" to="5">
		<lane allow="moped bicycle pedestrian custom1 trailer evehicle rail_urban ship private vip custom2 authority delivery rail_electric taxi tram army hov coach motorcycle passenger rail emergency" index="0" length="16.255414802663605" shape="45.86405,60.37235 43.389250000000004,46.508250000000004 42.97655,44.37565" speed="36.11111111111111" width="2.4993795590106003"/>
		<lane allow="moped bicycle pedestrian custom1 trailer evehicle rail_urban ship private vip custom2 authority delivery rail_electric taxi tram army hov coach motorcycle passenger rail emergency" index="1" length="16.255414802663605" shape="48.3288,59.9593 45.84415,46.03535 45.43015,43.89895" speed="36.11111111111111" width="2.4996458149105854"/>
	</edge>
	<edge from="12" function="normal" id="7520" length="16.13930509234867" numLanes="1" priority="1" speed="36.11111111111111" spreadType="center" to="17">
		<lane allow="moped bicycle pedestrian custom1 trailer evehicle rail_urban ship private vip custom2 authority delivery rail_electric taxi tram army hov coach motorcycle passenger rail emergency" index="0" length="16.13930509234867" shape="53.61175,52.983850000000004 50.384100000000004,53.15335 43.92744999999999,53.23145 37.48205,52.98565" speed="36.11111111111111" width="2.4984837201791037"/>
	</edge>
	<edge from="32" function="normal" id="7521" length="14.529182960020549" numLanes="1" priority="1" speed="36.11111111111111" spreadType="center" to="25">
		<lane allow="moped bicycle pedestrian custom1 trailer evehicle rail_urban ship private truck vip custom2 authority delivery rail_electric taxi tram army hov coach motorcycle passenger bus rail emergency" index="0" length="14.529182960020549" shape="36.713,-32.6117 29.9864,-29.86805 23.25985,-27.12445" speed="36.11111111111111" width="2.4984947188257154"/>
	</edge>
	<edge from="2" function="normal" id="7522" length="14.289308457797588" numLanes="1" priority="1" speed="36.11111111111111" spreadType="center" to="21">
		<lane allow="moped bicycle pedestrian custom1 trailer evehicle rail_urban ship private vip custom2 authority delivery rail_electric taxi tram army hov coach motorcycle passenger rail emergency" index="0" length="14.289308457797588" shape="-2.82205,47.943200000000004 -1.4318499999999998,48.137150000000005 -0.030850000000000016,48.5468 1.3019500000000002,49.205200000000005 2.4936,50.10675 3.4903500000000003,51.20745 4.2661,52.4353 4.8477500000000004,53.72525 5.27135,55.04174999999999 5.5702,56.36755 5.77085,57.70335" speed="36.11111111111111" width="2.49998872397457"/>
	</edge>
	<edge from="6" function="normal" id="7528" length="14.431648601600576" numLanes="2" priority="1" speed="36.11111111111111" spreadType="center" to="29">
		<lane allow="moped bicycle pedestrian custom1 trailer evehicle rail_urban ship private vip custom2 authority delivery rail_electric taxi tram army hov coach motorcycle passenger rail emergency" index="0" length="14.431648601600576" shape="29.89385,-22.4795 28.33645,-31.337449999999997 27.54335,-36.86885" speed="36.11111111111111" width="2.499040465858848"/>
		<lane allow="moped bicycle pedestrian custom1 trailer evehicle rail_urban ship private vip custom2 authority delivery rail_electric taxi tram army hov coach motorcycle passenger rail emergency" index="1" length="14.431648601600576" shape="32.3459,-22.9637 30.808950000000003,-31.707 30.02055,-37.20505" speed="36.11111111111111" width="2.4999619237100372"/>
	</edge>
	<edge from="20" function="normal" id="7525" length="12.485612863193916" numLanes="1" priority="1" speed="36.11111111111111" spreadType="center" to="13">
		<lane allow="moped bicycle pedestrian custom1 trailer evehicle rail_urban ship private vip custom2 authority delivery rail_electric taxi tram army hov coach motorcycle passenger rail emergency" index="0" length="12.485612863193916" shape="-50.9531,52.73835 -50.8237,46.496849999999995 -51.0524,41.8206 -51.21775,40.26845" speed="36.11111111111111" width="2.497600036034592"/>
	</edge>
	<edge from="14" function="normal" id="7526" length="9.792476484564055" numLanes="1" priority="1" speed="36.11111111111111" spreadType="center" to="7">
		<lane allow="moped bicycle pedestrian custom1 trailer evehicle rail_urban ship private vip custom2 authority delivery rail_electric taxi tram army hov coach motorcycle passenger rail emergency" index="0" length="9.792476484564055" shape="-54.65215,12.708300000000001 -55.0564,10.7907 -55.5794,9.5946 -55.953450000000004,9.0591 -56.41975,8.6027 -56.97235,8.2559 -57.588750000000005,8.042349999999999 -58.2365,7.959 -59.53405,8.0946 -61.38015,8.75045" speed="36.11111111111111" width="2.4974750168920616"/>
	</edge>
	<edge from="2" function="normal" id="7527" length="14.750248818917544" numLanes="1" priority="1" speed="36.11111111111111" spreadType="center" to="15">
		<lane allow="moped bicycle pedestrian custom1 trailer evehicle rail_urban ship private truck vip custom2 authority delivery rail_electric taxi tram army hov coach motorcycle passenger bus rail emergency" index="0" length="14.750248818917544" shape="-2.82205,47.943200000000004 4.52165,48.4156 11.8977,48.89125" speed="36.11111111111111" width="2.499357167353234"/>
	</edge>
	<edge from="16" function="normal" id="7529" length="10.001022949261365" numLanes="1" priority="1" speed="36.11111111111111" spreadType="center" to="5">
		<lane allow="moped bicycle pedestrian custom1 trailer evehicle rail_urban ship private vip custom2 authority delivery rail_electric taxi tram army hov coach motorcycle passenger rail emergency" index="0" length="10.001022949261365" shape="37.621300000000005,50.490899999999996 39.623450000000005,50.43165 40.91375,50.10175 41.510999999999996,49.80555 42.04315,49.4042 42.4818,48.902950000000004 42.80605,48.32105 43.1409,47.03425 43.1583,45.7013 42.97655,44.37565" speed="36.11111111111111" width="2.499087593502881"/>
	</edge>
</edges>
