<routes>
	<vehicle depart="0.1" departLane="0" departPos="10.536356682825863" departSpeed="0.5428144" id="37" type="bicycle">
		<route edges=":42_2 31254"/>
	</vehicle>
	<vehicle depart="0.1" departLane="0" departPos="12.800307545916095" departSpeed="8.9813541" id="310" type="passenger">
		<route edges=":42_0 31074"/>
	</vehicle>
	<vehicle depart="0.1" departLane="0" departPos="5.663126931799948" departSpeed="3.4899594" id="343" type="passenger">
		<route edges="31254 31017"/>
	</vehicle>
	<vehicle depart="0.1" departLane="0" departPos="26.613630327685055" departSpeed="3.4627241" id="344" type="passenger">
		<route edges=":42_2 31254"/>
	</vehicle>
	<vehicle depart="0.1" departLane="0" departPos="22.35551816278489" departSpeed="2.1044664" id="346" type="passenger">
		<route edges=":42_3 31074"/>
	</vehicle>
	<vehicle depart="0.1" departLane="0" departPos="19.492215819573257" departSpeed="3.1938704" id="351" type="passenger">
		<route edges="31251 31254"/>
	</vehicle>
	<vehicle depart="0.1" departLane="0" departPos="24.589700303356636" departSpeed="4.9209559" id="355" type="passenger">
		<route edges="31251 31254"/>
	</vehicle>
	<vehicle depart="0.1" departLane="0" departPos="13.493387870191404" departSpeed="0.7129773" id="348" type="truck">
		<route edges=":42_3 31074"/>
	</vehicle>
	<vehicle depart="0.1" departLane="0" departPos="55.98546848597425" departSpeed="1.9413175" id="350" type="truck">
		<route edges="31251 31254"/>
	</vehicle>
</routes>
