<!-- generated on Tue Feb  9 22:02:20 2021 by Eclipse SUMO netconvert Version 1.8.0
<configuration xmlns:xsi="http://www.w3.org/2001/XMLSchema-instance" xsi:noNamespaceSchemaLocation="http://sumo.dlr.de/xsd/netconvertConfiguration.xsd">

    <input>
        <node-files value="./converted_scenarios/scenario-factory/DEU_Ibbenbueren-13_1_I-1-1/DEU_Ibbenbueren-13_1_I-1-1.nod.xml"/>
        <edge-files value="./converted_scenarios/scenario-factory/DEU_Ibbenbueren-13_1_I-1-1/DEU_Ibbenbueren-13_1_I-1-1.edg.xml"/>
        <connection-files value="./converted_scenarios/scenario-factory/DEU_Ibbenbueren-13_1_I-1-1/DEU_Ibbenbueren-13_1_I-1-1.con.xml"/>
        <tllogic-files value="./converted_scenarios/scenario-factory/DEU_Ibbenbueren-13_1_I-1-1/DEU_Ibbenbueren-13_1_I-1-1.tll.xml"/>
        <type-files value="/home/zen/commonroad-interactive-benchmarks/install/commonroad-map-tool/crmapconverter/sumo_map/templates/DEU.typ.xml"/>
    </input>

    <output>
        <output-file value="./converted_scenarios/scenario-factory/DEU_Ibbenbueren-13_1_I-1-1/DEU_Ibbenbueren-13_1_I-1-1.net.xml"/>
    </output>

    <processing>
        <geometry.remove.keep-edges.explicit value="true"/>
        <geometry.avoid-overlap value="true"/>
        <offset.disable-normalization value="true"/>
    </processing>

    <junctions>
        <no-turnarounds value="true"/>
        <junctions.internal-link-detail value="20"/>
    </junctions>

    <report>
        <aggregate-warnings value="5"/>
    </report>

    <random_number>
        <seed value="1234"/>
    </random_number>

</configuration>
--><net xmlns:xsi="http://www.w3.org/2001/XMLSchema-instance" version="1.6" junctionCornerDetail="5" junctionLinkDetail="20" limitTurnSpeed="5.50" xsi:noNamespaceSchemaLocation="http://sumo.dlr.de/xsd/net_file.xsd">

    <location netOffset="0.00,0.00" convBoundary="-863.05,-571.60,-695.89,-280.29" origBoundary="-863.05,-571.60,-695.89,-280.29" projParameter="!"/>

    <type id="highway.bridleway" priority="1" speed="2.78" allow="pedestrian" oneway="1" width="2.00"/>
    <type id="highway.bus_guideway" priority="1" speed="27.78" allow="bus" oneway="1"/>
    <type id="highway.cycleway" priority="1" speed="8.33" allow="bicycle" oneway="0" width="1.00"/>
    <type id="highway.footway" priority="1" speed="2.78" allow="pedestrian" oneway="1" width="2.00"/>
    <type id="highway.ford" priority="1" speed="2.78" allow="army" oneway="0"/>
    <type id="highway.living_street" priority="2" speed="2.78" disallow="tram rail_urban rail rail_electric rail_fast ship" oneway="0"/>
    <type id="highway.motorway" priority="14" speed="39.44" allow="private emergency authority army vip passenger hov taxi bus coach delivery truck trailer motorcycle evehicle custom1 custom2" oneway="1"/>
    <type id="highway.motorway_link" priority="9" speed="22.22" allow="private emergency authority army vip passenger hov taxi bus coach delivery truck trailer motorcycle evehicle custom1 custom2" oneway="1"/>
    <type id="highway.path" priority="1" speed="2.78" allow="pedestrian bicycle" oneway="0" width="2.00"/>
    <type id="highway.pedestrian" priority="1" speed="2.78" allow="pedestrian" oneway="1" width="2.00"/>
    <type id="highway.primary" priority="12" speed="27.78" disallow="pedestrian tram rail_urban rail rail_electric rail_fast ship" oneway="0"/>
    <type id="highway.primary_link" priority="7" speed="22.22" disallow="pedestrian tram rail_urban rail rail_electric rail_fast ship" oneway="0"/>
    <type id="highway.raceway" priority="15" speed="83.33" allow="vip" oneway="0"/>
    <type id="highway.residential" priority="3" speed="13.89" disallow="pedestrian tram rail_urban rail rail_electric rail_fast ship" oneway="0"/>
    <type id="highway.secondary" priority="11" speed="27.78" disallow="pedestrian tram rail_urban rail rail_electric rail_fast ship" oneway="0"/>
    <type id="highway.secondary_link" priority="6" speed="22.22" disallow="pedestrian tram rail_urban rail rail_electric rail_fast ship" oneway="0"/>
    <type id="highway.service" priority="1" speed="5.56" allow="pedestrian delivery bicycle" oneway="0"/>
    <type id="highway.stairs" priority="1" speed="1.39" allow="pedestrian" oneway="1" width="2.00"/>
    <type id="highway.step" priority="1" speed="1.39" allow="pedestrian" oneway="1" width="2.00"/>
    <type id="highway.steps" priority="1" speed="1.39" allow="pedestrian" oneway="1" width="2.00"/>
    <type id="highway.tertiary" priority="10" speed="22.22" disallow="pedestrian tram rail_urban rail rail_electric rail_fast ship" oneway="0"/>
    <type id="highway.tertiary_link" priority="5" speed="22.22" disallow="pedestrian tram rail_urban rail rail_electric rail_fast ship" oneway="0"/>
    <type id="highway.track" priority="1" speed="5.56" allow="pedestrian motorcycle moped bicycle" oneway="0"/>
    <type id="highway.trunk" priority="13" speed="27.78" disallow="pedestrian bicycle tram rail_urban rail rail_electric rail_fast ship" oneway="0"/>
    <type id="highway.trunk_link" priority="8" speed="22.22" disallow="pedestrian bicycle tram rail_urban rail rail_electric rail_fast ship" oneway="0"/>
    <type id="highway.unclassified" priority="4" speed="13.89" disallow="pedestrian tram rail_urban rail rail_electric rail_fast ship" oneway="0"/>
    <type id="highway.unsurfaced" priority="1" speed="8.33" disallow="tram rail_urban rail rail_electric rail_fast ship" oneway="0"/>
    <type id="railway.highspeed" priority="21" speed="69.44" allow="rail_fast" oneway="1"/>
    <type id="railway.light_rail" priority="19" speed="27.78" allow="rail_urban" oneway="1"/>
    <type id="railway.preserved" priority="16" speed="27.78" allow="rail" oneway="1"/>
    <type id="railway.rail" priority="20" speed="44.44" allow="rail" oneway="1"/>
    <type id="railway.subway" priority="18" speed="27.78" allow="rail_urban" oneway="1"/>
    <type id="railway.tram" priority="17" speed="13.89" allow="tram" oneway="1"/>

    <edge id=":41_0" function="internal">
        <lane id=":41_0_0" index="0" disallow="pedestrian tram rail_urban rail rail_electric rail_fast ship" speed="8.48" length="20.23" width="3.50" shape="-761.09,-375.20 -760.39,-371.17 -761.34,-371.56 -762.35,-371.20 -763.24,-370.60 -764.87,-369.18 -767.15,-366.87 -770.18,-363.80 -771.80,-362.37 -772.68,-361.73"/>
    </edge>
    <edge id=":41_1" function="internal">
        <lane id=":41_1_0" index="0" disallow="pedestrian tram rail_urban rail rail_electric rail_fast ship" speed="36.11" length="15.84" width="3.50" shape="-761.09,-375.20 -761.11,-374.60 -764.37,-384.73 -765.35,-388.67 -765.45,-389.20"/>
    </edge>
    <edge id=":41_2" function="internal">
        <lane id=":41_2_0" index="0" disallow="pedestrian tram rail_urban rail rail_electric rail_fast ship" speed="36.11" length="22.20" width="3.48" shape="-758.57,-390.52 -757.99,-386.39 -757.25,-375.52 -756.65,-371.42 -756.02,-368.50"/>
    </edge>
    <edge id=":41_3" function="internal">
        <lane id=":41_3_0" index="0" disallow="pedestrian tram rail_urban rail rail_electric rail_fast ship" speed="13.98" length="32.22" width="3.50" shape="-762.01,-389.86 -761.47,-386.29 -761.27,-382.72 -761.46,-379.15 -761.85,-376.80 -762.46,-374.50 -763.30,-372.27 -764.38,-370.14 -765.69,-368.15 -767.20,-366.31 -768.89,-364.62 -770.72,-363.10 -772.68,-361.73"/>
    </edge>
    <edge id=":41_4" function="internal">
        <lane id=":41_4_0" index="0" disallow="pedestrian tram rail_urban rail rail_electric rail_fast ship" speed="13.07" length="28.07" width="3.50" shape="-774.60,-364.66 -772.86,-365.88 -771.26,-367.20 -769.81,-368.66 -768.52,-370.24 -767.41,-371.95 -766.49,-373.78 -765.78,-375.69 -765.26,-377.68 -764.94,-379.70 -764.78,-382.85 -764.97,-386.01 -765.45,-389.20"/>
    </edge>
    <edge id=":41_5" function="internal">
        <lane id=":41_5_0" index="0" disallow="pedestrian tram rail_urban rail rail_electric rail_fast ship" speed="9.23" length="24.35" width="3.48" shape="-774.60,-364.66 -773.62,-365.32 -771.75,-366.68 -768.00,-369.48 -765.05,-371.51 -762.90,-372.75 -761.60,-373.30 -759.95,-373.61 -757.73,-372.85 -756.02,-368.50"/>
    </edge>
    <edge id=":42_0" function="internal">
        <lane id=":42_0_0" index="0" disallow="pedestrian tram rail_urban rail rail_electric rail_fast ship" speed="10.43" length="31.09" width="3.50" shape="-778.74,-465.00 -779.73,-468.70 -780.60,-471.01 -781.71,-473.21 -782.34,-474.18 -783.04,-475.10 -783.82,-475.93 -784.67,-476.65 -785.59,-477.25 -786.57,-477.72 -787.61,-478.05 -788.69,-478.25 -789.81,-478.32 -790.96,-478.27 -792.13,-478.11 -793.27,-477.86 -795.62,-477.11 -797.90,-476.12 -801.24,-474.29"/>
    </edge>
    <edge id=":42_1" function="internal">
        <lane id=":42_1_0" index="0" disallow="pedestrian tram rail_urban rail rail_electric rail_fast ship" speed="36.11" length="40.36" width="3.50" shape="-778.74,-465.00 -781.93,-479.15 -787.94,-504.30"/>
    </edge>
    <edge id=":42_2" function="internal">
        <lane id=":42_2_0" index="0" disallow="pedestrian tram rail_urban rail rail_electric rail_fast ship" speed="36.11" length="40.46" width="3.50" shape="-784.55,-505.17 -778.52,-479.94 -775.33,-465.78"/>
    </edge>
    <edge id=":42_3" function="internal">
        <lane id=":42_3_0" index="0" disallow="pedestrian tram rail_urban rail rail_electric rail_fast ship" speed="14.50" length="37.90" width="3.50" shape="-784.55,-505.17 -784.08,-502.80 -783.82,-500.42 -783.81,-498.01 -784.06,-495.60 -784.58,-493.23 -785.35,-490.94 -786.35,-488.75 -787.56,-486.67 -789.66,-483.83 -792.05,-481.25 -794.65,-478.92 -797.41,-476.80 -801.24,-474.29"/>
    </edge>
    <edge id=":42_4" function="internal">
        <lane id=":42_4_0" index="0" disallow="pedestrian tram rail_urban rail rail_electric rail_fast ship" speed="13.64" length="33.41" width="3.50" shape="-803.05,-477.28 -799.56,-479.57 -797.07,-481.47 -794.72,-483.55 -792.57,-485.83 -790.69,-488.33 -789.62,-490.12 -788.72,-492.01 -788.03,-493.98 -787.57,-496.01 -787.33,-498.09 -787.32,-500.18 -787.53,-502.25 -787.94,-504.30"/>
    </edge>
    <edge id=":42_5" function="internal">
        <lane id=":42_5_0" index="0" disallow="pedestrian tram rail_urban rail rail_electric rail_fast ship" speed="11.48" length="37.97" width="3.50" shape="-803.05,-477.28 -799.21,-479.38 -796.53,-480.55 -793.75,-481.44 -792.32,-481.74 -790.87,-481.94 -789.41,-482.00 -787.95,-481.91 -786.52,-481.64 -785.13,-481.19 -783.81,-480.56 -782.59,-479.76 -781.48,-478.81 -780.49,-477.75 -779.60,-476.59 -778.81,-475.36 -777.50,-472.75 -776.47,-470.02 -775.33,-465.78"/>
    </edge>
    <edge id=":43_0" function="internal">
        <lane id=":43_0_0" index="0" disallow="pedestrian tram rail_urban rail rail_electric rail_fast ship" speed="36.11" length="27.12" width="3.46" shape="-755.39,-348.48 -757.66,-359.23 -761.05,-375.00"/>
    </edge>
    <edge id=":43_1" function="internal">
        <lane id=":43_1_0" index="0" disallow="pedestrian tram rail_urban rail rail_electric rail_fast ship" speed="11.98" length="34.47" width="3.50" shape="-755.40,-348.48 -756.02,-352.46 -756.17,-355.10 -756.04,-357.75 -755.57,-360.35 -755.19,-361.62 -754.71,-362.85 -754.12,-364.03 -753.42,-365.16 -752.62,-366.21 -751.73,-367.19 -750.75,-368.08 -749.70,-368.89 -747.43,-370.25 -745.01,-371.32 -742.49,-372.12 -738.60,-372.94"/>
    </edge>
    <edge id=":43_2" function="internal">
        <lane id=":43_2_0" index="0" disallow="pedestrian tram rail_urban rail rail_electric rail_fast ship" speed="10.96" length="28.70" width="3.50" shape="-738.01,-369.49 -741.44,-368.78 -743.57,-368.09 -745.60,-367.21 -747.49,-366.06 -748.31,-365.43 -749.09,-364.72 -749.80,-363.94 -750.44,-363.11 -750.99,-362.22 -751.46,-361.27 -751.84,-360.29 -752.14,-359.29 -752.53,-357.12 -752.64,-354.91 -752.52,-352.67 -751.97,-349.23"/>
    </edge>
    <edge id=":43_3" function="internal">
        <lane id=":43_3_0" index="0" disallow="pedestrian tram rail_urban rail rail_electric rail_fast ship" speed="11.52" length="28.92" width="3.46" shape="-738.01,-369.49 -739.13,-369.30 -741.26,-368.84 -746.63,-367.55 -751.05,-366.67 -753.42,-366.41 -754.73,-366.40 -756.11,-366.57 -757.60,-367.09 -759.08,-368.26 -761.05,-375.00"/>
    </edge>
    <edge id=":43_4" function="internal">
        <lane id=":43_4_0" index="0" disallow="pedestrian tram rail_urban rail rail_electric rail_fast ship" speed="9.67" length="20.21" width="3.50" shape="-755.98,-368.30 -756.14,-369.67 -755.49,-368.86 -754.56,-368.39 -753.53,-368.25 -752.48,-368.31 -750.44,-368.78 -746.51,-370.22 -741.63,-372.13 -739.63,-372.73 -738.60,-372.94"/>
    </edge>
    <edge id=":43_5" function="internal">
        <lane id=":43_5_0" index="0" disallow="pedestrian tram rail_urban rail rail_electric rail_fast ship" speed="36.11" length="19.49" width="3.50" shape="-755.98,-368.30 -754.23,-359.96 -751.97,-349.23"/>
    </edge>
    <edge id=":44_0" function="internal">
        <lane id=":44_0_0" index="0" disallow="pedestrian tram rail_urban rail rail_electric rail_fast ship" speed="33.67" length="33.99" width="3.50" shape="-701.86,-368.39 -706.88,-369.58 -711.97,-370.41 -717.10,-370.87 -722.25,-371.00 -727.40,-370.80 -732.53,-370.31 -735.56,-369.88"/>
    </edge>
    <edge id=":44_1" function="internal">
        <lane id=":44_1_0" index="0" disallow="pedestrian tram rail_urban rail rail_electric rail_fast ship" speed="14.77" length="32.41" width="3.50" shape="-701.86,-368.39 -704.15,-369.13 -706.36,-370.09 -708.45,-371.27 -710.41,-372.66 -712.20,-374.26 -713.82,-376.03 -715.25,-377.96 -716.49,-380.02 -718.03,-383.28 -719.21,-386.68 -720.10,-390.17 -720.53,-392.51"/>
    </edge>
    <edge id=":44_2" function="internal">
        <lane id=":44_2_0" index="0" disallow="pedestrian tram rail_urban rail rail_electric rail_fast ship" speed="13.89" length="28.56" width="3.50" shape="-717.11,-393.22 -716.69,-390.97 -715.90,-387.82 -714.85,-384.78 -713.50,-381.88 -712.43,-380.09 -711.21,-378.40 -709.82,-376.86 -708.29,-375.47 -706.62,-374.27 -704.82,-373.24 -702.92,-372.41 -700.93,-371.76"/>
    </edge>
    <edge id=":44_3" function="internal">
        <lane id=":44_3_0" index="0" disallow="pedestrian tram rail_urban rail rail_electric rail_fast ship" speed="11.96" length="34.10" width="3.50" shape="-717.11,-393.22 -716.77,-390.57 -716.69,-387.99 -716.88,-385.39 -717.43,-382.82 -717.86,-381.52 -718.40,-380.27 -719.05,-379.08 -719.80,-377.95 -720.64,-376.89 -721.58,-375.91 -722.60,-375.00 -724.75,-373.50 -727.06,-372.29 -729.45,-371.34 -731.91,-370.62 -735.56,-369.88"/>
    </edge>
    <edge id=":44_4" function="internal">
        <lane id=":44_4_0" index="0" disallow="pedestrian tram rail_urban rail rail_electric rail_fast ship" speed="10.95" length="28.36" width="3.50" shape="-736.12,-373.33 -732.92,-373.98 -730.82,-374.59 -728.79,-375.39 -726.85,-376.39 -725.05,-377.63 -724.23,-378.35 -723.47,-379.13 -722.78,-379.98 -722.17,-380.89 -721.64,-381.84 -721.20,-382.84 -720.84,-383.87 -720.37,-386.01 -720.20,-388.18 -720.27,-390.37 -720.53,-392.51"/>
    </edge>
    <edge id=":44_5" function="internal">
        <lane id=":44_5_0" index="0" disallow="pedestrian tram rail_urban rail rail_electric rail_fast ship" speed="34.50" length="35.49" width="3.50" shape="-736.12,-373.33 -732.94,-373.78 -727.61,-374.29 -722.24,-374.50 -716.86,-374.37 -711.50,-373.87 -706.18,-373.01 -700.93,-371.76"/>
    </edge>
    <edge id=":45_0" function="internal">
        <lane id=":45_0_0" index="0" disallow="pedestrian tram rail_urban rail rail_electric rail_fast ship" speed="36.11" length="8.04" width="3.50" shape="-765.08,-417.83 -762.92,-410.09"/>
        <lane id=":45_0_1" index="1" disallow="pedestrian tram rail_urban rail rail_electric rail_fast ship" speed="36.11" length="8.04" width="3.50" shape="-766.15,-417.62 -765.27,-409.63"/>
    </edge>
    <edge id=":5_0" function="internal">
        <lane id=":5_0_0" index="0" disallow="pedestrian tram rail_urban rail rail_electric rail_fast ship" speed="36.11" length="2.94" width="3.50" shape="-770.83,-425.99 -771.34,-428.89"/>
    </edge>
    <edge id=":9_0" function="internal">
        <lane id=":9_0_0" index="0" disallow="pedestrian tram rail_urban rail rail_electric rail_fast ship" speed="36.11" length="0.25" width="3.50" shape="-767.22,-398.40 -767.27,-398.65"/>
    </edge>

    <edge id="31015" from="41" to="9" priority="3" type="highway.residential" spreadType="center" length="9.37" shape="-766.68,-374.34 -767.25,-398.52">
        <lane id="31015_0" index="0" disallow="pedestrian tram rail_urban rail rail_electric rail_fast ship" speed="36.11" length="9.37" width="3.50" customShape="1" shape="-765.45,-389.20 -766.35,-393.85 -767.22,-398.40"/>
    </edge>
    <edge id="31017" from="45" to="41" priority="3" type="highway.residential" spreadType="center" length="20.03" shape="-764.00,-413.97 -761.43,-374.42">
        <lane id="31017_0" index="0" disallow="pedestrian tram rail_urban rail rail_electric rail_fast ship" speed="36.11" length="20.09" width="3.50" customShape="1" shape="-762.37,-410.20 -759.47,-395.17 -758.57,-390.47"/>
        <lane id="31017_1" index="1" disallow="pedestrian tram rail_urban rail rail_electric rail_fast ship" speed="36.11" length="20.03" width="3.50" customShape="1" shape="-765.80,-409.52 -762.91,-394.51 -762.01,-389.85"/>
    </edge>
    <edge id="31074" from="42" to="14" priority="3" type="highway.residential" spreadType="center" length="70.01" shape="-787.57,-480.46 -861.24,-438.22">
        <lane id="31074_0" index="0" disallow="pedestrian tram rail_urban rail rail_electric rail_fast ship" speed="36.11" length="70.01" width="3.50" customShape="1" shape="-801.24,-474.29 -846.78,-446.76 -861.24,-438.22"/>
    </edge>
    <edge id="31075" from="34" to="42" priority="3" type="highway.residential" spreadType="center" length="70.00" shape="-863.05,-441.22 -789.31,-483.50">
        <lane id="31075_0" index="0" disallow="pedestrian tram rail_urban rail rail_electric rail_fast ship" speed="36.11" length="70.00" width="3.50" customShape="1" shape="-863.05,-441.22 -848.56,-449.77 -803.05,-477.28"/>
    </edge>
    <edge id="31250" from="42" to="13" priority="3" type="highway.residential" spreadType="center" length="70.00" shape="-790.18,-481.55 -809.69,-570.77">
        <lane id="31250_0" index="0" disallow="pedestrian tram rail_urban rail rail_electric rail_fast ship" speed="36.11" length="70.00" width="3.50" customShape="1" shape="-787.94,-504.30 -791.28,-517.40 -794.30,-528.00 -796.79,-535.61 -801.91,-549.20 -806.12,-560.99 -809.53,-570.40 -809.69,-570.77"/>
    </edge>
    <edge id="31251" from="38" to="42" priority="3" type="highway.residential" spreadType="center" length="70.00" shape="-806.25,-571.60 -786.76,-482.30">
        <lane id="31251_0" index="0" disallow="pedestrian tram rail_urban rail rail_electric rail_fast ship" speed="36.11" length="70.00" width="3.50" customShape="1" shape="-806.25,-571.60 -802.84,-562.23 -798.62,-550.40 -793.47,-536.74 -790.95,-529.02 -787.90,-518.33 -784.54,-505.12"/>
    </edge>
    <edge id="31253" from="5" to="42" priority="3" type="highway.residential" spreadType="center" length="36.92" shape="-771.06,-427.45 -790.14,-481.43">
        <lane id="31253_0" index="0" disallow="pedestrian tram rail_urban rail rail_electric rail_fast ship" speed="36.11" length="36.92" width="3.50" customShape="1" shape="-771.34,-428.89 -774.27,-443.80 -778.75,-465.06"/>
    </edge>
    <edge id="31254" from="42" to="45" priority="3" type="highway.residential" spreadType="center" length="49.03" shape="-786.83,-482.55 -764.00,-413.97">
        <lane id="31254_0" index="0" disallow="pedestrian tram rail_urban rail rail_electric rail_fast ship" speed="36.11" length="49.03" width="3.50" customShape="1" shape="-775.33,-465.78 -770.84,-444.50 -765.59,-417.73"/>
    </edge>
    <edge id="31368" from="39" to="44" priority="3" type="highway.residential" spreadType="center" length="5.26" shape="-696.80,-366.98 -719.48,-376.60">
        <lane id="31368_0" index="0" disallow="pedestrian tram rail_urban rail rail_electric rail_fast ship" speed="36.11" length="5.26" width="3.50" customShape="1" shape="-696.80,-366.98 -699.34,-367.68 -701.87,-368.39"/>
    </edge>
    <edge id="31369" from="44" to="36" priority="3" type="highway.residential" spreadType="center" length="5.23" shape="-718.12,-379.82 -695.89,-370.36">
        <lane id="31369_0" index="0" disallow="pedestrian tram rail_urban rail rail_electric rail_fast ship" speed="36.11" length="5.23" width="3.50" customShape="1" shape="-700.93,-371.76 -698.40,-371.06 -695.89,-370.36"/>
    </edge>
    <edge id="31522" from="37" to="41" priority="3" type="highway.residential" spreadType="center" length="70.04" shape="-837.78,-336.40 -765.74,-376.05">
        <lane id="31522_0" index="0" disallow="pedestrian tram rail_urban rail rail_electric rail_fast ship" speed="36.11" length="70.04" width="3.50" customShape="1" shape="-837.78,-336.40 -831.86,-338.33 -829.42,-338.91 -825.43,-339.41 -821.93,-339.78 -819.47,-340.27 -817.09,-341.07 -811.03,-343.51 -804.66,-346.49 -798.01,-350.04 -790.23,-354.66 -774.57,-364.68"/>
    </edge>
    <edge id="31523" from="41" to="17" priority="3" type="highway.residential" spreadType="center" length="69.99" shape="-764.06,-372.99 -835.81,-333.36">
        <lane id="31523_0" index="0" disallow="pedestrian tram rail_urban rail rail_electric rail_fast ship" speed="36.11" length="69.99" width="3.50" customShape="1" shape="-772.68,-361.73 -788.39,-351.68 -796.24,-347.03 -802.97,-343.43 -809.42,-340.39 -815.57,-337.90 -818.07,-337.04 -820.73,-336.44 -824.33,-336.00 -828.24,-335.56 -830.50,-335.07 -835.81,-333.36"/>
    </edge>
    <edge id="31555" from="44" to="43" priority="3" type="highway.residential" spreadType="center" length="2.53" shape="-717.86,-376.62 -749.31,-361.85">
        <lane id="31555_0" index="0" disallow="pedestrian tram rail_urban rail rail_electric rail_fast ship" speed="36.11" length="2.53" width="3.50" customShape="1" shape="-735.56,-369.88 -736.82,-369.68 -738.06,-369.49"/>
    </edge>
    <edge id="31556" from="43" to="44" priority="3" type="highway.residential" spreadType="center" length="2.52" shape="-750.80,-365.02 -719.35,-379.78">
        <lane id="31556_0" index="0" disallow="pedestrian tram rail_urban rail rail_electric rail_fast ship" speed="36.11" length="2.52" width="3.50" customShape="1" shape="-738.60,-372.94 -737.37,-373.14 -736.11,-373.34"/>
    </edge>
    <edge id="31648" from="23" to="44" priority="3" type="highway.residential" spreadType="center" length="15.18" shape="-722.99,-407.02 -716.95,-378.42">
        <lane id="31648_0" index="0" disallow="pedestrian tram rail_urban rail rail_electric rail_fast ship" speed="36.11" length="15.18" width="3.50" customShape="1" shape="-722.99,-407.02 -721.48,-404.74 -719.73,-401.97 -718.82,-399.98 -717.86,-396.85 -717.11,-393.22"/>
    </edge>
    <edge id="31649" from="44" to="22" priority="3" type="highway.residential" spreadType="center" length="13.90" shape="-720.37,-377.71 -725.94,-405.13">
        <lane id="31649_0" index="0" disallow="pedestrian tram rail_urban rail rail_electric rail_fast ship" speed="36.11" length="13.90" width="3.50" customShape="1" shape="-720.53,-392.51 -721.24,-395.96 -722.09,-398.76 -722.88,-400.43 -724.51,-402.97 -725.94,-405.13"/>
    </edge>
    <edge id="32037" from="43" to="41" priority="3" type="highway.residential" spreadType="center" length="0.20" shape="-750.95,-361.96 -765.97,-373.12">
        <lane id="32037_0" index="0" disallow="pedestrian tram rail_urban rail rail_electric rail_fast ship" speed="36.11" length="0.20" width="3.46" customShape="1" shape="-761.05,-375.00 -761.09,-375.20"/>
    </edge>
    <edge id="32038" from="41" to="43" priority="3" type="highway.residential" spreadType="center" length="0.20" shape="-763.90,-375.90 -748.89,-364.73">
        <lane id="32038_0" index="0" disallow="pedestrian tram rail_urban rail rail_electric rail_fast ship" speed="36.11" length="0.20" width="3.48" customShape="1" shape="-756.02,-368.50 -755.98,-368.30"/>
    </edge>
    <edge id="32040" from="40" to="43" priority="3" type="highway.residential" spreadType="center" length="70.00" shape="-739.83,-280.29 -751.79,-363.23">
        <lane id="32040_0" index="0" disallow="pedestrian tram rail_urban rail rail_electric rail_fast ship" speed="36.11" length="70.00" width="3.50" customShape="1" shape="-739.83,-280.29 -741.13,-286.17 -742.80,-294.06 -750.68,-326.88 -755.40,-348.53"/>
    </edge>
    <edge id="32041" from="43" to="31" priority="3" type="highway.residential" spreadType="center" length="70.00" shape="-748.33,-363.72 -736.39,-280.99">
        <lane id="32041_0" index="0" disallow="pedestrian tram rail_urban rail rail_electric rail_fast ship" speed="36.11" length="70.00" width="3.50" customShape="1" shape="-751.97,-349.23 -747.27,-327.64 -739.38,-294.83 -737.71,-286.93 -736.39,-280.99"/>
    </edge>
    <edge id="35084" from="9" to="5" priority="3" type="highway.residential" spreadType="center" length="27.58">
        <lane id="35084_0" index="0" disallow="pedestrian tram rail_urban rail rail_electric rail_fast ship" speed="36.11" length="27.58" width="3.50" customShape="1" shape="-767.27,-398.65 -768.24,-404.70 -770.07,-421.28 -770.83,-425.99"/>
    </edge>

    <junction id="13" type="dead_end" x="-809.69" y="-570.77" incLanes="31250_0" intLanes="" shape="-811.30,-570.10 -808.08,-571.45" rightOfWay="edgePriority"/>
    <junction id="14" type="dead_end" x="-861.24" y="-438.22" incLanes="31074_0" intLanes="" shape="-860.35,-436.71 -862.13,-439.73" rightOfWay="edgePriority"/>
    <junction id="17" type="dead_end" x="-835.81" y="-333.36" incLanes="31523_0" intLanes="" shape="-835.28,-331.70 -836.35,-335.03" rightOfWay="edgePriority"/>
    <junction id="22" type="dead_end" x="-725.94" y="-405.13" incLanes="31649_0" intLanes="" shape="-727.40,-404.16 -724.48,-406.09" rightOfWay="edgePriority"/>
    <junction id="23" type="dead_end" x="-722.99" y="-407.02" incLanes="" intLanes="" shape="-724.45,-406.05 -721.54,-407.98" rightOfWay="edgePriority"/>
    <junction id="31" type="dead_end" x="-736.39" y="-280.99" incLanes="32041_0" intLanes="" shape="-734.69,-281.37 -738.10,-280.61" rightOfWay="edgePriority"/>
    <junction id="34" type="dead_end" x="-863.05" y="-441.22" incLanes="" intLanes="" shape="-862.16,-439.71 -863.93,-442.72" rightOfWay="edgePriority"/>
    <junction id="36" type="dead_end" x="-695.89" y="-370.36" incLanes="31369_0" intLanes="" shape="-695.42,-372.04 -696.36,-368.67" rightOfWay="edgePriority"/>
    <junction id="37" type="dead_end" x="-837.78" y="-336.40" incLanes="" intLanes="" shape="-837.24,-334.74 -838.32,-338.07" rightOfWay="edgePriority"/>
    <junction id="38" type="dead_end" x="-806.25" y="-571.60" incLanes="" intLanes="" shape="-807.89,-571.00 -804.60,-572.20" rightOfWay="edgePriority"/>
    <junction id="39" type="dead_end" x="-696.80" y="-366.98" incLanes="" intLanes="" shape="-696.34,-368.66 -697.27,-365.29" rightOfWay="edgePriority"/>
    <junction id="40" type="dead_end" x="-739.83" y="-280.29" incLanes="" intLanes="" shape="-738.12,-280.67 -741.53,-279.92" rightOfWay="edgePriority"/>
    <junction id="41" type="priority" x="-764.93" y="-374.50" incLanes="32037_0 31017_0 31017_1 31522_0" intLanes=":41_0_0 :41_1_0 :41_2_0 :41_3_0 :41_4_0 :41_5_0" shape="-760.10,-364.76 -753.79,-366.67 -756.86,-390.85 -767.17,-388.86 -766.57,-383.94 -766.77,-379.47 -767.76,-375.46 -769.55,-371.90 -772.13,-368.80 -775.51,-366.15 -771.74,-360.26">
        <request index="0" response="001000" foes="001000" cont="0"/>
        <request index="1" response="111000" foes="111000" cont="0"/>
        <request index="2" response="000000" foes="100000" cont="0"/>
        <request index="3" response="000000" foes="100011" cont="0"/>
        <request index="4" response="000000" foes="000010" cont="0"/>
        <request index="5" response="001100" foes="001110" cont="0"/>
    </junction>
    <junction id="42" type="priority" x="-788.47" y="-481.96" incLanes="31253_0 31251_0 31075_0" intLanes=":42_0_0 :42_1_0 :42_2_0 :42_3_0 :42_4_0 :42_5_0" shape="-780.46,-464.70 -773.62,-466.14 -782.86,-505.60 -789.64,-503.87 -789.03,-499.22 -789.62,-494.75 -791.40,-490.48 -794.39,-486.39 -798.57,-482.49 -803.96,-478.78 -800.34,-472.79 -795.31,-475.27 -790.97,-476.22 -787.31,-475.64 -784.34,-473.52 -782.06,-469.87">
        <request index="0" response="000000" foes="001000" cont="0"/>
        <request index="1" response="000000" foes="111000" cont="0"/>
        <request index="2" response="000000" foes="100000" cont="0"/>
        <request index="3" response="000011" foes="100011" cont="0"/>
        <request index="4" response="000010" foes="000010" cont="0"/>
        <request index="5" response="001110" foes="001110" cont="0"/>
    </junction>
    <junction id="43" type="priority" x="-750.05" y="-363.44" incLanes="32040_0 31555_0 32038_0" intLanes=":43_0_0 :43_1_0 :43_2_0 :43_3_0 :43_4_0 :43_5_0" shape="-757.10,-348.11 -750.26,-349.60 -750.87,-354.46 -750.40,-358.59 -748.85,-361.98 -746.24,-364.64 -742.55,-366.57 -737.78,-367.76 -738.87,-374.67 -757.83,-381.16 -763.96,-379.54">
        <request index="0" response="000000" foes="001000" cont="0"/>
        <request index="1" response="110000" foes="111000" cont="0"/>
        <request index="2" response="100000" foes="100000" cont="0"/>
        <request index="3" response="100011" foes="100011" cont="0"/>
        <request index="4" response="000000" foes="000010" cont="0"/>
        <request index="5" response="000000" foes="001110" cont="0"/>
    </junction>