<routes>
	<vehicle depart="0.1" departLane="0" departPos="35.97502684574136" departSpeed="2.3907586" id="311" type="bicycle">
		<route edges=":19_4 95639"/>
	</vehicle>
	<vehicle depart="0.1" departLane="0" departPos="24.97016869627634" departSpeed="8.1077928" id="313" type="bicycle">
		<route edges=":19_4 95639"/>
	</vehicle>
	<vehicle depart="0.1" departLane="0" departPos="19.70893490810234" departSpeed="3.0075148" id="36" type="passenger">
		<route edges=":19_2 96030"/>
	</vehicle>
	<vehicle depart="0.1" departLane="0" departPos="53.81286633617701" departSpeed="1.1012478" id="314" type="passenger">
		<route edges="95358 96030"/>
	</vehicle>
	<vehicle depart="0.1" departLane="0" departPos="7.412550826604773" departSpeed="16.10301" id="315" type="passenger">
		<route edges=":19_5 95357"/>
	</vehicle>
	<vehicle depart="0.1" departLane="0" departPos="37.793062372578596" departSpeed="2.7940443" id="316" type="passenger">
		<route edges="95358 96030"/>
	</vehicle>
	<vehicle depart="0.1" departLane="0" departPos="14.576234180530303" departSpeed="3.7194652" id="317" type="passenger">
		<route edges="95358 96030"/>
	</vehicle>
	<vehicle depart="0.1" departLane="0" departPos="5.9323556643275275" departSpeed="3.6099641" id="327" type="passenger">
		<route edges="95417 95357"/>
	</vehicle>
	<vehicle depart="0.1" departLane="0" departPos="57.58961576874949" departSpeed="0.0" id="30" type="truck">
		<route edges="95638 96030"/>
	</vehicle>
	<vehicle depart="0.1" departLane="0" departPos="68.89004207542912" departSpeed="0.21480585" id="310" type="truck">
		<route edges="95358 95639"/>
	</vehicle>
</routes>
