<routes>
	<vehicle depart="0.1" departLane="0" departPos="3.0150343478243706" departSpeed="0.081645544" id="313" type="bicycle">
		<route edges=":48_4 12994"/>
	</vehicle>
	<vehicle depart="0.1" departLane="0" departPos="27.29946062162937" departSpeed="0.0" id="318" type="passenger">
		<route edges="12647 12994"/>
	</vehicle>
	<vehicle depart="0.1" departLane="0" departPos="6.240907170972664" departSpeed="13.285833" id="319" type="passenger">
		<route edges="12133"/>
	</vehicle>
	<vehicle depart="0.1" departLane="0" departPos="19.797383816151868" departSpeed="0.0" id="321" type="passenger">
		<route edges="12647 12994"/>
	</vehicle>
	<vehicle depart="0.1" departLane="0" departPos="53.885643315177134" departSpeed="1.0163701" id="324" type="passenger">
		<route edges="12130 12133"/>
	</vehicle>
	<vehicle depart="0.1" departLane="0" departPos="44.05820673318693" departSpeed="1.9047454" id="329" type="passenger">
		<route edges="12130 12994"/>
	</vehicle>
	<vehicle depart="0.1" departLane="0" departPos="12.275005211615149" departSpeed="7.4281749" id="336" type="passenger">
		<route edges=":48_0 12994 13066"/>
	</vehicle>
	<vehicle depart="0.1" departLane="0" departPos="68.46684740116599" departSpeed="2.9897391" id="341" type="passenger">
		<route edges="12132 12129"/>
	</vehicle>
	<vehicle depart="0.1" departLane="0" departPos="52.12473385183256" departSpeed="2.484513" id="343" type="passenger">
		<route edges="12132 12129"/>
	</vehicle>
	<vehicle depart="0.1" departLane="0" departPos="40.57077070518307" departSpeed="0.30034527" id="345" type="truck">
		<route edges="12132 12129"/>
	</vehicle>
</routes>
