<routes>
	<vehicle depart="0.1" departLane="0" departPos="7.04973292105429" departSpeed="9.0341019" id="312" type="bicycle">
		<route edges="72242"/>
	</vehicle>
	<vehicle depart="0.1" departLane="0" departPos="1.0" departSpeed="8.7184353" id="313" type="bicycle">
		<route edges="72242"/>
	</vehicle>
	<vehicle depart="0.1" departLane="0" departPos="13.016480130007722" departSpeed="1.3241294" id="32" type="passenger">
		<route edges=":15_0 72811"/>
	</vehicle>
	<vehicle depart="0.1" departLane="0" departPos="20.31041085332431" departSpeed="2.3132053" id="38" type="passenger">
		<route edges=":15_0 72811"/>
	</vehicle>
	<vehicle depart="0.1" departLane="0" departPos="30.85203820725339" departSpeed="7.2232848" id="315" type="passenger">
		<route edges=":15_7 72242"/>
	</vehicle>
	<vehicle depart="0.1" departLane="0" departPos="56.91096827373062" departSpeed="10.744641" id="323" type="passenger">
		<route edges="72812 72242"/>
	</vehicle>
	<vehicle depart="0.1" departLane="0" departPos="35.220220810518505" departSpeed="10.931601" id="324" type="passenger">
		<route edges="72812 76560"/>
	</vehicle>
	<vehicle depart="0.1" departLane="0" departPos="3.75" departSpeed="0.10138149" id="33" type="truck">
		<route edges=":15_0 72811"/>
	</vehicle>
	<vehicle depart="0.1" departLane="0" departPos="69.74294086590827" departSpeed="9.9122796" id="320" type="truck">
		<route edges="72812 76560 72578"/>
	</vehicle>
</routes>
