<routes>
	<vehicle depart="0.1" departLane="0" departPos="13.773147735996389" departSpeed="0.0058296834" id="358" type="bus">
		<route edges="58238 58394"/>
	</vehicle>
	<vehicle depart="0.1" departLane="0" departPos="8.585462375484912" departSpeed="5.7081073" id="312" type="passenger">
		<route edges=":64_1 58391"/>
	</vehicle>
	<vehicle depart="0.1" departLane="0" departPos="33.228651855996944" departSpeed="1.6588226" id="323" type="passenger">
		<route edges=":64_5 58293"/>
	</vehicle>
	<vehicle depart="0.1" departLane="0" departPos="17.492047081912265" departSpeed="2.94055" id="331" type="passenger">
		<route edges="58293 58290"/>
	</vehicle>
	<vehicle depart="0.1" departLane="0" departPos="21.280783680336576" departSpeed="0.0023610918" id="341" type="passenger">
		<route edges="58238 58394"/>
	</vehicle>
	<vehicle depart="0.1" departLane="0" departPos="18.235030682976223" departSpeed="3.3179292" id="342" type="passenger">
		<route edges="58391 58397"/>
	</vehicle>
	<vehicle depart="0.1" departLane="0" departPos="13.598062583734922" departSpeed="4.6154886" id="350" type="passenger">
		<route edges=":64_5 58293"/>
	</vehicle>
	<vehicle depart="0.1" departLane="0" departPos="70.80257197039263" departSpeed="1.5566539" id="355" type="passenger">
		<route edges="58330 58391 58397"/>
	</vehicle>
	<vehicle depart="0.1" departLane="0" departPos="25.588282576796054" departSpeed="4.6093653" id="347" type="motorcycle">
		<route edges=":64_1 58391 58397"/>
	</vehicle>
</routes>
