<!-- generated on Tue Feb  9 22:19:50 2021 by Eclipse SUMO netconvert Version 1.8.0
<configuration xmlns:xsi="http://www.w3.org/2001/XMLSchema-instance" xsi:noNamespaceSchemaLocation="http://sumo.dlr.de/xsd/netconvertConfiguration.xsd">

    <input>
        <node-files value="./converted_scenarios/scenario-factory/DEU_Speyer-4_3_I-1-1/DEU_Speyer-4_3_I-1-1.nod.xml"/>
        <edge-files value="./converted_scenarios/scenario-factory/DEU_Speyer-4_3_I-1-1/DEU_Speyer-4_3_I-1-1.edg.xml"/>
        <connection-files value="./converted_scenarios/scenario-factory/DEU_Speyer-4_3_I-1-1/DEU_Speyer-4_3_I-1-1.con.xml"/>
        <tllogic-files value="./converted_scenarios/scenario-factory/DEU_Speyer-4_3_I-1-1/DEU_Speyer-4_3_I-1-1.tll.xml"/>
        <type-files value="/home/zen/commonroad-interactive-benchmarks/install/commonroad-map-tool/crmapconverter/sumo_map/templates/DEU.typ.xml"/>
    </input>

    <output>
        <output-file value="./converted_scenarios/scenario-factory/DEU_Speyer-4_3_I-1-1/DEU_Speyer-4_3_I-1-1.net.xml"/>
    </output>

    <processing>
        <geometry.remove.keep-edges.explicit value="true"/>
        <geometry.avoid-overlap value="true"/>
        <offset.disable-normalization value="true"/>
    </processing>

    <junctions>
        <no-turnarounds value="true"/>
        <junctions.internal-link-detail value="20"/>
    </junctions>

    <report>
        <aggregate-warnings value="5"/>
    </report>

    <random_number>
        <seed value="1234"/>
    </random_number>

</configuration>
--><net xmlns:xsi="http://www.w3.org/2001/XMLSchema-instance" version="1.6" junctionCornerDetail="5" junctionLinkDetail="20" limitTurnSpeed="5.50" xsi:noNamespaceSchemaLocation="http://sumo.dlr.de/xsd/net_file.xsd">

    <location netOffset="0.00,0.00" convBoundary="-526.15,-928.01,-321.89,-650.05" origBoundary="-533.91,-928.01,-257.42,-650.05" projParameter="!"/>

    <type id="highway.bridleway" priority="1" speed="2.78" allow="pedestrian" oneway="1" width="2.00"/>
    <type id="highway.bus_guideway" priority="1" speed="27.78" allow="bus" oneway="1"/>
    <type id="highway.cycleway" priority="1" speed="8.33" allow="bicycle" oneway="0" width="1.00"/>
    <type id="highway.footway" priority="1" speed="2.78" allow="pedestrian" oneway="1" width="2.00"/>
    <type id="highway.ford" priority="1" speed="2.78" allow="army" oneway="0"/>
    <type id="highway.living_street" priority="2" speed="2.78" disallow="tram rail_urban rail rail_electric rail_fast ship" oneway="0"/>
    <type id="highway.motorway" priority="14" speed="39.44" allow="private emergency authority army vip passenger hov taxi bus coach delivery truck trailer motorcycle evehicle custom1 custom2" oneway="1"/>
    <type id="highway.motorway_link" priority="9" speed="22.22" allow="private emergency authority army vip passenger hov taxi bus coach delivery truck trailer motorcycle evehicle custom1 custom2" oneway="1"/>
    <type id="highway.path" priority="1" speed="2.78" allow="pedestrian bicycle" oneway="0" width="2.00"/>
    <type id="highway.pedestrian" priority="1" speed="2.78" allow="pedestrian" oneway="1" width="2.00"/>
    <type id="highway.primary" priority="12" speed="27.78" disallow="pedestrian tram rail_urban rail rail_electric rail_fast ship" oneway="0"/>
    <type id="highway.primary_link" priority="7" speed="22.22" disallow="pedestrian tram rail_urban rail rail_electric rail_fast ship" oneway="0"/>
    <type id="highway.raceway" priority="15" speed="83.33" allow="vip" oneway="0"/>
    <type id="highway.residential" priority="3" speed="13.89" disallow="pedestrian tram rail_urban rail rail_electric rail_fast ship" oneway="0"/>
    <type id="highway.secondary" priority="11" speed="27.78" disallow="pedestrian tram rail_urban rail rail_electric rail_fast ship" oneway="0"/>
    <type id="highway.secondary_link" priority="6" speed="22.22" disallow="pedestrian tram rail_urban rail rail_electric rail_fast ship" oneway="0"/>
    <type id="highway.service" priority="1" speed="5.56" allow="pedestrian delivery bicycle" oneway="0"/>
    <type id="highway.stairs" priority="1" speed="1.39" allow="pedestrian" oneway="1" width="2.00"/>
    <type id="highway.step" priority="1" speed="1.39" allow="pedestrian" oneway="1" width="2.00"/>
    <type id="highway.steps" priority="1" speed="1.39" allow="pedestrian" oneway="1" width="2.00"/>
    <type id="highway.tertiary" priority="10" speed="22.22" disallow="pedestrian tram rail_urban rail rail_electric rail_fast ship" oneway="0"/>
    <type id="highway.tertiary_link" priority="5" speed="22.22" disallow="pedestrian tram rail_urban rail rail_electric rail_fast ship" oneway="0"/>
    <type id="highway.track" priority="1" speed="5.56" allow="pedestrian motorcycle moped bicycle" oneway="0"/>
    <type id="highway.trunk" priority="13" speed="27.78" disallow="pedestrian bicycle tram rail_urban rail rail_electric rail_fast ship" oneway="0"/>
    <type id="highway.trunk_link" priority="8" speed="22.22" disallow="pedestrian bicycle tram rail_urban rail rail_electric rail_fast ship" oneway="0"/>
    <type id="highway.unclassified" priority="4" speed="13.89" disallow="pedestrian tram rail_urban rail rail_electric rail_fast ship" oneway="0"/>
    <type id="highway.unsurfaced" priority="1" speed="8.33" disallow="tram rail_urban rail rail_electric rail_fast ship" oneway="0"/>
    <type id="railway.highspeed" priority="21" speed="69.44" allow="rail_fast" oneway="1"/>
    <type id="railway.light_rail" priority="19" speed="27.78" allow="rail_urban" oneway="1"/>
    <type id="railway.preserved" priority="16" speed="27.78" allow="rail" oneway="1"/>
    <type id="railway.rail" priority="20" speed="44.44" allow="rail" oneway="1"/>
    <type id="railway.subway" priority="18" speed="27.78" allow="rail_urban" oneway="1"/>
    <type id="railway.tram" priority="17" speed="13.89" allow="tram" oneway="1"/>

    <edge id=":26_0" function="internal">
        <lane id=":26_0_0" index="0" disallow="pedestrian tram rail_urban rail rail_electric rail_fast ship" speed="36.11" length="7.94" width="3.49" shape="-327.10,-736.28 -326.55,-736.52 -326.06,-736.73 -325.62,-736.93 -325.22,-737.11 -324.86,-737.28 -324.53,-737.44 -324.22,-737.60 -323.93,-737.76 -323.66,-737.91 -323.38,-738.06 -323.11,-738.22 -322.82,-738.39 -322.53,-738.57 -322.21,-738.76 -321.86,-738.96 -321.48,-739.18 -321.06,-739.42 -320.60,-739.69 -320.08,-739.98"/>
    </edge>
    <edge id=":62_0" function="internal">
        <lane id=":62_0_0" index="0" disallow="pedestrian tram rail_urban rail rail_electric rail_fast ship" speed="36.11" length="7.92" width="3.49" shape="-318.42,-736.89 -325.43,-733.20"/>
    </edge>
    <edge id=":63_0" function="internal">
        <lane id=":63_0_0" index="0" disallow="pedestrian tram rail_urban rail rail_electric rail_fast ship" speed="36.11" length="33.59" width="3.50" shape="-372.06,-788.76 -380.36,-803.39 -388.63,-817.98"/>
    </edge>
    <edge id=":63_1" function="internal">
        <lane id=":63_1_0" index="0" disallow="pedestrian tram rail_urban rail rail_electric rail_fast ship" speed="12.22" length="34.22" width="3.50" shape="-372.06,-788.76 -373.28,-791.11 -374.31,-793.53 -375.10,-796.04 -375.59,-798.63 -375.70,-799.94 -375.71,-801.25 -375.61,-802.56 -375.40,-803.86 -375.08,-805.14 -374.65,-806.38 -374.11,-807.58 -373.48,-808.73 -371.96,-810.88 -370.18,-812.82 -368.20,-814.54 -366.07,-816.09 -363.83,-817.48"/>
    </edge>
    <edge id=":63_2" function="internal">
        <lane id=":63_2_0" index="0" disallow="pedestrian tram rail_urban rail rail_electric rail_fast ship" speed="11.22" length="28.67" width="3.50" shape="-362.08,-814.45 -364.04,-813.24 -365.88,-811.90 -367.57,-810.43 -369.07,-808.82 -370.34,-807.02 -370.83,-806.11 -371.27,-805.14 -371.62,-804.15 -371.88,-803.12 -372.04,-802.08 -372.12,-801.02 -372.12,-799.95 -372.04,-798.91 -371.63,-796.73 -370.96,-794.61 -370.08,-792.53 -369.01,-790.49"/>
    </edge>
    <edge id=":63_3" function="internal">
        <lane id=":63_3_0" index="0" disallow="pedestrian tram rail_urban rail rail_electric rail_fast ship" speed="11.53" length="30.51" width="3.50" shape="-362.08,-814.45 -364.31,-813.24 -367.74,-811.69 -370.19,-810.85 -372.73,-810.25 -375.34,-809.97 -376.73,-809.99 -378.09,-810.13 -379.45,-810.40 -380.78,-810.82 -382.05,-811.37 -383.26,-812.06 -384.39,-812.87 -385.42,-813.77 -386.36,-814.75 -387.22,-815.82 -388.63,-817.98"/>
    </edge>
    <edge id=":63_4" function="internal">
        <lane id=":63_4_0" index="0" disallow="pedestrian tram rail_urban rail rail_electric rail_fast ship" speed="10.45" length="24.95" width="3.50" shape="-385.60,-819.74 -384.41,-817.93 -383.72,-817.09 -382.97,-816.31 -382.14,-815.61 -381.24,-815.00 -380.28,-814.49 -379.28,-814.09 -378.23,-813.80 -377.16,-813.61 -376.08,-813.53 -375.00,-813.55 -372.85,-813.83 -370.74,-814.36 -368.70,-815.08 -365.74,-816.44 -363.83,-817.48"/>
    </edge>
    <edge id=":63_5" function="internal">
        <lane id=":63_5_0" index="0" disallow="pedestrian tram rail_urban rail rail_electric rail_fast ship" speed="36.11" length="33.63" width="3.50" shape="-385.60,-819.74 -377.31,-805.12 -369.01,-790.49"/>
    </edge>
    <edge id=":64_0" function="internal">
        <lane id=":64_0_0" index="0" disallow="pedestrian tram rail_urban rail rail_electric rail_fast ship" speed="11.32" length="28.39" width="3.48" shape="-468.33,-767.23 -470.14,-770.13 -471.49,-771.87 -473.00,-773.46 -474.67,-774.83 -476.51,-775.95 -477.44,-776.37 -478.42,-776.73 -479.44,-777.00 -480.44,-777.19 -482.59,-777.33 -484.74,-777.15 -486.88,-776.71 -488.99,-776.05 -492.13,-774.69"/>
    </edge>
    <edge id=":64_1" function="internal">
        <lane id=":64_1_0" index="0" disallow="pedestrian tram rail_urban rail rail_electric rail_fast ship" speed="12.22" length="34.10" width="3.50" shape="-468.33,-767.23 -469.49,-769.50 -470.48,-771.87 -471.26,-774.34 -471.76,-776.92 -471.91,-779.55 -471.84,-780.93 -471.64,-782.27 -471.34,-783.60 -470.92,-784.89 -470.39,-786.14 -469.76,-787.33 -469.02,-788.49 -467.39,-790.54 -465.53,-792.37 -463.50,-793.98 -460.32,-796.02"/>
    </edge>
    <edge id=":64_2" function="internal">
        <lane id=":64_2_0" index="0" disallow="pedestrian tram rail_urban rail rail_electric rail_fast ship" speed="11.22" length="28.57" width="3.50" shape="-458.57,-792.99 -461.34,-791.21 -463.06,-789.85 -464.63,-788.31 -466.00,-786.59 -466.59,-785.66 -467.10,-784.69 -467.53,-783.67 -467.87,-782.63 -468.12,-781.56 -468.27,-780.47 -468.33,-779.37 -468.21,-777.18 -467.79,-775.02 -467.13,-772.92 -466.28,-770.90 -465.28,-768.94"/>
    </edge>
    <edge id=":64_3" function="internal">
        <lane id=":64_3_0" index="0" disallow="pedestrian tram rail_urban rail rail_electric rail_fast ship" speed="36.11" length="38.23" width="3.48" shape="-458.57,-792.99 -478.40,-781.91 -490.26,-775.63 -492.13,-774.69"/>
    </edge>
    <edge id=":64_4" function="internal">
        <lane id=":64_4_0" index="0" disallow="pedestrian tram rail_urban rail rail_electric rail_fast ship" speed="36.11" length="38.02" width="3.50" shape="-493.70,-777.82 -491.84,-778.75 -480.04,-785.00 -460.32,-796.02"/>
    </edge>
    <edge id=":64_5" function="internal">
        <lane id=":64_5_0" index="0" disallow="pedestrian tram rail_urban rail rail_electric rail_fast ship" speed="12.31" length="33.80" width="3.50" shape="-493.70,-777.82 -490.08,-779.38 -487.60,-780.16 -485.06,-780.68 -482.47,-780.89 -479.88,-780.72 -478.60,-780.49 -477.35,-780.15 -476.13,-779.71 -474.95,-779.17 -472.73,-777.82 -470.72,-776.17 -468.93,-774.29 -467.34,-772.24 -465.28,-768.94"/>
    </edge>
    <edge id=":65_0" function="internal">
        <lane id=":65_0_0" index="0" disallow="pedestrian tram rail_urban rail rail_electric rail_fast ship" speed="10.76" length="26.48" width="3.50" shape="-404.54,-846.02 -405.75,-847.95 -407.12,-849.71 -408.70,-851.28 -409.52,-851.92 -410.40,-852.51 -411.33,-853.01 -412.30,-853.42 -413.30,-853.74 -414.33,-853.96 -415.38,-854.08 -416.45,-854.11 -417.50,-854.06 -419.71,-853.71 -421.86,-853.09 -423.98,-852.27 -427.11,-850.69"/>
    </edge>
    <edge id=":65_1" function="internal">
        <lane id=":65_1_0" index="0" disallow="pedestrian tram rail_urban rail rail_electric rail_fast ship" speed="30.78" length="33.93" width="3.50" shape="-404.54,-846.02 -406.55,-849.76 -408.78,-854.54 -410.69,-859.48 -412.24,-864.55 -413.40,-869.71 -414.05,-873.92 -414.42,-878.17"/>
    </edge>
    <edge id=":65_2" function="internal">
        <lane id=":65_2_0" index="0" disallow="pedestrian tram rail_urban rail rail_electric rail_fast ship" speed="29.52" length="32.28" width="3.50" shape="-410.92,-878.34 -410.57,-874.33 -409.96,-870.34 -408.85,-865.42 -407.37,-860.59 -405.55,-855.89 -403.41,-851.32 -401.51,-847.76"/>
    </edge>
    <edge id=":65_3" function="internal">
        <lane id=":65_3_0" index="0" disallow="pedestrian tram rail_urban rail rail_electric rail_fast ship" speed="15.03" length="33.98" width="3.50" shape="-410.92,-878.34 -410.91,-874.83 -411.28,-871.34 -411.76,-869.05 -412.44,-866.81 -413.33,-864.64 -414.40,-862.56 -415.67,-860.58 -417.87,-857.85 -420.38,-855.39 -423.13,-853.21 -426.07,-851.29 -427.11,-850.69"/>
    </edge>
    <edge id=":65_4" function="internal">
        <lane id=":65_4_0" index="0" disallow="pedestrian tram rail_urban rail rail_electric rail_fast ship" speed="14.16" length="30.10" width="3.50" shape="-428.83,-853.74 -427.91,-854.27 -425.24,-856.01 -422.77,-857.96 -420.54,-860.13 -418.59,-862.55 -417.49,-864.26 -416.54,-866.08 -415.76,-867.97 -415.16,-869.93 -414.74,-871.92 -414.40,-875.03 -414.42,-878.17"/>
    </edge>
    <edge id=":65_5" function="internal">
        <lane id=":65_5_0" index="0" disallow="pedestrian tram rail_urban rail rail_electric rail_fast ship" speed="11.82" length="32.03" width="3.50" shape="-428.83,-853.74 -425.23,-855.54 -422.74,-856.51 -420.17,-857.23 -417.54,-857.63 -416.20,-857.69 -414.87,-857.64 -413.55,-857.47 -412.24,-857.18 -410.98,-856.77 -409.75,-856.24 -408.59,-855.59 -407.48,-854.85 -406.44,-854.02 -404.56,-852.13 -402.92,-850.02 -401.51,-847.76"/>
    </edge>
    <edge id=":66_0" function="internal">
        <lane id=":66_0_0" index="0" disallow="pedestrian tram rail_urban rail rail_electric rail_fast ship" speed="9.23" length="19.49" width="3.50" shape="-342.03,-735.40 -342.64,-736.22 -343.47,-736.82 -344.43,-737.17 -345.45,-737.30 -346.47,-737.29 -347.49,-737.17 -348.50,-736.97 -350.47,-736.41 -352.40,-735.70 -355.22,-734.45 -357.97,-733.06 -359.77,-732.08"/>
    </edge>
    <edge id=":66_1" function="internal">
        <lane id=":66_1_0" index="0" disallow="pedestrian tram rail_urban rail rail_electric rail_fast ship" speed="36.11" length="27.12" width="3.50" shape="-342.03,-735.40 -343.50,-738.14 -355.22,-759.10"/>
    </edge>
    <edge id=":66_2" function="internal">
        <lane id=":66_2_0" index="0" disallow="pedestrian tram rail_urban rail rail_electric rail_fast ship" speed="36.11" length="27.15" width="3.50" shape="-352.18,-760.83 -340.42,-739.80 -338.98,-737.10"/>
    </edge>
    <edge id=":66_3" function="internal">
        <lane id=":66_3_0" index="0" disallow="pedestrian tram rail_urban rail rail_electric rail_fast ship" speed="12.17" length="34.16" width="3.50" shape="-352.18,-760.83 -350.39,-757.28 -349.45,-754.83 -348.75,-752.30 -348.36,-749.71 -348.30,-748.39 -348.34,-747.08 -348.50,-745.78 -348.76,-744.49 -349.14,-743.24 -349.63,-742.02 -350.22,-740.85 -350.90,-739.73 -352.51,-737.66 -354.38,-735.82 -356.44,-734.19 -358.63,-732.74 -359.77,-732.08"/>
    </edge>
    <edge id=":66_4" function="internal">
        <lane id=":66_4_0" index="0" disallow="pedestrian tram rail_urban rail rail_electric rail_fast ship" speed="11.16" length="28.56" width="3.50" shape="-361.49,-735.13 -360.51,-735.70 -358.60,-736.95 -356.85,-738.34 -355.28,-739.88 -353.94,-741.61 -353.41,-742.49 -352.93,-743.44 -352.55,-744.41 -352.25,-745.42 -352.04,-746.45 -351.92,-747.50 -351.88,-748.56 -351.93,-749.60 -352.26,-751.78 -352.85,-753.91 -353.66,-756.00 -355.22,-759.10"/>
    </edge>
    <edge id=":66_5" function="internal">
        <lane id=":66_5_0" index="0" disallow="pedestrian tram rail_urban rail rail_electric rail_fast ship" speed="10.45" length="24.89" width="3.50" shape="-361.49,-735.13 -359.36,-736.28 -356.12,-737.87 -352.75,-739.26 -350.37,-740.02 -347.91,-740.54 -346.58,-740.68 -345.22,-740.68 -343.83,-740.51 -342.43,-740.09 -341.09,-739.39 -339.90,-738.37 -338.98,-737.10"/>
    </edge>
    <edge id=":67_0" function="internal">
        <lane id=":67_0_0" index="0" disallow="pedestrian tram rail_urban rail rail_electric rail_fast ship" speed="10.39" length="24.56" width="3.50" shape="-388.78,-818.23 -389.95,-820.01 -390.63,-820.84 -391.38,-821.60 -392.19,-822.29 -393.08,-822.89 -394.02,-823.39 -395.01,-823.79 -396.04,-824.07 -397.09,-824.25 -398.16,-824.33 -399.23,-824.31 -401.35,-824.05 -403.42,-823.54 -405.44,-822.83 -408.36,-821.51 -410.24,-820.50"/>
    </edge>
    <edge id=":67_1" function="internal">
        <lane id=":67_1_0" index="0" disallow="pedestrian tram rail_urban rail rail_electric rail_fast ship" speed="36.11" length="31.74" width="3.50" shape="-388.78,-818.23 -396.60,-832.02 -404.44,-845.84"/>
    </edge>
    <edge id=":67_2" function="internal">
        <lane id=":67_2_0" index="0" disallow="pedestrian tram rail_urban rail rail_electric rail_fast ship" speed="36.11" length="31.72" width="3.50" shape="-401.40,-847.58 -393.56,-833.75 -385.75,-819.99"/>
    </edge>
    <edge id=":67_3" function="internal">
        <lane id=":67_3_0" index="0" disallow="pedestrian tram rail_urban rail rail_electric rail_fast ship" speed="11.92" length="32.65" width="3.50" shape="-401.40,-847.58 -400.19,-845.22 -399.21,-842.80 -398.52,-840.28 -398.31,-839.00 -398.19,-837.70 -398.19,-836.39 -398.29,-835.09 -398.52,-833.81 -398.86,-832.55 -399.31,-831.33 -399.87,-830.15 -400.52,-829.02 -402.08,-826.93 -403.89,-825.05 -405.88,-823.37 -409.11,-821.16 -410.24,-820.50"/>
    </edge>
    <edge id=":67_4" function="internal">
        <lane id=":67_4_0" index="0" disallow="pedestrian tram rail_urban rail rail_electric rail_fast ship" speed="10.87" length="27.06" width="3.50" shape="-411.97,-823.54 -411.01,-824.10 -408.18,-826.03 -406.49,-827.45 -404.97,-829.01 -403.66,-830.75 -403.15,-831.63 -402.69,-832.57 -402.32,-833.54 -402.05,-834.53 -401.86,-835.54 -401.77,-836.57 -401.77,-837.61 -401.86,-838.66 -402.02,-839.68 -402.59,-841.79 -403.41,-843.83 -404.44,-845.84"/>
    </edge>
    <edge id=":67_5" function="internal">
        <lane id=":67_5_0" index="0" disallow="pedestrian tram rail_urban rail rail_electric rail_fast ship" speed="11.48" length="30.10" width="3.50" shape="-411.97,-823.54 -409.77,-824.72 -406.38,-826.23 -403.96,-827.05 -401.45,-827.63 -398.87,-827.89 -397.51,-827.87 -396.16,-827.73 -394.82,-827.46 -393.51,-827.05 -392.25,-826.51 -391.06,-825.83 -389.94,-825.03 -388.92,-824.14 -388.00,-823.17 -387.14,-822.12 -385.75,-819.99"/>
    </edge>
    <edge id=":68_0" function="internal">
        <lane id=":68_0_0" index="0" disallow="pedestrian tram rail_urban rail rail_electric rail_fast ship" speed="11.17" length="28.95" width="3.50" shape="-394.11,-905.25 -396.44,-905.11 -398.71,-904.80 -400.92,-904.29 -403.01,-903.56 -404.99,-902.55 -405.86,-901.97 -406.69,-901.31 -407.46,-900.58 -408.16,-899.78 -408.79,-898.92 -409.35,-898.01 -409.82,-897.07 -410.58,-894.99 -411.07,-892.81 -411.32,-890.57 -411.35,-887.07"/>
    </edge>
    <edge id=":68_1" function="internal">
        <lane id=":68_1_0" index="0" disallow="pedestrian tram rail_urban rail rail_electric rail_fast ship" speed="36.11" length="37.80" width="3.50" shape="-394.11,-905.25 -402.52,-905.11 -413.00,-905.27 -422.43,-905.77 -431.86,-906.63"/>
    </edge>
    <edge id=":68_2" function="internal">
        <lane id=":68_2_0" index="0" disallow="pedestrian tram rail_urban rail rail_electric rail_fast ship" speed="36.11" length="37.27" width="3.50" shape="-431.45,-910.11 -422.17,-909.26 -412.87,-908.77 -402.51,-908.61 -394.23,-908.75"/>
    </edge>
    <edge id=":68_3" function="internal">
        <lane id=":68_3_0" index="0" disallow="pedestrian tram rail_urban rail rail_electric rail_fast ship" speed="13.00" length="33.94" width="3.50" shape="-431.45,-910.11 -428.97,-909.74 -426.52,-909.16 -424.14,-908.35 -421.87,-907.29 -419.75,-905.94 -417.83,-904.32 -416.16,-902.45 -414.76,-900.36 -413.63,-898.12 -412.76,-895.76 -412.13,-893.33 -411.54,-889.61 -411.35,-887.07"/>
    </edge>
    <edge id=":68_4" function="internal">
        <lane id=":68_4_0" index="0" disallow="pedestrian tram rail_urban rail rail_electric rail_fast ship" speed="12.04" length="28.98" width="3.50" shape="-414.84,-886.90 -415.01,-889.15 -415.52,-892.44 -416.07,-894.52 -416.80,-896.53 -417.74,-898.43 -418.90,-900.18 -420.28,-901.74 -421.86,-903.09 -423.63,-904.21 -425.54,-905.12 -427.57,-905.81 -429.68,-906.31 -431.86,-906.63"/>
    </edge>
    <edge id=":68_5" function="internal">
        <lane id=":68_5_0" index="0" disallow="pedestrian tram rail_urban rail rail_electric rail_fast ship" speed="12.18" length="34.59" width="3.50" shape="-414.85,-886.90 -414.81,-890.93 -414.51,-893.57 -413.93,-896.17 -413.03,-898.66 -412.43,-899.85 -411.75,-900.99 -410.96,-902.06 -410.09,-903.06 -409.12,-903.98 -408.08,-904.80 -406.98,-905.54 -404.61,-906.75 -402.11,-907.62 -399.52,-908.22 -396.88,-908.58 -394.23,-908.75"/>
    </edge>
    <edge id=":69_0" function="internal">
        <lane id=":69_0_0" index="0" disallow="pedestrian tram rail_urban rail rail_electric rail_fast ship" speed="10.86" length="27.10" width="3.50" shape="-436.90,-710.29 -437.47,-711.26 -438.73,-713.11 -440.14,-714.78 -441.75,-716.25 -442.58,-716.85 -443.47,-717.40 -444.40,-717.86 -445.36,-718.23 -446.35,-718.51 -447.37,-718.69 -448.41,-718.79 -449.46,-718.80 -450.50,-718.73 -452.66,-718.36 -454.77,-717.73 -456.84,-716.89 -459.87,-715.33"/>
    </edge>
    <edge id=":69_1" function="internal">
        <lane id=":69_1_0" index="0" disallow="pedestrian tram rail_urban rail rail_electric rail_fast ship" speed="36.11" length="36.75" width="3.50" shape="-436.90,-710.29 -450.17,-734.16 -454.69,-742.45"/>
    </edge>
    <edge id=":69_2" function="internal">
        <lane id=":69_2_0" index="0" disallow="pedestrian tram rail_urban rail rail_electric rail_fast ship" speed="36.11" length="36.69" width="3.50" shape="-451.62,-744.13 -447.10,-735.84 -433.86,-712.02"/>
    </edge>
    <edge id=":69_3" function="internal">
        <lane id=":69_3_0" index="0" disallow="pedestrian tram rail_urban rail rail_electric rail_fast ship" speed="12.26" length="34.09" width="3.50" shape="-451.62,-744.14 -450.48,-741.85 -449.52,-739.47 -448.77,-736.99 -448.31,-734.40 -448.20,-731.77 -448.29,-730.39 -448.50,-729.05 -448.83,-727.74 -449.26,-726.45 -449.80,-725.21 -450.43,-724.03 -451.17,-722.88 -452.80,-720.84 -454.66,-719.01 -456.69,-717.39 -459.87,-715.33"/>
    </edge>
    <edge id=":69_4" function="internal">
        <lane id=":69_4_0" index="0" disallow="pedestrian tram rail_urban rail rail_electric rail_fast ship" speed="11.27" length="28.59" width="3.50" shape="-461.62,-718.36 -458.85,-720.15 -457.13,-721.53 -455.56,-723.06 -454.19,-724.78 -453.60,-725.71 -453.08,-726.68 -452.64,-727.69 -452.28,-728.73 -452.02,-729.80 -451.85,-730.88 -451.77,-731.98 -451.86,-734.18 -452.25,-736.34 -452.88,-738.45 -453.71,-740.49 -454.69,-742.45"/>
    </edge>
    <edge id=":69_5" function="internal">
        <lane id=":69_5_0" index="0" disallow="pedestrian tram rail_urban rail rail_electric rail_fast ship" speed="11.89" length="32.71" width="3.50" shape="-461.62,-718.36 -458.13,-720.15 -455.70,-721.13 -453.19,-721.87 -450.61,-722.30 -449.31,-722.39 -448.00,-722.37 -446.70,-722.23 -445.41,-721.99 -444.16,-721.63 -442.94,-721.15 -441.77,-720.56 -440.66,-719.87 -439.61,-719.10 -437.68,-717.32 -436.00,-715.32 -434.53,-713.16 -433.86,-712.02"/>
    </edge>
    <edge id=":70_0" function="internal">
        <lane id=":70_0_0" index="0" disallow="pedestrian tram rail_urban rail rail_electric rail_fast ship" speed="36.11" length="38.53" width="3.50" shape="-409.04,-704.26 -425.74,-694.65 -442.44,-685.05"/>
    </edge>
    <edge id=":70_1" function="internal">
        <lane id=":70_1_0" index="0" disallow="pedestrian tram rail_urban rail rail_electric rail_fast ship" speed="11.89" length="32.39" width="3.50" shape="-409.04,-704.26 -412.33,-702.57 -414.67,-701.61 -417.10,-700.86 -419.64,-700.37 -422.23,-700.22 -423.59,-700.30 -424.92,-700.49 -426.23,-700.81 -427.51,-701.25 -428.74,-701.80 -429.91,-702.46 -431.01,-703.21 -432.06,-704.07 -433.87,-705.90 -435.44,-707.93 -436.77,-710.06"/>
    </edge>
    <edge id=":70_2" function="internal">
        <lane id=":70_2_0" index="0" disallow="pedestrian tram rail_urban rail rail_electric rail_fast ship" speed="10.83" length="26.83" width="3.50" shape="-433.73,-711.80 -432.60,-709.99 -431.28,-708.29 -429.76,-706.78 -428.92,-706.11 -428.03,-705.51 -427.09,-704.99 -426.11,-704.56 -425.09,-704.23 -424.04,-703.99 -422.98,-703.84 -421.90,-703.79 -419.76,-703.94 -417.66,-704.36 -415.61,-705.01 -413.63,-705.83 -410.76,-707.31"/>
    </edge>
    <edge id=":70_3" function="internal">
        <lane id=":70_3_0" index="0" disallow="pedestrian tram rail_urban rail rail_electric rail_fast ship" speed="11.87" length="32.08" width="3.50" shape="-433.73,-711.80 -432.55,-709.48 -431.60,-707.02 -430.95,-704.44 -430.75,-703.06 -430.68,-701.69 -430.73,-700.31 -430.90,-698.93 -431.21,-697.57 -431.64,-696.25 -432.19,-694.98 -432.84,-693.78 -433.61,-692.62 -435.28,-690.57 -437.18,-688.74 -439.24,-687.12 -442.44,-685.05"/>
    </edge>
    <edge id=":70_4" function="internal">
        <lane id=":70_4_0" index="0" disallow="pedestrian tram rail_urban rail rail_electric rail_fast ship" speed="10.81" length="26.55" width="3.50" shape="-444.22,-688.06 -441.42,-689.86 -439.68,-691.23 -438.08,-692.76 -436.67,-694.46 -436.06,-695.38 -435.52,-696.35 -435.07,-697.36 -434.71,-698.41 -434.46,-699.49 -434.31,-700.59 -434.26,-701.69 -434.31,-702.80 -434.45,-703.90 -434.98,-706.05 -435.78,-708.11 -436.77,-710.06"/>
    </edge>
    <edge id=":70_5" function="internal">
        <lane id=":70_5_0" index="0" disallow="pedestrian tram rail_urban rail rail_electric rail_fast ship" speed="36.11" length="38.60" width="3.50" shape="-444.22,-688.06 -427.49,-697.68 -410.76,-707.31"/>
    </edge>

    <edge id="58238" from="29" to="65" priority="3" type="highway.residential" spreadType="center" length="66.40" shape="-486.67,-821.18 -415.37,-860.67">
        <lane id="58238_0" index="0" disallow="pedestrian tram rail_urban rail rail_electric rail_fast ship" speed="36.11" length="66.40" width="3.50" customShape="1" shape="-486.67,-821.18 -457.74,-837.47 -428.81,-853.75"/>
    </edge>
    <edge id="58239" from="65" to="25" priority="3" type="highway.residential" spreadType="center" length="66.37" shape="-413.67,-857.61 -484.95,-818.13">
        <lane id="58239_0" index="0" disallow="pedestrian tram rail_urban rail rail_electric rail_fast ship" speed="36.11" length="66.37" width="3.50" customShape="1" shape="-427.11,-850.69 -456.02,-834.42 -484.95,-818.13"/>
    </edge>
    <edge id="58253" from="62" to="66" priority="3" type="highway.residential" spreadType="center" length="18.81" shape="-321.89,-734.98 -352.08,-741.59">
        <lane id="58253_0" index="0" disallow="pedestrian tram rail_urban rail rail_electric rail_fast ship" speed="36.11" length="18.81" width="3.49" customShape="1" shape="-325.43,-733.20 -325.67,-733.08 -328.28,-732.03 -330.97,-731.23 -332.36,-730.96 -333.76,-730.81 -335.16,-730.81 -336.56,-730.99 -337.90,-731.40 -339.15,-732.05 -340.25,-732.92 -341.17,-733.98 -341.92,-735.18 -341.97,-735.29 -342.04,-735.41"/>
    </edge>
    <edge id="58256" from="63" to="62" priority="3" type="highway.residential" spreadType="center" length="230.94" shape="-372.11,-809.16 -321.89,-734.98">
        <lane id="58256_0" index="0" disallow="pedestrian tram rail_urban rail rail_electric rail_fast ship" speed="36.11" length="230.94" width="3.50" customShape="1" shape="-363.83,-817.48 -345.41,-828.10 -340.15,-831.42 -329.04,-839.06 -323.78,-842.39 -319.23,-844.87 -314.97,-846.78 -311.05,-848.16 -308.04,-848.93 -305.98,-849.19 -303.91,-849.14 -302.38,-848.87 -300.90,-848.40 -299.48,-847.76 -297.73,-846.65 -295.76,-844.97 -293.66,-842.68 -291.83,-840.16 -290.28,-837.46 -288.11,-832.75 -285.95,-828.04 -282.40,-821.70 -269.32,-799.92 -267.18,-796.98 -262.22,-790.99 -260.14,-788.02 -258.91,-785.74 -258.00,-783.31 -257.57,-781.28 -257.42,-779.21 -257.54,-777.66 -257.90,-776.15 -258.68,-774.23 -259.74,-772.45 -261.67,-770.01 -264.55,-767.03 -267.68,-764.30 -271.45,-761.55 -275.42,-759.10 -280.47,-756.44 -290.82,-751.64 -297.83,-748.28 -318.42,-736.89"/>
    </edge>
    <edge id="58257" from="26" to="63" priority="3" type="highway.residential" spreadType="center" length="219.83" shape="-323.55,-738.05 -374.96,-807.14">
        <lane id="58257_0" index="0" disallow="pedestrian tram rail_urban rail rail_electric rail_fast ship" speed="36.11" length="219.83" width="3.49" customShape="1" shape="-320.08,-739.98 -300.06,-751.06 -293.16,-754.42 -283.06,-759.07 -278.19,-761.58 -274.37,-763.84 -270.75,-766.37 -267.75,-768.85 -264.97,-771.60 -263.12,-773.79 -262.13,-775.27 -261.38,-776.83 -261.04,-777.99 -260.91,-779.18 -261.05,-780.92 -261.45,-782.63 -262.32,-784.75 -263.49,-786.75 -265.51,-789.50 -270.35,-795.36 -272.46,-798.35 -285.29,-819.70 -288.82,-825.95 -291.00,-830.63 -293.06,-835.19 -294.44,-837.71 -296.05,-840.05 -297.92,-842.18 -299.62,-843.70 -301.08,-844.65 -302.23,-845.17 -303.43,-845.52 -304.68,-845.69 -306.45,-845.63 -308.24,-845.29 -310.99,-844.49 -314.64,-843.12 -318.65,-841.23 -322.95,-838.80 -328.00,-835.54 -338.86,-828.08 -344.07,-824.83 -362.09,-814.45"/>
    </edge>