<routes>
	<vehicle depart="0.1" departLane="0" departPos="70.28976301814053" departSpeed="0.0" id="314" type="bicycle">
		<route edges="175 515"/>
	</vehicle>
	<vehicle depart="0.1" departLane="0" departPos="41.47816014662591" departSpeed="1.1336303" id="327" type="bicycle">
		<route edges="537 514"/>
	</vehicle>
	<vehicle depart="0.1" departLane="0" departPos="15.741398857079105" departSpeed="0.010193943" id="338" type="bus">
		<route edges="517 538"/>
	</vehicle>
	<vehicle depart="0.1" departLane="0" departPos="53.53799253987255" departSpeed="0.0" id="35" type="passenger">
		<route edges="517 538"/>
	</vehicle>
	<vehicle depart="0.1" departLane="0" departPos="70.30296997271086" departSpeed="0.0" id="36" type="passenger">
		<route edges="517 538"/>
	</vehicle>
	<vehicle depart="0.1" departLane="0" departPos="18.9520979980291" departSpeed="0.0" id="37" type="passenger">
		<route edges="511 169"/>
	</vehicle>
	<vehicle depart="0.1" departLane="0" departPos="2.5" departSpeed="0.73998355" id="310" type="passenger">
		<route edges="511 169"/>
	</vehicle>
	<vehicle depart="0.1" departLane="0" departPos="11.7428523358876" departSpeed="0.0" id="313" type="passenger">
		<route edges="511 169"/>
	</vehicle>
	<vehicle depart="0.1" departLane="0" departPos="46.4014363447456" departSpeed="1.4732635e-05" id="315" type="passenger">
		<route edges="517 538"/>
	</vehicle>
	<vehicle depart="0.1" departLane="0" departPos="55.80629857912625" departSpeed="0.0" id="317" type="passenger">
		<route edges="537 514"/>
	</vehicle>
	<vehicle depart="0.1" departLane="0" departPos="7.115999157582345" departSpeed="5.2264348" id="318" type="passenger">
		<route edges=":36_4 538 511"/>
	</vehicle>
	<vehicle depart="0.1" departLane="0" departPos="39.37842229773387" departSpeed="0.0001351543" id="319" type="passenger">
		<route edges="517 538"/>
	</vehicle>
	<vehicle depart="0.1" departLane="0" departPos="26.50551385042455" departSpeed="13.665904" id="321" type="passenger">
		<route edges="176"/>
	</vehicle>
	<vehicle depart="0.1" departLane="0" departPos="2.5" departSpeed="6.3689777" id="322" type="passenger">
		<route edges="515 518"/>
	</vehicle>
	<vehicle depart="0.1" departLane="0" departPos="70.25500819680445" departSpeed="0.0" id="323" type="passenger">
		<route edges="175 515"/>
	</vehicle>
	<vehicle depart="0.1" departLane="0" departPos="48.67707542402272" departSpeed="0.0034113917" id="324" type="passenger">
		<route edges="537 514"/>
	</vehicle>
	<vehicle depart="0.1" departLane="0" departPos="56.46904350399639" departSpeed="8.4939504" id="326" type="passenger">
		<route edges="173 176"/>
	</vehicle>
	<vehicle depart="0.1" departLane="0" departPos="63.10587811557913" departSpeed="0.00092395857" id="328" type="passenger">
		<route edges="175 515"/>
	</vehicle>
	<vehicle depart="0.1" departLane="0" departPos="41.58105934263471" departSpeed="8.0693361" id="329" type="passenger">
		<route edges="173 176"/>
	</vehicle>
	<vehicle depart="0.1" departLane="0" departPos="22.6615904797922" departSpeed="0.0028671726" id="330" type="passenger">
		<route edges="517 538"/>
	</vehicle>
	<vehicle depart="0.1" departLane="0" departPos="55.5986951438611" departSpeed="0.013692515" id="331" type="passenger">
		<route edges="175 515"/>
	</vehicle>
	<vehicle depart="0.1" departLane="0" departPos="20.248277432317796" departSpeed="5.3047238" id="332" type="passenger">
		<route edges="512 541"/>
	</vehicle>
	<vehicle depart="0.1" departLane="0" departPos="41.18861889002751" departSpeed="0.42628116" id="333" type="passenger">
		<route edges="537 514"/>
	</vehicle>
	<vehicle depart="0.1" departLane="0" departPos="2.5" departSpeed="10.258961" id="335" type="passenger">
		<route edges="173 176"/>
	</vehicle>
	<vehicle depart="0.1" departLane="0" departPos="31.902204640769593" departSpeed="2.3406848" id="336" type="passenger">
		<route edges="537 514"/>
	</vehicle>
	<vehicle depart="0.1" departLane="0" departPos="43.444224558569296" departSpeed="0.38289932" id="337" type="passenger">
		<route edges="175 515"/>
	</vehicle>
	<vehicle depart="0.1" departLane="0" departPos="2.5" departSpeed="9.7714364" id="340" type="passenger">
		<route edges=":33_5 173 515 518"/>
	</vehicle>
	<vehicle depart="0.1" departLane="0" departPos="35.195746060096646" departSpeed="1.0705584" id="341" type="passenger">
		<route edges="175 515"/>
	</vehicle>
	<vehicle depart="0.1" departLane="0" departPos="56.22989104507972" departSpeed="9.9427833" id="342" type="passenger">
		<route edges="170 173 176"/>
	</vehicle>
	<vehicle depart="0.1" departLane="0" departPos="30.779482107327055" departSpeed="0.0" id="343" type="passenger">
		<route edges="540 511"/>
	</vehicle>
	<vehicle depart="0.1" departLane="0" departPos="34.56726575435446" departSpeed="9.1878786" id="346" type="passenger">
		<route edges="170 173 176"/>
	</vehicle>
	<vehicle depart="0.1" departLane="0" departPos="17.12420081123909" departSpeed="5.8134898" id="348" type="passenger">
		<route edges="170 173 176"/>
	</vehicle>
	<vehicle depart="0.1" departLane="0" departPos="13.760664160429847" departSpeed="2.9418784" id="349" type="passenger">
		<route edges="540 511"/>
	</vehicle>
	<vehicle depart="0.1" departLane="0" departPos="7.367584994497055" departSpeed="2.5736808" id="351" type="passenger">
		<route edges="170 173 176"/>
	</vehicle>
	<vehicle depart="0.1" departLane="0" departPos="48.41715850868085" departSpeed="0.092499269" id="334" type="motorcycle">
		<route edges="175 515"/>
	</vehicle>
	<vehicle depart="0.1" departLane="0" departPos="16.535086592733066" departSpeed="5.8774513" id="339" type="motorcycle">
		<route edges="537 514"/>
	</vehicle>
	<vehicle depart="0.1" departLane="0" departPos="21.667666643172588" departSpeed="1.8476378" id="345" type="motorcycle">
		<route edges="540 511"/>
	</vehicle>
	<vehicle depart="0.1" departLane="0" departPos="18.476978302029018" departSpeed="0.0" id="30" type="truck">
		<route edges="514 172"/>
	</vehicle>
	<vehicle depart="0.1" departLane="0" departPos="63.350132312879275" departSpeed="0.0" id="311" type="truck">
		<route edges="517 538"/>
	</vehicle>
	<vehicle depart="0.1" departLane="0" departPos="32.14847370140023" departSpeed="0.0006993293" id="325" type="truck">
		<route edges="517 538"/>
	</vehicle>
</routes>
