<!-- generated on Tue Feb  9 22:05:35 2021 by Eclipse SUMO netconvert Version 1.8.0
<configuration xmlns:xsi="http://www.w3.org/2001/XMLSchema-instance" xsi:noNamespaceSchemaLocation="http://sumo.dlr.de/xsd/netconvertConfiguration.xsd">

    <input>
        <node-files value="./converted_scenarios/scenario-factory/HRV_Pula-4_5_I-1-1/HRV_Pula-4_5_I-1-1.nod.xml"/>
        <edge-files value="./converted_scenarios/scenario-factory/HRV_Pula-4_5_I-1-1/HRV_Pula-4_5_I-1-1.edg.xml"/>
        <connection-files value="./converted_scenarios/scenario-factory/HRV_Pula-4_5_I-1-1/HRV_Pula-4_5_I-1-1.con.xml"/>
        <tllogic-files value="./converted_scenarios/scenario-factory/HRV_Pula-4_5_I-1-1/HRV_Pula-4_5_I-1-1.tll.xml"/>
        <type-files value="/home/zen/commonroad-interactive-benchmarks/install/commonroad-map-tool/crmapconverter/sumo_map/templates/DEU.typ.xml"/>
    </input>

    <output>
        <output-file value="./converted_scenarios/scenario-factory/HRV_Pula-4_5_I-1-1/HRV_Pula-4_5_I-1-1.net.xml"/>
    </output>

    <processing>
        <geometry.remove.keep-edges.explicit value="true"/>
        <geometry.avoid-overlap value="true"/>
        <offset.disable-normalization value="true"/>
    </processing>

    <junctions>
        <no-turnarounds value="true"/>
        <junctions.internal-link-detail value="20"/>
    </junctions>

    <report>
        <aggregate-warnings value="5"/>
    </report>

    <random_number>
        <seed value="1234"/>
    </random_number>

</configuration>
--><net xmlns:xsi="http://www.w3.org/2001/XMLSchema-instance" version="1.6" junctionCornerDetail="5" junctionLinkDetail="20" limitTurnSpeed="5.50" xsi:noNamespaceSchemaLocation="http://sumo.dlr.de/xsd/net_file.xsd">

    <location netOffset="0.00,0.00" convBoundary="-249.70,337.52,-43.85,631.05" origBoundary="-249.70,337.52,-43.85,631.05" projParameter="!"/>

    <type id="highway.bridleway" priority="1" speed="2.78" allow="pedestrian" oneway="1" width="2.00"/>
    <type id="highway.bus_guideway" priority="1" speed="27.78" allow="bus" oneway="1"/>
    <type id="highway.cycleway" priority="1" speed="8.33" allow="bicycle" oneway="0" width="1.00"/>
    <type id="highway.footway" priority="1" speed="2.78" allow="pedestrian" oneway="1" width="2.00"/>
    <type id="highway.ford" priority="1" speed="2.78" allow="army" oneway="0"/>
    <type id="highway.living_street" priority="2" speed="2.78" disallow="tram rail_urban rail rail_electric rail_fast ship" oneway="0"/>
    <type id="highway.motorway" priority="14" speed="39.44" allow="private emergency authority army vip passenger hov taxi bus coach delivery truck trailer motorcycle evehicle custom1 custom2" oneway="1"/>
    <type id="highway.motorway_link" priority="9" speed="22.22" allow="private emergency authority army vip passenger hov taxi bus coach delivery truck trailer motorcycle evehicle custom1 custom2" oneway="1"/>
    <type id="highway.path" priority="1" speed="2.78" allow="pedestrian bicycle" oneway="0" width="2.00"/>
    <type id="highway.pedestrian" priority="1" speed="2.78" allow="pedestrian" oneway="1" width="2.00"/>
    <type id="highway.primary" priority="12" speed="27.78" disallow="pedestrian tram rail_urban rail rail_electric rail_fast ship" oneway="0"/>
    <type id="highway.primary_link" priority="7" speed="22.22" disallow="pedestrian tram rail_urban rail rail_electric rail_fast ship" oneway="0"/>
    <type id="highway.raceway" priority="15" speed="83.33" allow="vip" oneway="0"/>
    <type id="highway.residential" priority="3" speed="13.89" disallow="pedestrian tram rail_urban rail rail_electric rail_fast ship" oneway="0"/>
    <type id="highway.secondary" priority="11" speed="27.78" disallow="pedestrian tram rail_urban rail rail_electric rail_fast ship" oneway="0"/>
    <type id="highway.secondary_link" priority="6" speed="22.22" disallow="pedestrian tram rail_urban rail rail_electric rail_fast ship" oneway="0"/>
    <type id="highway.service" priority="1" speed="5.56" allow="pedestrian delivery bicycle" oneway="0"/>
    <type id="highway.stairs" priority="1" speed="1.39" allow="pedestrian" oneway="1" width="2.00"/>
    <type id="highway.step" priority="1" speed="1.39" allow="pedestrian" oneway="1" width="2.00"/>
    <type id="highway.steps" priority="1" speed="1.39" allow="pedestrian" oneway="1" width="2.00"/>
    <type id="highway.tertiary" priority="10" speed="22.22" disallow="pedestrian tram rail_urban rail rail_electric rail_fast ship" oneway="0"/>
    <type id="highway.tertiary_link" priority="5" speed="22.22" disallow="pedestrian tram rail_urban rail rail_electric rail_fast ship" oneway="0"/>
    <type id="highway.track" priority="1" speed="5.56" allow="pedestrian motorcycle moped bicycle" oneway="0"/>
    <type id="highway.trunk" priority="13" speed="27.78" disallow="pedestrian bicycle tram rail_urban rail rail_electric rail_fast ship" oneway="0"/>
    <type id="highway.trunk_link" priority="8" speed="22.22" disallow="pedestrian bicycle tram rail_urban rail rail_electric rail_fast ship" oneway="0"/>
    <type id="highway.unclassified" priority="4" speed="13.89" disallow="pedestrian tram rail_urban rail rail_electric rail_fast ship" oneway="0"/>
    <type id="highway.unsurfaced" priority="1" speed="8.33" disallow="tram rail_urban rail rail_electric rail_fast ship" oneway="0"/>
    <type id="railway.highspeed" priority="21" speed="69.44" allow="rail_fast" oneway="1"/>
    <type id="railway.light_rail" priority="19" speed="27.78" allow="rail_urban" oneway="1"/>
    <type id="railway.preserved" priority="16" speed="27.78" allow="rail" oneway="1"/>
    <type id="railway.rail" priority="20" speed="44.44" allow="rail" oneway="1"/>
    <type id="railway.subway" priority="18" speed="27.78" allow="rail_urban" oneway="1"/>
    <type id="railway.tram" priority="17" speed="13.89" allow="tram" oneway="1"/>

    <edge id=":37_0" function="internal">
        <lane id=":37_0_0" index="0" disallow="pedestrian tram rail_urban rail rail_electric rail_fast ship" speed="9.73" length="21.13" width="3.50" shape="-170.89,540.55 -172.00,543.08 -172.21,542.48 -172.63,541.83 -173.20,541.15 -173.88,540.47 -174.63,539.81 -176.30,538.53 -179.02,536.76 -181.85,535.12 -186.73,532.60"/>
    </edge>
    <edge id=":37_1" function="internal">
        <lane id=":37_1_0" index="0" disallow="pedestrian tram rail_urban rail rail_electric rail_fast ship" speed="36.11" length="20.89" width="3.50" shape="-170.89,540.55 -166.89,532.52 -161.62,521.83"/>
    </edge>
    <edge id=":37_2" function="internal">
        <lane id=":37_2_0" index="0" disallow="pedestrian tram rail_urban rail rail_electric rail_fast ship" speed="36.11" length="24.64" width="3.42" shape="-158.49,523.38 -163.75,534.06 -169.36,545.49"/>
    </edge>
    <edge id=":37_3" function="internal">
        <lane id=":37_3_0" index="0" disallow="pedestrian tram rail_urban rail rail_electric rail_fast ship" speed="12.18" length="33.96" width="3.50" shape="-158.49,523.38 -159.07,524.52 -160.36,526.69 -161.85,528.79 -163.59,530.74 -165.57,532.45 -166.70,533.23 -167.87,533.90 -169.10,534.47 -170.37,534.93 -171.68,535.27 -173.01,535.50 -174.34,535.63 -175.70,535.64 -178.29,535.40 -180.83,534.86 -183.28,534.08 -186.73,532.60"/>
    </edge>
    <edge id=":37_4" function="internal">
        <lane id=":37_4_0" index="0" disallow="pedestrian tram rail_urban rail rail_electric rail_fast ship" speed="11.17" length="28.41" width="3.50" shape="-185.21,529.45 -182.20,530.74 -180.12,531.41 -177.98,531.87 -175.80,532.07 -174.71,532.06 -173.62,531.96 -172.55,531.78 -171.49,531.50 -170.46,531.13 -169.47,530.68 -168.52,530.14 -167.61,529.52 -165.96,528.09 -164.50,526.46 -163.23,524.68 -162.13,522.80 -161.62,521.83"/>
    </edge>
    <edge id=":37_5" function="internal">
        <lane id=":37_5_0" index="0" disallow="pedestrian tram rail_urban rail rail_electric rail_fast ship" speed="10.51" length="24.69" width="3.42" shape="-185.21,529.45 -179.64,532.37 -176.41,534.31 -173.33,536.49 -171.43,538.13 -170.56,539.04 -169.78,540.03 -169.14,541.11 -168.73,542.29 -168.66,543.54 -169.36,545.49"/>
    </edge>
    <edge id=":38_0" function="internal">
        <lane id=":38_0_0" index="0" disallow="pedestrian tram rail_urban rail rail_electric rail_fast ship" speed="11.02" length="29.04" width="3.50" shape="-112.93,430.44 -115.22,430.11 -117.50,429.97 -119.75,430.07 -121.95,430.46 -122.96,430.76 -123.96,431.15 -124.91,431.62 -125.81,432.18 -126.66,432.82 -127.44,433.54 -128.16,434.34 -128.81,435.20 -129.39,436.09 -130.42,438.11 -131.20,440.23 -131.78,442.45 -132.38,445.94"/>
    </edge>
    <edge id=":38_1" function="internal">
        <lane id=":38_1_0" index="0" disallow="pedestrian tram rail_urban rail rail_electric rail_fast ship" speed="12.99" length="34.49" width="3.50" shape="-112.93,430.44 -115.38,429.92 -118.93,428.84 -121.28,427.86 -123.54,426.65 -125.65,425.18 -127.58,423.42 -129.25,421.40 -130.61,419.17 -131.65,416.78 -132.36,414.30 -132.79,411.79 -132.97,409.27 -132.95,406.78"/>
    </edge>
    <edge id=":38_2" function="internal">
        <lane id=":38_2_0" index="0" disallow="pedestrian tram rail_urban rail rail_electric rail_fast ship" speed="12.03" length="29.45" width="3.50" shape="-129.46,406.91 -129.47,409.10 -129.32,411.28 -128.95,413.42 -128.34,415.52 -127.46,417.51 -126.32,419.37 -124.93,421.04 -123.31,422.50 -121.51,423.74 -119.59,424.77 -117.57,425.60 -114.44,426.54 -112.30,426.99"/>
    </edge>
    <edge id=":38_3" function="internal">
        <lane id=":38_3_0" index="0" disallow="pedestrian tram rail_urban rail rail_electric rail_fast ship" speed="36.11" length="39.15" width="3.50" shape="-129.46,406.91 -130.43,424.39 -131.49,437.72 -132.38,445.94"/>
    </edge>
    <edge id=":38_4" function="internal">
        <lane id=":38_4_0" index="0" disallow="pedestrian tram rail_urban rail rail_electric rail_fast ship" speed="36.11" length="38.83" width="3.50" shape="-135.85,445.49 -134.97,437.38 -133.92,424.13 -132.95,406.78"/>
    </edge>
    <edge id=":38_5" function="internal">
        <lane id=":38_5_0" index="0" disallow="pedestrian tram rail_urban rail rail_electric rail_fast ship" speed="12.03" length="34.82" width="3.50" shape="-135.85,445.49 -135.17,441.52 -134.48,438.94 -133.55,436.43 -132.33,434.04 -131.60,432.92 -130.78,431.86 -129.88,430.87 -128.89,429.97 -127.82,429.16 -126.68,428.47 -125.48,427.87 -124.23,427.39 -122.94,427.02 -120.31,426.57 -117.63,426.45 -114.96,426.61 -112.30,426.99"/>
    </edge>
    <edge id=":39_0" function="internal">
        <lane id=":39_0_0" index="0" disallow="pedestrian tram rail_urban rail rail_electric rail_fast ship" speed="10.98" length="28.92" width="3.50" shape="-126.49,498.95 -129.61,497.36 -131.71,496.55 -133.87,495.97 -136.07,495.68 -137.11,495.67 -138.17,495.75 -139.22,495.92 -140.23,496.20 -141.22,496.56 -142.18,497.03 -143.09,497.57 -143.95,498.18 -145.60,499.68 -147.06,501.38 -148.35,503.24 -150.06,506.32"/>
    </edge>
    <edge id=":39_1" function="internal">
        <lane id=":39_1_0" index="0" disallow="pedestrian tram rail_urban rail rail_electric rail_fast ship" speed="14.04" length="33.92" width="3.50" shape="-126.49,498.95 -127.55,498.32 -130.48,496.31 -133.20,493.99 -134.89,492.22 -136.39,490.31 -137.70,488.24 -138.78,486.03 -139.61,483.71 -140.18,481.32 -140.49,478.90 -140.57,476.47 -140.43,474.05 -139.89,470.53"/>
    </edge>
    <edge id=":39_2" function="internal">
        <lane id=":39_2_0" index="0" disallow="pedestrian tram rail_urban rail rail_electric rail_fast ship" speed="13.13" length="29.56" width="3.50" shape="-136.45,471.18 -136.94,474.35 -137.06,476.46 -136.99,478.57 -136.71,480.66 -136.22,482.71 -135.51,484.69 -134.58,486.58 -133.45,488.36 -132.14,490.01 -130.68,491.54 -128.27,493.59 -125.66,495.37 -124.76,495.91"/>
    </edge>
    <edge id=":39_3" function="internal">
        <lane id=":39_3_0" index="0" disallow="pedestrian tram rail_urban rail rail_electric rail_fast ship" speed="36.11" length="37.77" width="3.50" shape="-136.45,471.18 -137.73,476.31 -139.65,482.29 -142.26,489.13 -146.00,497.78 -150.06,506.32"/>
    </edge>
    <edge id=":39_4" function="internal">
        <lane id=":39_4_0" index="0" disallow="pedestrian tram rail_urban rail rail_electric rail_fast ship" speed="36.11" length="36.82" width="3.50" shape="-153.20,504.77 -149.21,496.38 -145.53,487.90 -142.98,481.22 -141.11,475.41 -139.89,470.53"/>
    </edge>
    <edge id=":39_5" function="internal">
        <lane id=":39_5_0" index="0" disallow="pedestrian tram rail_urban rail rail_electric rail_fast ship" speed="11.99" length="34.73" width="3.50" shape="-153.20,504.77 -151.24,501.24 -149.71,499.05 -147.97,497.03 -145.99,495.24 -144.91,494.46 -143.76,493.78 -142.56,493.20 -141.31,492.73 -140.02,492.39 -138.70,492.17 -137.37,492.07 -136.04,492.09 -133.39,492.44 -130.81,493.13 -128.32,494.09 -124.76,495.91"/>
    </edge>
    <edge id=":40_0" function="internal">
        <lane id=":40_0_0" index="0" disallow="pedestrian tram rail_urban rail rail_electric rail_fast ship" speed="10.86" length="29.11" width="3.50" shape="-156.67,560.41 -158.69,559.23 -160.77,558.23 -162.90,557.44 -165.09,556.94 -166.15,556.82 -167.22,556.78 -168.29,556.84 -169.33,557.01 -170.36,557.28 -171.35,557.65 -172.30,558.12 -173.22,558.68 -174.08,559.30 -175.73,560.82 -177.19,562.56 -178.49,564.45 -180.20,567.56"/>
    </edge>
    <edge id=":40_1" function="internal">
        <lane id=":40_1_0" index="0" disallow="pedestrian tram rail_urban rail rail_electric rail_fast ship" speed="11.46" length="27.25" width="3.46" shape="-156.67,560.41 -161.33,557.36 -164.96,554.74 -167.59,552.59 -169.29,550.99 -170.85,549.21 -171.57,548.14 -172.16,546.90 -172.48,545.43 -170.97,540.73"/>
    </edge>
    <edge id=":40_2" function="internal">
        <lane id=":40_2_0" index="0" disallow="pedestrian tram rail_urban rail rail_electric rail_fast ship" speed="9.66" length="18.94" width="3.50" shape="-169.45,545.68 -169.13,545.93 -168.68,546.79 -168.08,547.56 -167.42,548.28 -165.98,549.60 -164.47,550.83 -162.12,552.58 -158.91,554.79 -154.81,557.44"/>
    </edge>
    <edge id=":40_3" function="internal">
        <lane id=":40_3_0" index="0" disallow="pedestrian tram rail_urban rail rail_electric rail_fast ship" speed="36.11" length="24.38" width="3.50" shape="-169.45,545.68 -174.66,556.25 -180.20,567.56"/>
    </edge>
    <edge id=":40_4" function="internal">
        <lane id=":40_4_0" index="0" disallow="pedestrian tram rail_urban rail rail_electric rail_fast ship" speed="36.11" length="28.16" width="3.46" shape="-183.35,566.02 -177.80,554.71 -170.97,540.73"/>
    </edge>
    <edge id=":40_5" function="internal">
        <lane id=":40_5_0" index="0" disallow="pedestrian tram rail_urban rail rail_electric rail_fast ship" speed="11.88" length="35.10" width="3.50" shape="-183.35,566.02 -181.37,562.45 -179.85,560.22 -178.11,558.16 -176.12,556.34 -175.03,555.54 -173.88,554.85 -172.67,554.26 -171.40,553.79 -170.10,553.45 -168.76,553.24 -167.42,553.17 -166.07,553.21 -164.73,553.37 -162.10,553.98 -159.57,554.91 -157.14,556.08 -154.81,557.44"/>
    </edge>

    <edge id="10487" from="37" to="14" priority="3" type="highway.residential" spreadType="center" length="70.01" shape="-172.86,534.19 -249.70,502.01">
        <lane id="10487_0" index="0" disallow="pedestrian tram rail_urban rail rail_electric rail_fast ship" speed="36.11" length="70.01" width="3.50" customShape="1" shape="-186.73,532.60 -244.02,504.83 -249.70,502.01"/>
    </edge>
    <edge id="10488" from="21" to="37" priority="3" type="highway.residential" spreadType="center" length="70.00" shape="-248.17,498.86 -171.50,530.97">
        <lane id="10488_0" index="0" disallow="pedestrian tram rail_urban rail rail_electric rail_fast ship" speed="36.11" length="70.00" width="3.50" customShape="1" shape="-248.17,498.86 -242.61,501.62 -185.21,529.45"/>
    </edge>
    <edge id="10538" from="35" to="38" priority="3" type="highway.residential" spreadType="center" length="70.03" shape="-44.47,444.97 -126.35,428.80">
        <lane id="10538_0" index="0" disallow="pedestrian tram rail_urban rail rail_electric rail_fast ship" speed="36.11" length="70.03" width="3.50" customShape="1" shape="-44.47,444.97 -61.72,441.58 -74.41,438.86 -87.98,435.49 -98.22,433.23 -112.96,430.43"/>
    </edge>
    <edge id="10539" from="38" to="29" priority="3" type="highway.residential" spreadType="center" length="69.99" shape="-125.67,425.37 -43.85,441.53">
        <lane id="10539_0" index="0" disallow="pedestrian tram rail_urban rail rail_electric rail_fast ship" speed="36.11" length="69.99" width="3.50" customShape="1" shape="-112.30,426.99 -97.34,429.84 -86.92,432.15 -73.16,435.56 -60.33,438.29 -43.85,441.53"/>
    </edge>
    <edge id="10556" from="40" to="26" priority="3" type="highway.residential" spreadType="center" length="70.00" shape="-167.87,557.50 -209.51,631.05">
        <lane id="10556_0" index="0" disallow="pedestrian tram rail_urban rail rail_electric rail_fast ship" speed="36.11" length="70.00" width="3.50" customShape="1" shape="-180.20,567.56 -196.53,600.90 -202.34,612.58 -205.40,619.47 -207.73,625.56 -209.51,631.05"/>
    </edge>
    <edge id="10557" from="34" to="40" priority="3" type="highway.residential" spreadType="center" length="70.01" shape="-212.68,629.47 -170.92,555.78">
        <lane id="10557_0" index="0" disallow="pedestrian tram rail_urban rail rail_electric rail_fast ship" speed="36.11" length="70.01" width="3.50" customShape="1" shape="-212.68,629.47 -211.05,624.44 -208.68,618.23 -205.58,611.24 -199.74,599.48 -183.33,565.99"/>
    </edge>
    <edge id="10559" from="37" to="40" priority="3" type="highway.residential" spreadType="center" length="0.21" shape="-170.52,532.37 -167.70,556.59">
        <lane id="10559_0" index="0" disallow="pedestrian tram rail_urban rail rail_electric rail_fast ship" speed="36.11" length="0.21" width="3.42" customShape="1" shape="-169.36,545.49 -169.45,545.68"/>
    </edge>
    <edge id="10560" from="40" to="37" priority="3" type="highway.residential" spreadType="center" length="0.20" shape="-171.11,556.99 -173.93,532.76">
        <lane id="10560_0" index="0" disallow="pedestrian tram rail_urban rail rail_electric rail_fast ship" speed="36.11" length="0.20" width="3.46" customShape="1" shape="-170.97,540.73 -170.89,540.55"/>
    </edge>
    <edge id="10562" from="39" to="37" priority="3" type="highway.residential" spreadType="center" length="19.04" shape="-137.08,492.34 -170.86,533.67">
        <lane id="10562_0" index="0" disallow="pedestrian tram rail_urban rail rail_electric rail_fast ship" speed="36.11" length="19.04" width="3.50" customShape="1" shape="-150.06,506.32 -154.27,514.83 -158.49,523.39"/>
    </edge>
    <edge id="10563" from="37" to="39" priority="3" type="highway.residential" spreadType="center" length="19.05" shape="-173.57,531.46 -139.79,490.13">
        <lane id="10563_0" index="0" disallow="pedestrian tram rail_urban rail rail_electric rail_fast ship" speed="36.11" length="19.05" width="3.50" customShape="1" shape="-161.62,521.83 -157.41,513.28 -153.19,504.75"/>
    </edge>
    <edge id="10565" from="38" to="39" priority="3" type="highway.residential" spreadType="center" length="25.62" shape="-124.26,427.43 -136.77,491.66">
        <lane id="10565_0" index="0" disallow="pedestrian tram rail_urban rail rail_electric rail_fast ship" speed="36.11" length="25.62" width="3.50" customShape="1" shape="-132.38,445.94 -132.96,450.49 -134.56,461.14 -136.46,471.23"/>
    </edge>
    <edge id="10566" from="39" to="38" priority="3" type="highway.residential" spreadType="center" length="25.37" shape="-140.20,490.99 -127.70,426.76">
        <lane id="10566_0" index="0" disallow="pedestrian tram rail_urban rail rail_electric rail_fast ship" speed="36.11" length="25.37" width="3.50" customShape="1" shape="-139.89,470.53 -138.01,460.55 -136.42,450.01 -135.85,445.49"/>
    </edge>
    <edge id="10568" from="36" to="38" priority="3" type="highway.residential" spreadType="center" length="70.00" shape="-134.16,337.59 -124.24,426.93">
        <lane id="10568_0" index="0" disallow="pedestrian tram rail_urban rail rail_electric rail_fast ship" speed="36.11" length="70.00" width="3.50" customShape="1" shape="-134.16,337.59 -132.86,341.03 -131.25,346.41 -130.25,350.89 -129.56,355.94 -128.87,365.10 -128.64,372.24 -128.82,389.58 -129.46,406.92"/>
    </edge>
    <edge id="10569" from="38" to="31" priority="3" type="highway.residential" spreadType="center" length="69.99" shape="-127.71,427.32 -137.92,337.52">
        <lane id="10569_0" index="0" disallow="pedestrian tram rail_urban rail rail_electric rail_fast ship" speed="36.11" length="69.99" width="3.50" customShape="1" shape="-132.95,406.78 -132.32,389.62 -132.14,372.50 -132.35,365.50 -133.02,356.51 -133.67,351.63 -134.62,347.32 -136.19,342.12 -137.92,337.52"/>
    </edge>
    <edge id="10642" from="30" to="40" priority="3" type="highway.residential" spreadType="center" length="60.29" shape="-105.64,592.52 -170.27,558.19">
        <lane id="10642_0" index="0" disallow="pedestrian tram rail_urban rail rail_electric rail_fast ship" speed="36.11" length="60.29" width="3.50" customShape="1" shape="-105.64,592.52 -131.16,576.46 -156.67,560.41"/>
    </edge>
    <edge id="10643" from="40" to="25" priority="3" type="highway.residential" spreadType="center" length="60.31" shape="-168.63,555.11 -103.77,589.56">
        <lane id="10643_0" index="0" disallow="pedestrian tram rail_urban rail rail_electric rail_fast ship" speed="36.11" length="60.31" width="3.50" customShape="1" shape="-154.81,557.44 -129.29,573.50 -103.77,589.56"/>
    </edge>
    <edge id="10717" from="17" to="39" priority="3" type="highway.residential" spreadType="center" length="70.02" shape="-65.91,534.02 -139.36,492.79">
        <lane id="10717_0" index="0" disallow="pedestrian tram rail_urban rail rail_electric rail_fast ship" speed="36.11" length="70.02" width="3.50" customShape="1" shape="-65.91,534.02 -80.18,525.76 -126.51,498.94"/>
    </edge>
    <edge id="10718" from="39" to="3" priority="3" type="highway.residential" spreadType="center" length="70.01" shape="-137.65,489.74 -64.17,530.98">
        <lane id="10718_0" index="0" disallow="pedestrian tram rail_urban rail rail_electric rail_fast ship" speed="36.11" length="70.01" width="3.50" customShape="1" shape="-124.76,495.91 -78.42,522.73 -64.17,530.98"/>
    </edge>

    <junction id="14" type="dead_end" x="-249.70" y="502.01" incLanes="10487_0" intLanes="" shape="-250.48,503.57 -248.92,500.44" rightOfWay="edgePriority"/>
    <junction id="17" type="dead_end" x="-65.91" y="534.02" incLanes="" intLanes="" shape="-65.03,532.51 -66.78,535.53" rightOfWay="edgePriority"/>
    <junction id="21" type="dead_end" x="-248.17" y="498.86" incLanes="" intLanes="" shape="-248.95,500.42 -247.39,497.29" rightOfWay="edgePriority"/>
    <junction id="25" type="dead_end" x="-103.77" y="589.56" incLanes="10643_0" intLanes="" shape="-102.84,588.08 -104.71,591.04" rightOfWay="edgePriority"/>
    <junction id="26" type="dead_end" x="-209.51" y="631.05" incLanes="10556_0" intLanes="" shape="-207.85,631.59 -211.17,630.51" rightOfWay="edgePriority"/>
    <junction id="29" type="dead_end" x="-43.85" y="441.53" incLanes="10539_0" intLanes="" shape="-43.51,439.82 -44.18,443.25" rightOfWay="edgePriority"/>
    <junction id="3" type="dead_end" x="-64.17" y="530.98" incLanes="10718_0" intLanes="" shape="-63.30,529.47 -65.05,532.49" rightOfWay="edgePriority"/>
    <junction id="30" type="dead_end" x="-105.64" y="592.52" incLanes="" intLanes="" shape="-104.71,591.04 -106.57,594.00" rightOfWay="edgePriority"/>
    <junction id="31" type="dead_end" x="-137.92" y="337.52" incLanes="10569_0" intLanes="" shape="-139.56,338.13 -136.29,336.90" rightOfWay="edgePriority"/>
    <junction id="34" type="dead_end" x="-212.68" y="629.47" incLanes="" intLanes="" shape="-211.01,630.01 -214.34,628.93" rightOfWay="edgePriority"/>
    <junction id="35" type="dead_end" x="-44.47" y="444.97" incLanes="" intLanes="" shape="-44.13,443.25 -44.81,446.69" rightOfWay="edgePriority"/>
    <junction id="36" type="dead_end" x="-134.16" y="337.59" incLanes="" intLanes="" shape="-135.79,338.21 -132.52,336.98" rightOfWay="edgePriority"/>
    <junction id="37" type="priority" x="-172.21" y="532.57" incLanes="10560_0 10562_0 10488_0" intLanes=":37_0_0 :37_1_0 :37_2_0 :37_3_0 :37_4_0 :37_5_0" shape="-174.34,543.86 -168.15,546.95 -156.92,524.15 -163.19,521.05 -165.68,525.08 -168.59,527.95 -171.92,529.67 -175.67,530.22 -179.85,529.63 -184.44,527.87 -187.50,534.17">
        <request index="0" response="000000" foes="001000" cont="0"/>
        <request index="1" response="000000" foes="111000" cont="0"/>
        <request index="2" response="000000" foes="100000" cont="0"/>
        <request index="3" response="000011" foes="100011" cont="0"/>
        <request index="4" response="000010" foes="000010" cont="0"/>
        <request index="5" response="001110" foes="001110" cont="0"/>
    </junction>
    <junction id="38" type="priority" x="-125.98" y="427.09" incLanes="10538_0 10568_0 10566_0" intLanes=":38_0_0 :38_1_0 :38_2_0 :38_3_0 :38_4_0 :38_5_0" shape="-113.28,432.15 -111.98,425.27 -116.94,423.91 -120.96,421.87 -124.05,419.15 -126.21,415.76 -127.42,411.71 -127.71,406.97 -134.70,406.72 -134.99,414.95 -135.22,421.04 -135.49,426.05 -135.91,431.05 -136.57,437.10 -137.58,445.27 -130.64,446.16 -129.56,441.08 -127.76,437.09 -125.22,434.21 -121.97,432.42 -117.99,431.74">
        <request index="0" response="001000" foes="001000" cont="0"/>
        <request index="1" response="111000" foes="111000" cont="0"/>
        <request index="2" response="000000" foes="100000" cont="0"/>
        <request index="3" response="000000" foes="100011" cont="0"/>
        <request index="4" response="000000" foes="000010" cont="0"/>
        <request index="5" response="001100" foes="001110" cont="0"/>
    </junction>
    <junction id="39" type="priority" x="-138.47" y="491.28" incLanes="10717_0 10565_0 10563_0" intLanes=":39_0_0 :39_1_0 :39_2_0 :39_3_0 :39_4_0 :39_5_0" shape="-127.39,500.46 -123.88,494.40 -127.98,491.57 -131.16,488.34 -133.43,484.72 -134.78,480.71 -135.21,476.30 -134.73,471.50 -141.61,470.21 -143.19,477.77 -144.73,483.27 -146.44,487.69 -148.54,491.97 -151.24,497.08 -154.77,503.99 -148.49,507.09 -145.90,502.83 -142.93,499.84 -139.60,498.10 -135.90,497.63 -131.83,498.41">
        <request index="0" response="001000" foes="001000" cont="0"/>
        <request index="1" response="111000" foes="111000" cont="0"/>
        <request index="2" response="000000" foes="100000" cont="0"/>
        <request index="3" response="000000" foes="100011" cont="0"/>
        <request index="4" response="000000" foes="000010" cont="0"/>
        <request index="5" response="001100" foes="001110" cont="0"/>
    </junction>
    <junction id="40" type="priority" x="-169.41" y="556.67" incLanes="10642_0 10559_0 10557_0" intLanes=":40_0_0 :40_1_0 :40_2_0 :40_3_0 :40_4_0 :40_5_0" shape="-157.61,561.89 -153.88,555.96 -164.20,538.91 -170.63,535.91 -184.92,565.25 -178.63,568.33 -176.00,563.97 -173.02,560.93 -169.69,559.20 -166.01,558.78 -161.99,559.68">
        <request index="0" response="001000" foes="001000" cont="0"/>
        <request index="1" response="111000" foes="111000" cont="0"/>
        <request index="2" response="000000" foes="100000" cont="0"/>
        <request index="3" response="000000" foes="100011" cont="0"/>
        <request index="4" response="000000" foes="000010" cont="0"/>
        <request index="5" response="001100" foes="001110" cont="0"/>
    </junction>

    <connection from="10488" to="10563" fromLane="0" toLane="0" contPos="-4.00" shape="-185.21,529.45 -182.20,530.74 -180.12,531.41 -177.98,531.87 -175.80,532.07 -174.71,532.06 -173.62,531.96 -172.55,531.78 -171.49,531.50 -170.46,531.13 -169.47,530.68 -168.52,530.14 -167.61,529.52 -165.96,528.09 -164.50,526.46 -163.23,524.68 -162.13,522.80 -161.62,521.83" via=":37_4_0" dir="r" state="m"/>
    <connection from="10488" to="10559" fromLane="0" toLane="0" contPos="-4.00" shape="-185.21,529.45 -179.64,532.37 -176.41,534.31 -173.33,536.49 -171.43,538.13 -170.56,539.04 -169.78,540.03 -169.14,541.11 -168.73,542.29 -168.66,543.54 -169.02,544.75" via=":37_5_0" dir="l" state="m"/>
    <connection from="10538" to="10565" fromLane="0" toLane="0" contPos="-4.00" shape="-112.93,430.44 -115.22,430.11 -117.50,429.97 -119.75,430.07 -121.95,430.46 -122.96,430.76 -123.96,431.15 -124.91,431.62 -125.81,432.18 -126.66,432.82 -127.44,433.54 -128.16,434.34 -128.81,435.20 -129.39,436.09 -130.42,438.11 -131.20,440.23 -131.78,442.45 -132.38,445.94" via=":38_0_0" dir="r" state="m"/>
    <connection from="10538" to="10569" fromLane="0" toLane="0" contPos="-4.00" shape="-112.93,430.44 -115.38,429.92 -118.93,428.84 -121.28,427.86 -123.54,426.65 -125.65,425.18 -127.58,423.42 -129.25,421.40 -130.61,419.17 -131.65,416.78 -132.36,414.30 -132.79,411.79 -132.97,409.27 -132.95,406.78" via=":38_1_0" dir="l" state="m"/>
    <connection from="10557" to="10560" fromLane="0" toLane="0" contPos="-4.00" shape="-183.33,565.99 -177.80,554.71 -172.32,543.63" via=":40_4_0" dir="s" state="M"/>
    <connection from="10557" to="10643" fromLane="0" toLane="0" contPos="-4.00" shape="-183.33,565.99 -181.37,562.45 -179.85,560.22 -178.11,558.16 -176.12,556.34 -175.03,555.54 -173.88,554.85 -172.67,554.26 -171.40,553.79 -170.10,553.45 -168.76,553.24 -167.42,553.17 -166.07,553.21 -164.73,553.37 -162.10,553.98 -159.57,554.91 -157.14,556.08 -154.81,557.44" via=":40_5_0" dir="l" state="m"/>
    <connection from="10559" to="10643" fromLane="0" toLane="0" contPos="-4.00" shape="-169.13,544.99 -169.13,545.93 -168.68,546.79 -168.08,547.56 -167.42,548.28 -165.98,549.60 -164.47,550.83 -162.12,552.58 -158.91,554.79 -154.81,557.44" via=":40_2_0" dir="r" state="M"/>
    <connection from="10559" to="10556" fromLane="0" toLane="0" contPos="-4.00" shape="-169.13,544.99 -174.66,556.25 -180.20,567.56" via=":40_3_0" dir="s" state="M"/>