<routes>
	<vehicle depart="0.1" departLane="0" departPos="37.4583216241107" departSpeed="2.511428" id="311" type="bicycle">
		<route edges=":50_3 77194 77191"/>
	</vehicle>
	<vehicle depart="0.1" departLane="0" departPos="59.99188507152119" departSpeed="0.0" id="31" type="passenger">
		<route edges="77537 77194"/>
	</vehicle>
	<vehicle depart="0.1" departLane="0" departPos="14.39333063795965" departSpeed="2.8912847" id="319" type="passenger">
		<route edges="77195 77536"/>
	</vehicle>
	<vehicle depart="0.1" departLane="0" departPos="33.82800618090238" departSpeed="1.4560086" id="321" type="passenger">
		<route edges=":52_4 77195 77536"/>
	</vehicle>
	<vehicle depart="0.1" departLane="0" departPos="24.14249125096953" departSpeed="9.1812672" id="349" type="passenger">
		<route edges=":50_3 77194 77191"/>
	</vehicle>
	<vehicle depart="0.1" departLane="0" departPos="29.04613747369591" departSpeed="13.3936" id="353" type="passenger">
		<route edges=":50_3 77194 77191"/>
	</vehicle>
	<vehicle depart="0.1" departLane="0" departPos="44.03094875216759" departSpeed="10.576484" id="359" type="passenger">
		<route edges="77197 77194"/>
	</vehicle>
	<vehicle depart="0.1" departLane="0" departPos="51.588418834941116" departSpeed="10.504568" id="361" type="passenger">
		<route edges="77197 77536"/>
	</vehicle>
	<vehicle depart="0.1" departLane="0" departPos="10.537423174975514" departSpeed="4.4693816" id="364" type="passenger">
		<route edges="77197 77194"/>
	</vehicle>
	<vehicle depart="0.1" departLane="0" departPos="69.99294704258472" departSpeed="0.0" id="30" type="truck">
		<route edges="77537 77194"/>
	</vehicle>
</routes>
