<!-- generated on Tue Feb  9 22:20:52 2021 by Eclipse SUMO netconvert Version 1.8.0
<configuration xmlns:xsi="http://www.w3.org/2001/XMLSchema-instance" xsi:noNamespaceSchemaLocation="http://sumo.dlr.de/xsd/netconvertConfiguration.xsd">

    <input>
        <node-files value="./converted_scenarios/scenario-factory/DEU_Guetersloh-29_4_I-1-1/DEU_Guetersloh-29_4_I-1-1.nod.xml"/>
        <edge-files value="./converted_scenarios/scenario-factory/DEU_Guetersloh-29_4_I-1-1/DEU_Guetersloh-29_4_I-1-1.edg.xml"/>
        <connection-files value="./converted_scenarios/scenario-factory/DEU_Guetersloh-29_4_I-1-1/DEU_Guetersloh-29_4_I-1-1.con.xml"/>
        <tllogic-files value="./converted_scenarios/scenario-factory/DEU_Guetersloh-29_4_I-1-1/DEU_Guetersloh-29_4_I-1-1.tll.xml"/>
        <type-files value="/home/zen/commonroad-interactive-benchmarks/install/commonroad-map-tool/crmapconverter/sumo_map/templates/DEU.typ.xml"/>
    </input>

    <output>
        <output-file value="./converted_scenarios/scenario-factory/DEU_Guetersloh-29_4_I-1-1/DEU_Guetersloh-29_4_I-1-1.net.xml"/>
    </output>

    <processing>
        <geometry.remove.keep-edges.explicit value="true"/>
        <geometry.avoid-overlap value="true"/>
        <offset.disable-normalization value="true"/>
    </processing>

    <junctions>
        <no-turnarounds value="true"/>
        <junctions.internal-link-detail value="20"/>
    </junctions>

    <report>
        <aggregate-warnings value="5"/>
    </report>

    <random_number>
        <seed value="1234"/>
    </random_number>

</configuration>
--><net xmlns:xsi="http://www.w3.org/2001/XMLSchema-instance" version="1.6" junctionCornerDetail="5" junctionLinkDetail="20" limitTurnSpeed="5.50" xsi:noNamespaceSchemaLocation="http://sumo.dlr.de/xsd/net_file.xsd">

    <location netOffset="0.00,0.00" convBoundary="-539.56,-874.64,-263.97,-575.38" origBoundary="-540.63,-874.64,-263.97,-575.38" projParameter="!"/>

    <type id="highway.bridleway" priority="1" speed="2.78" allow="pedestrian" oneway="1" width="2.00"/>
    <type id="highway.bus_guideway" priority="1" speed="27.78" allow="bus" oneway="1"/>
    <type id="highway.cycleway" priority="1" speed="8.33" allow="bicycle" oneway="0" width="1.00"/>
    <type id="highway.footway" priority="1" speed="2.78" allow="pedestrian" oneway="1" width="2.00"/>
    <type id="highway.ford" priority="1" speed="2.78" allow="army" oneway="0"/>
    <type id="highway.living_street" priority="2" speed="2.78" disallow="tram rail_urban rail rail_electric rail_fast ship" oneway="0"/>
    <type id="highway.motorway" priority="14" speed="39.44" allow="private emergency authority army vip passenger hov taxi bus coach delivery truck trailer motorcycle evehicle custom1 custom2" oneway="1"/>
    <type id="highway.motorway_link" priority="9" speed="22.22" allow="private emergency authority army vip passenger hov taxi bus coach delivery truck trailer motorcycle evehicle custom1 custom2" oneway="1"/>
    <type id="highway.path" priority="1" speed="2.78" allow="pedestrian bicycle" oneway="0" width="2.00"/>
    <type id="highway.pedestrian" priority="1" speed="2.78" allow="pedestrian" oneway="1" width="2.00"/>
    <type id="highway.primary" priority="12" speed="27.78" disallow="pedestrian tram rail_urban rail rail_electric rail_fast ship" oneway="0"/>
    <type id="highway.primary_link" priority="7" speed="22.22" disallow="pedestrian tram rail_urban rail rail_electric rail_fast ship" oneway="0"/>
    <type id="highway.raceway" priority="15" speed="83.33" allow="vip" oneway="0"/>
    <type id="highway.residential" priority="3" speed="13.89" disallow="pedestrian tram rail_urban rail rail_electric rail_fast ship" oneway="0"/>
    <type id="highway.secondary" priority="11" speed="27.78" disallow="pedestrian tram rail_urban rail rail_electric rail_fast ship" oneway="0"/>
    <type id="highway.secondary_link" priority="6" speed="22.22" disallow="pedestrian tram rail_urban rail rail_electric rail_fast ship" oneway="0"/>
    <type id="highway.service" priority="1" speed="5.56" allow="pedestrian delivery bicycle" oneway="0"/>
    <type id="highway.stairs" priority="1" speed="1.39" allow="pedestrian" oneway="1" width="2.00"/>
    <type id="highway.step" priority="1" speed="1.39" allow="pedestrian" oneway="1" width="2.00"/>
    <type id="highway.steps" priority="1" speed="1.39" allow="pedestrian" oneway="1" width="2.00"/>
    <type id="highway.tertiary" priority="10" speed="22.22" disallow="pedestrian tram rail_urban rail rail_electric rail_fast ship" oneway="0"/>
    <type id="highway.tertiary_link" priority="5" speed="22.22" disallow="pedestrian tram rail_urban rail rail_electric rail_fast ship" oneway="0"/>
    <type id="highway.track" priority="1" speed="5.56" allow="pedestrian motorcycle moped bicycle" oneway="0"/>
    <type id="highway.trunk" priority="13" speed="27.78" disallow="pedestrian bicycle tram rail_urban rail rail_electric rail_fast ship" oneway="0"/>
    <type id="highway.trunk_link" priority="8" speed="22.22" disallow="pedestrian bicycle tram rail_urban rail rail_electric rail_fast ship" oneway="0"/>
    <type id="highway.unclassified" priority="4" speed="13.89" disallow="pedestrian tram rail_urban rail rail_electric rail_fast ship" oneway="0"/>
    <type id="highway.unsurfaced" priority="1" speed="8.33" disallow="tram rail_urban rail rail_electric rail_fast ship" oneway="0"/>
    <type id="railway.highspeed" priority="21" speed="69.44" allow="rail_fast" oneway="1"/>
    <type id="railway.light_rail" priority="19" speed="27.78" allow="rail_urban" oneway="1"/>
    <type id="railway.preserved" priority="16" speed="27.78" allow="rail" oneway="1"/>
    <type id="railway.rail" priority="20" speed="44.44" allow="rail" oneway="1"/>
    <type id="railway.subway" priority="18" speed="27.78" allow="rail_urban" oneway="1"/>
    <type id="railway.tram" priority="17" speed="13.89" allow="tram" oneway="1"/>

    <edge id=":36_0" function="internal">
        <lane id=":36_0_0" index="0" disallow="pedestrian tram rail_urban rail rail_electric rail_fast ship" speed="36.11" length="0.10" width="3.49" shape="-477.48,-695.44 -477.48,-695.44"/>
    </edge>
    <edge id=":39_0" function="internal">
        <lane id=":39_0_0" index="0" disallow="pedestrian tram rail_urban rail rail_electric rail_fast ship" speed="36.11" length="2.98" width="3.49" shape="-503.27,-711.12 -500.74,-709.54"/>
    </edge>
    <edge id=":49_0" function="internal">
        <lane id=":49_0_0" index="0" disallow="pedestrian tram rail_urban rail rail_electric rail_fast ship" speed="13.03" length="29.03" width="3.50" shape="-390.67,-706.87 -392.11,-711.01 -393.77,-715.02 -395.19,-717.90 -396.81,-720.64 -398.68,-723.18 -400.05,-724.67 -401.57,-725.98 -403.20,-727.04 -404.99,-727.82 -405.87,-728.07 -406.80,-728.24 -407.77,-728.32"/>
    </edge>
    <edge id=":49_1" function="internal">
        <lane id=":49_1_0" index="0" disallow="pedestrian tram rail_urban rail rail_electric rail_fast ship" speed="11.50" length="37.93" width="3.50" shape="-390.67,-706.87 -391.82,-711.12 -392.32,-713.99 -392.51,-716.90 -392.46,-718.36 -392.29,-719.81 -391.99,-721.23 -391.53,-722.62 -390.91,-723.94 -390.12,-725.16 -389.17,-726.27 -388.09,-727.24 -386.89,-728.07 -385.61,-728.77 -384.27,-729.35 -382.89,-729.81 -380.05,-730.46 -377.15,-730.81 -372.78,-730.93"/>
    </edge>
    <edge id=":49_2" function="internal">
        <lane id=":49_2_0" index="0" disallow="pedestrian tram rail_urban rail rail_electric rail_fast ship" speed="10.45" length="31.05" width="3.50" shape="-372.82,-727.43 -376.64,-727.33 -379.09,-727.04 -381.49,-726.49 -382.59,-726.12 -383.66,-725.66 -384.66,-725.11 -385.58,-724.47 -386.40,-723.74 -387.11,-722.92 -387.69,-722.00 -388.16,-721.01 -388.51,-719.95 -388.75,-718.83 -388.88,-717.68 -388.92,-716.51 -388.76,-714.06 -388.34,-711.63 -387.34,-707.93"/>
    </edge>
    <edge id=":49_3" function="internal">
        <lane id=":49_3_0" index="0" disallow="pedestrian tram rail_urban rail rail_electric rail_fast ship" speed="36.11" length="34.96" width="3.50" shape="-372.82,-727.43 -384.14,-727.66 -407.77,-728.32"/>
    </edge>
    <edge id=":49_4" function="internal">
        <lane id=":49_4_0" index="0" disallow="pedestrian tram rail_urban rail rail_electric rail_fast ship" speed="36.11" length="34.89" width="3.50" shape="-407.66,-731.82 -384.05,-731.16 -372.78,-730.93"/>
    </edge>
    <edge id=":49_5" function="internal">
        <lane id=":49_5_0" index="0" disallow="pedestrian tram rail_urban rail rail_electric rail_fast ship" speed="13.99" length="33.34" width="3.50" shape="-407.66,-731.82 -406.43,-731.72 -405.26,-731.52 -404.11,-731.22 -401.91,-730.32 -399.88,-729.09 -398.04,-727.58 -396.39,-725.88 -394.22,-723.05 -392.36,-720.01 -390.75,-716.83 -388.91,-712.45 -387.34,-707.93"/>
    </edge>
    <edge id=":50_0" function="internal">
        <lane id=":50_0_0" index="0" disallow="pedestrian tram rail_urban rail rail_electric rail_fast ship" speed="11.82" length="29.46" width="3.50" shape="-402.26,-795.85 -403.32,-795.67 -405.48,-795.15 -407.53,-794.43 -409.45,-793.47 -411.20,-792.28 -412.74,-790.84 -414.05,-789.18 -415.11,-787.33 -415.93,-785.33 -416.54,-783.22 -416.94,-781.05 -417.25,-777.67 -417.23,-774.26"/>
    </edge>
    <edge id=":50_1" function="internal">
        <lane id=":50_1_0" index="0" disallow="pedestrian tram rail_urban rail rail_electric rail_fast ship" speed="12.79" length="32.68" width="3.50" shape="-402.26,-795.85 -405.88,-795.46 -409.54,-795.42 -412.03,-795.63 -414.50,-796.09 -416.93,-796.84 -419.26,-797.90 -421.43,-799.30 -423.37,-801.01 -425.03,-802.98 -426.40,-805.12 -427.50,-807.39 -428.34,-809.70"/>
    </edge>
    <edge id=":50_2" function="internal">
        <lane id=":50_2_0" index="0" disallow="pedestrian tram rail_urban rail rail_electric rail_fast ship" speed="11.82" length="27.76" width="3.50" shape="-425.03,-810.81 -424.28,-808.78 -423.35,-806.86 -422.19,-805.07 -420.80,-803.45 -419.18,-802.06 -417.38,-800.93 -415.43,-800.06 -413.38,-799.46 -411.28,-799.09 -409.15,-798.92 -405.95,-798.97 -402.77,-799.32"/>
    </edge>
    <edge id=":50_3" function="internal">
        <lane id=":50_3_0" index="0" disallow="pedestrian tram rail_urban rail rail_electric rail_fast ship" speed="36.11" length="37.46" width="3.50" shape="-425.02,-810.81 -422.09,-800.87 -420.06,-792.83 -418.59,-785.71 -417.66,-779.50 -417.23,-774.26"/>
    </edge>
    <edge id=":50_4" function="internal">
        <lane id=":50_4_0" index="0" disallow="pedestrian tram rail_urban rail rail_electric rail_fast ship" speed="36.11" length="36.48" width="3.50" shape="-420.73,-774.11 -421.14,-779.17 -422.05,-785.19 -423.49,-792.14 -425.49,-800.01 -428.34,-809.70"/>
    </edge>
    <edge id=":50_5" function="internal">
        <lane id=":50_5_0" index="0" disallow="pedestrian tram rail_urban rail rail_electric rail_fast ship" speed="12.79" length="34.64" width="3.50" shape="-420.73,-774.11 -420.74,-777.96 -420.39,-781.80 -419.90,-784.32 -419.18,-786.78 -418.18,-789.14 -416.88,-791.36 -415.27,-793.36 -413.38,-795.09 -411.25,-796.52 -408.95,-797.65 -406.53,-798.50 -404.03,-799.10 -402.77,-799.32"/>
    </edge>
    <edge id=":51_0" function="internal">
        <lane id=":51_0_0" index="0" disallow="pedestrian tram rail_urban rail rail_electric rail_fast ship" speed="36.11" length="40.34" width="3.50" shape="-409.71,-674.25 -423.08,-676.05 -433.27,-677.76 -441.36,-679.41 -448.38,-681.17 -449.36,-681.45"/>
    </edge>
    <edge id=":51_1" function="internal">
        <lane id=":51_1_0" index="0" disallow="pedestrian tram rail_urban rail rail_electric rail_fast ship" speed="12.39" length="35.29" width="3.50" shape="-409.71,-674.24 -413.62,-674.93 -416.14,-675.64 -418.56,-676.60 -420.85,-677.86 -421.92,-678.60 -422.93,-679.43 -423.87,-680.33 -424.73,-681.31 -425.51,-682.36 -426.20,-683.47 -427.30,-685.84 -428.05,-688.34 -428.49,-690.91 -428.67,-693.51 -428.55,-697.42 -428.42,-698.72"/>
    </edge>
    <edge id=":51_2" function="internal">
        <lane id=":51_2_0" index="0" disallow="pedestrian tram rail_urban rail rail_electric rail_fast ship" speed="11.40" length="29.71" width="3.50" shape="-424.94,-698.33 -425.05,-697.22 -425.16,-693.76 -425.01,-691.54 -424.64,-689.37 -424.02,-687.29 -423.11,-685.32 -422.57,-684.44 -421.95,-683.60 -421.25,-682.80 -420.49,-682.07 -419.67,-681.40 -418.82,-680.80 -416.90,-679.74 -414.85,-678.92 -412.71,-678.32 -409.31,-677.72"/>
    </edge>
    <edge id=":51_3" function="internal">
        <lane id=":51_3_0" index="0" disallow="pedestrian tram rail_urban rail rail_electric rail_fast ship" speed="11.60" length="35.42" width="3.50" shape="-424.94,-698.33 -425.57,-694.47 -426.24,-691.90 -427.17,-689.38 -428.43,-686.98 -429.23,-685.80 -430.13,-684.71 -431.14,-683.71 -432.25,-682.81 -433.46,-682.04 -434.74,-681.40 -436.08,-680.91 -437.44,-680.54 -438.85,-680.31 -441.54,-680.17 -444.22,-680.36 -446.83,-680.81 -449.36,-681.45"/>
    </edge>
    <edge id=":51_4" function="internal">
        <lane id=":51_4_0" index="0" disallow="pedestrian tram rail_urban rail rail_electric rail_fast ship" speed="10.57" length="29.17" width="3.50" shape="-448.39,-684.81 -446.22,-684.26 -444.01,-683.88 -441.77,-683.72 -439.53,-683.84 -438.42,-684.03 -437.34,-684.32 -436.28,-684.72 -435.28,-685.22 -434.34,-685.83 -433.47,-686.54 -432.67,-687.33 -431.96,-688.20 -431.33,-689.13 -430.30,-691.12 -429.52,-693.22 -428.96,-695.40 -428.42,-698.72"/>
    </edge>
    <edge id=":51_5" function="internal">
        <lane id=":51_5_0" index="0" disallow="pedestrian tram rail_urban rail rail_electric rail_fast ship" speed="36.11" length="39.75" width="3.50" shape="-448.39,-684.81 -447.44,-684.54 -440.54,-682.81 -432.57,-681.19 -422.51,-679.51 -409.31,-677.72"/>
    </edge>
    <edge id=":52_0" function="internal">
        <lane id=":52_0_0" index="0" disallow="pedestrian tram rail_urban rail rail_electric rail_fast ship" speed="10.88" length="25.49" width="3.50" shape="-407.93,-728.33 -410.12,-728.30 -412.22,-728.00 -414.25,-727.40 -415.22,-726.97 -416.14,-726.46 -417.02,-725.86 -417.84,-725.19 -418.59,-724.45 -419.28,-723.64 -420.46,-721.89 -421.40,-719.99 -422.14,-718.00 -422.70,-715.96 -423.28,-712.83 -423.41,-711.78"/>
    </edge>
    <edge id=":52_1" function="internal">
        <lane id=":52_1_0" index="0" disallow="pedestrian tram rail_urban rail rail_electric rail_fast ship" speed="11.37" length="31.04" width="3.50" shape="-407.94,-728.32 -410.68,-728.59 -412.00,-728.86 -413.30,-729.24 -414.55,-729.73 -415.75,-730.35 -416.87,-731.09 -417.90,-731.97 -418.81,-732.95 -419.61,-734.04 -420.28,-735.21 -420.84,-736.43 -421.29,-737.70 -421.91,-740.32 -422.22,-743.00 -422.29,-745.70 -422.06,-749.73 -421.91,-751.06"/>
    </edge>
    <edge id=":52_2" function="internal">
        <lane id=":52_2_0" index="0" disallow="pedestrian tram rail_urban rail rail_electric rail_fast ship" speed="10.22" length="25.16" width="3.50" shape="-418.43,-750.71 -418.57,-749.49 -418.78,-745.96 -418.74,-743.67 -418.50,-741.42 -418.02,-739.22 -417.69,-738.22 -417.27,-737.25 -416.78,-736.33 -416.20,-735.49 -415.54,-734.72 -414.79,-734.05 -413.97,-733.47 -413.07,-732.98 -412.12,-732.58 -411.11,-732.27 -410.09,-732.05 -407.86,-731.82"/>
    </edge>
    <edge id=":52_3" function="internal">
        <lane id=":52_3_0" index="0" disallow="pedestrian tram rail_urban rail rail_electric rail_fast ship" speed="36.11" length="39.25" width="3.50" shape="-418.43,-750.71 -423.05,-714.85 -423.41,-711.78"/>
    </edge>
    <edge id=":52_4" function="internal">
        <lane id=":52_4_0" index="0" disallow="pedestrian tram rail_urban rail rail_electric rail_fast ship" speed="36.11" length="39.20" width="3.50" shape="-426.89,-712.18 -426.53,-715.27 -421.91,-751.06"/>
    </edge>
    <edge id=":52_5" function="internal">
        <lane id=":52_5_0" index="0" disallow="pedestrian tram rail_urban rail rail_electric rail_fast ship" speed="11.98" length="30.71" width="3.50" shape="-426.89,-712.18 -426.73,-713.42 -426.06,-716.99 -425.38,-719.40 -424.49,-721.75 -423.32,-724.02 -421.85,-726.12 -420.96,-727.13 -420.00,-728.04 -418.96,-728.87 -417.85,-729.59 -416.68,-730.22 -415.43,-730.74 -412.95,-731.44 -410.40,-731.79 -407.86,-731.82"/>
    </edge>
    <edge id=":53_0" function="internal">
        <lane id=":53_0_0" index="0" disallow="pedestrian tram rail_urban rail rail_electric rail_fast ship" speed="12.61" length="30.82" width="3.50" shape="-327.52,-645.08 -327.94,-648.35 -328.62,-651.56 -329.61,-654.66 -330.45,-656.60 -331.47,-658.45 -332.67,-660.16 -334.06,-661.71 -335.62,-663.06 -337.34,-664.20 -339.20,-665.13 -341.17,-665.84 -343.23,-666.35 -345.37,-666.68"/>
    </edge>
    <edge id=":53_1" function="internal">
        <lane id=":53_1_0" index="0" disallow="pedestrian tram rail_urban rail rail_electric rail_fast ship" speed="36.11" length="39.33" width="3.50" shape="-306.27,-662.44 -325.80,-664.56 -345.37,-666.68"/>
    </edge>
    <edge id=":53_2" function="internal">
        <lane id=":53_2_0" index="0" disallow="pedestrian tram rail_urban rail rail_electric rail_fast ship" speed="36.11" length="39.26" width="3.50" shape="-344.96,-670.16 -325.43,-668.04 -305.93,-665.92"/>
    </edge>
    <edge id=":53_3" function="internal">
        <lane id=":53_3_0" index="0" disallow="pedestrian tram rail_urban rail rail_electric rail_fast ship" speed="13.53" length="35.62" width="3.50" shape="-344.96,-670.16 -342.52,-669.78 -340.14,-669.19 -337.83,-668.37 -335.62,-667.29 -333.56,-665.95 -331.69,-664.36 -330.04,-662.55 -328.61,-660.55 -327.40,-658.41 -326.41,-656.16 -325.28,-652.66 -324.51,-649.06 -324.04,-645.40"/>
    </edge>
    <edge id=":54_0" function="internal">
        <lane id=":54_0_0" index="0" disallow="pedestrian tram rail_urban rail rail_electric rail_fast ship" speed="36.11" length="6.93" width="3.50" shape="-489.19,-696.80 -495.53,-699.61"/>
        <lane id=":54_0_1" index="1" disallow="pedestrian tram rail_urban rail rail_electric rail_fast ship" speed="36.11" length="6.66" width="3.50" shape="-488.65,-698.06 -494.33,-701.53"/>
    </edge>

    <edge id="77048" from="42" to="39" priority="3" type="highway.residential" spreadType="center" length="40.80">
        <lane id="77048_0" index="0" disallow="pedestrian tram rail_urban rail rail_electric rail_fast ship" speed="36.11" length="40.80" width="3.50" customShape="1" shape="-536.33,-735.00 -530.36,-730.38 -518.70,-721.60 -509.65,-715.21 -503.27,-711.12"/>
    </edge>
    <edge id="77050" from="54" to="40" priority="3" type="highway.residential" spreadType="center" length="53.85">
        <lane id="77050_0" index="0" disallow="pedestrian tram rail_urban rail rail_electric rail_fast ship" speed="36.11" length="54.19" width="3.50" customShape="1" shape="-496.32,-698.35 -513.51,-709.38 -522.73,-715.87 -534.57,-724.79 -540.63,-729.48"/>
        <lane id="77050_1" index="1" disallow="pedestrian tram rail_urban rail rail_electric rail_fast ship" speed="36.11" length="53.85" width="3.50" customShape="1" shape="-494.46,-701.31 -511.57,-712.29 -520.72,-718.74 -532.47,-727.59 -538.49,-732.25"/>
    </edge>
    <edge id="77191" from="52" to="51" priority="3" type="highway.residential" spreadType="center" length="13.56" shape="-416.03,-730.64 -426.66,-685.48">
        <lane id="77191_0" index="0" disallow="pedestrian tram rail_urban rail rail_electric rail_fast ship" speed="36.11" length="13.56" width="3.50" customShape="1" shape="-423.41,-711.78 -424.18,-705.05 -424.94,-698.31"/>
    </edge>
    <edge id="77192" from="51" to="52" priority="3" type="highway.residential" spreadType="center" length="13.56" shape="-430.07,-686.28 -419.44,-731.44">
        <lane id="77192_0" index="0" disallow="pedestrian tram rail_urban rail rail_electric rail_fast ship" speed="36.11" length="13.56" width="3.50" customShape="1" shape="-428.42,-698.72 -427.65,-705.45 -426.89,-712.19"/>
    </edge>
    <edge id="77194" from="50" to="52" priority="3" type="highway.residential" spreadType="center" length="23.67" shape="-414.31,-793.96 -416.00,-730.88">
        <lane id="77194_0" index="0" disallow="pedestrian tram rail_urban rail rail_electric rail_fast ship" speed="36.11" length="23.67" width="3.50" customShape="1" shape="-417.23,-774.26 -417.18,-772.72 -417.18,-766.54 -417.60,-758.83 -418.44,-750.65"/>
    </edge>
    <edge id="77195" from="52" to="50" priority="3" type="highway.residential" spreadType="center" length="23.12" shape="-419.50,-730.97 -417.81,-794.05">
        <lane id="77195_0" index="0" disallow="pedestrian tram rail_urban rail rail_electric rail_fast ship" speed="36.11" length="23.12" width="3.50" customShape="1" shape="-421.91,-751.06 -421.09,-759.08 -420.68,-766.61 -420.68,-772.63 -420.73,-774.13"/>
    </edge>
    <edge id="77197" from="41" to="50" priority="3" type="highway.residential" spreadType="center" length="70.00" shape="-453.23,-874.64 -414.47,-794.73">
        <lane id="77197_0" index="0" disallow="pedestrian tram rail_urban rail rail_electric rail_fast ship" speed="36.11" length="70.00" width="3.50" customShape="1" shape="-453.23,-874.64 -453.08,-874.09 -451.56,-869.83 -449.18,-864.28 -446.84,-859.83 -441.71,-851.17 -439.09,-846.30 -435.50,-838.54 -431.81,-829.72 -427.73,-818.89 -425.01,-810.77"/>
    </edge>
    <edge id="77198" from="50" to="31" priority="3" type="highway.residential" spreadType="center" length="70.00" shape="-417.62,-793.21 -456.57,-873.57">
        <lane id="77198_0" index="0" disallow="pedestrian tram rail_urban rail rail_electric rail_fast ship" speed="36.11" length="70.00" width="3.50" customShape="1" shape="-428.34,-809.70 -431.06,-817.83 -435.15,-828.65 -438.84,-837.44 -442.43,-845.16 -445.06,-849.97 -450.22,-858.70 -452.57,-863.29 -454.99,-869.00 -456.53,-873.41 -456.57,-873.57"/>
    </edge>
    <edge id="77286" from="25" to="49" priority="3" type="highway.residential" spreadType="center" length="23.03" shape="-383.66,-684.95 -391.56,-721.93">
        <lane id="77286_0" index="0" disallow="pedestrian tram rail_urban rail rail_electric rail_fast ship" speed="36.11" length="23.03" width="3.50" customShape="1" shape="-383.66,-684.95 -387.17,-695.92 -390.68,-706.88"/>
    </edge>
    <edge id="77287" from="49" to="12" priority="3" type="highway.residential" spreadType="center" length="23.00" shape="-388.14,-722.66 -380.33,-686.02">
        <lane id="77287_0" index="0" disallow="pedestrian tram rail_urban rail rail_electric rail_fast ship" speed="36.11" length="23.00" width="3.50" customShape="1" shape="-387.34,-707.93 -383.84,-696.99 -380.33,-686.02"/>
    </edge>
    <edge id="77381" from="48" to="53" priority="3" type="highway.residential" spreadType="center" length="70.00" shape="-321.03,-575.38 -327.43,-659.18">
        <lane id="77381_0" index="0" disallow="pedestrian tram rail_urban rail rail_electric rail_fast ship" speed="36.11" length="70.00" width="3.50" customShape="1" shape="-321.03,-575.38 -322.98,-596.34 -327.52,-645.08"/>
    </edge>
    <edge id="77382" from="53" to="44" priority="3" type="highway.residential" spreadType="center" length="70.00" shape="-323.94,-659.45 -317.55,-575.70">
        <lane id="77382_0" index="0" disallow="pedestrian tram rail_urban rail rail_electric rail_fast ship" speed="36.11" length="70.00" width="3.50" customShape="1" shape="-324.04,-645.40 -319.50,-596.66 -317.55,-575.70"/>
    </edge>
    <edge id="77396" from="49" to="52" priority="3" type="highway.residential" spreadType="center" length="0.23" shape="-390.36,-720.55 -418.37,-729.34">
        <lane id="77396_0" index="0" disallow="pedestrian tram rail_urban rail rail_electric rail_fast ship" speed="36.11" length="0.23" width="3.50" customShape="1" shape="-407.77,-728.32 -407.88,-728.32 -408.00,-728.33"/>
    </edge>
    <edge id="77397" from="52" to="49" priority="3" type="highway.residential" spreadType="center" length="0.25" shape="-417.33,-732.67 -389.31,-723.89">
        <lane id="77397_0" index="0" disallow="pedestrian tram rail_urban rail rail_electric rail_fast ship" speed="36.11" length="0.25" width="3.50" customShape="1" shape="-407.86,-731.82 -407.74,-731.82 -407.61,-731.82"/>
    </edge>
    <edge id="77399" from="32" to="49" priority="3" type="highway.residential" spreadType="center" length="26.55" shape="-346.29,-726.94 -389.64,-720.48">
        <lane id="77399_0" index="0" disallow="pedestrian tram rail_urban rail rail_electric rail_fast ship" speed="36.11" length="26.55" width="3.50" customShape="1" shape="-346.29,-726.94 -359.57,-727.19 -372.84,-727.43"/>
    </edge>
    <edge id="77400" from="49" to="13" priority="3" type="highway.residential" spreadType="center" length="26.56" shape="-390.16,-723.94 -346.22,-730.44">
        <lane id="77400_0" index="0" disallow="pedestrian tram rail_urban rail rail_electric rail_fast ship" speed="36.11" length="26.56" width="3.50" customShape="1" shape="-372.78,-730.93 -359.50,-730.69 -346.22,-730.44"/>
    </edge>
    <edge id="77502" from="53" to="43" priority="3" type="highway.residential" spreadType="center" length="42.12" shape="-325.77,-661.03 -263.97,-662.33">
        <lane id="77502_0" index="0" disallow="pedestrian tram rail_urban rail rail_electric rail_fast ship" speed="36.11" length="42.12" width="3.50" customShape="1" shape="-305.93,-665.92 -298.33,-665.15 -272.58,-662.78 -263.97,-662.33"/>
    </edge>
    <edge id="77503" from="47" to="53" priority="3" type="highway.residential" spreadType="center" length="42.35" shape="-264.10,-658.83 -325.69,-657.53">
        <lane id="77503_0" index="0" disallow="pedestrian tram rail_urban rail rail_electric rail_fast ship" speed="36.11" length="42.35" width="3.50" customShape="1" shape="-264.10,-658.83 -272.78,-659.29 -298.66,-661.66 -306.29,-662.44"/>
    </edge>
    <edge id="77505" from="51" to="53" priority="3" type="highway.residential" spreadType="center" length="64.80" shape="-427.93,-687.57 -325.21,-660.97">
        <lane id="77505_0" index="0" disallow="pedestrian tram rail_urban rail rail_electric rail_fast ship" speed="36.11" length="64.80" width="3.50" customShape="1" shape="-409.31,-677.72 -377.15,-673.94 -344.95,-670.16"/>
    </edge>
    <edge id="77506" from="53" to="51" priority="3" type="highway.residential" spreadType="center" length="64.83" shape="-326.09,-657.58 -428.80,-684.18">
        <lane id="77506_0" index="0" disallow="pedestrian tram rail_urban rail rail_electric rail_fast ship" speed="36.11" length="64.83" width="3.50" customShape="1" shape="-345.37,-666.68 -377.56,-670.47 -409.76,-674.25"/>
    </edge>
    <edge id="77508" from="36" to="51" priority="3" type="highway.residential" spreadType="center" length="31.07" shape="-477.48,-695.44 -428.03,-687.59">
        <lane id="77508_0" index="0" disallow="pedestrian tram rail_urban rail rail_electric rail_fast ship" speed="36.11" length="31.07" width="3.49" customShape="1" shape="-477.48,-695.44 -475.61,-694.63 -465.70,-690.69 -456.63,-687.41 -448.31,-684.79"/>
    </edge>
    <edge id="77509" from="51" to="54" priority="3" type="highway.residential" spreadType="center" length="42.73" shape="-428.74,-684.17 -491.41,-699.81">
        <lane id="77509_0" index="0" disallow="pedestrian tram rail_urban rail rail_electric rail_fast ship" speed="36.11" length="42.73" width="3.50" customShape="1" shape="-449.36,-681.45 -457.74,-684.09 -466.94,-687.41 -476.97,-691.40 -489.23,-696.72"/>
    </edge>
    <edge id="77536" from="50" to="30" priority="3" type="highway.residential" spreadType="center" length="70.01" shape="-416.09,-795.75 -333.65,-795.45">
        <lane id="77536_0" index="0" disallow="pedestrian tram rail_urban rail rail_electric rail_fast ship" speed="36.11" length="70.01" width="3.50" customShape="1" shape="-402.77,-799.32 -398.77,-799.90 -388.25,-801.22 -380.20,-801.88 -373.14,-802.11 -366.58,-801.97 -360.54,-801.48 -354.54,-800.65 -347.61,-799.26 -339.77,-797.29 -333.65,-795.45"/>
    </edge>
    <edge id="77537" from="38" to="50" priority="3" type="highway.residential" spreadType="center" length="70.00" shape="-333.20,-791.64 -416.11,-792.25">
        <lane id="77537_0" index="0" disallow="pedestrian tram rail_urban rail rail_electric rail_fast ship" speed="36.11" length="70.00" width="3.50" customShape="1" shape="-333.20,-791.64 -340.11,-793.75 -347.84,-795.72 -354.67,-797.11 -360.55,-797.96 -366.47,-798.46 -372.92,-798.62 -379.88,-798.40 -387.84,-797.74 -398.28,-796.43 -402.26,-795.85"/>
    </edge>
    <edge id="80267" from="39" to="36" priority="3" type="highway.residential" spreadType="center" length="27.20">
        <lane id="80267_0" index="0" disallow="pedestrian tram rail_urban rail rail_electric rail_fast ship" speed="36.11" length="27.20" width="3.49" customShape="1" shape="-500.74,-709.54 -480.15,-696.96 -477.48,-695.44"/>
    </edge>

    <junction id="12" type="dead_end" x="-380.33" y="-686.02" incLanes="77287_0" intLanes="" shape="-378.66,-686.55 -381.99,-685.48" rightOfWay="edgePriority"/>
    <junction id="13" type="dead_end" x="-346.22" y="-730.44" incLanes="77400_0" intLanes="" shape="-346.19,-732.19 -346.26,-728.69" rightOfWay="edgePriority"/>
    <junction id="25" type="dead_end" x="-383.66" y="-684.95" incLanes="" intLanes="" shape="-381.99,-685.48 -385.33,-684.42" rightOfWay="edgePriority"/>
    <junction id="30" type="dead_end" x="-333.65" y="-795.45" incLanes="77536_0" intLanes="" shape="-333.15,-797.13 -334.16,-793.78" rightOfWay="edgePriority"/>
    <junction id="31" type="dead_end" x="-456.57" y="-873.57" incLanes="77198_0" intLanes="" shape="-458.26,-873.12 -454.88,-874.02" rightOfWay="edgePriority"/>
    <junction id="32" type="dead_end" x="-346.29" y="-726.94" incLanes="" intLanes="" shape="-346.26,-728.69 -346.32,-725.19" rightOfWay="edgePriority"/>
    <junction id="36" type="priority" x="-477.48" y="-695.44" incLanes="80267_0" intLanes=":36_0_0" shape="-478.08,-693.79 -476.69,-697.00 -478.43,-693.97 -478.30,-693.90 -478.21,-693.85" rightOfWay="edgePriority">
        <request index="0" response="0" foes="0" cont="0"/>