<!-- generated on Tue Feb  9 22:07:18 2021 by Eclipse SUMO netconvert Version 1.8.0
<configuration xmlns:xsi="http://www.w3.org/2001/XMLSchema-instance" xsi:noNamespaceSchemaLocation="http://sumo.dlr.de/xsd/netconvertConfiguration.xsd">

    <input>
        <node-files value="./converted_scenarios/scenario-factory/BEL_Putte-5_3_I-1-1/BEL_Putte-5_3_I-1-1.nod.xml"/>
        <edge-files value="./converted_scenarios/scenario-factory/BEL_Putte-5_3_I-1-1/BEL_Putte-5_3_I-1-1.edg.xml"/>
        <connection-files value="./converted_scenarios/scenario-factory/BEL_Putte-5_3_I-1-1/BEL_Putte-5_3_I-1-1.con.xml"/>
        <tllogic-files value="./converted_scenarios/scenario-factory/BEL_Putte-5_3_I-1-1/BEL_Putte-5_3_I-1-1.tll.xml"/>
        <type-files value="/home/zen/commonroad-interactive-benchmarks/install/commonroad-map-tool/crmapconverter/sumo_map/templates/DEU.typ.xml"/>
    </input>

    <output>
        <output-file value="./converted_scenarios/scenario-factory/BEL_Putte-5_3_I-1-1/BEL_Putte-5_3_I-1-1.net.xml"/>
    </output>

    <processing>
        <geometry.remove.keep-edges.explicit value="true"/>
        <geometry.avoid-overlap value="true"/>
        <offset.disable-normalization value="true"/>
    </processing>

    <junctions>
        <no-turnarounds value="true"/>
        <junctions.internal-link-detail value="20"/>
    </junctions>

    <report>
        <aggregate-warnings value="5"/>
    </report>

    <random_number>
        <seed value="1234"/>
    </random_number>

</configuration>
--><net xmlns:xsi="http://www.w3.org/2001/XMLSchema-instance" version="1.6" junctionCornerDetail="5" junctionLinkDetail="20" limitTurnSpeed="5.50" xsi:noNamespaceSchemaLocation="http://sumo.dlr.de/xsd/net_file.xsd">

    <location netOffset="0.00,0.00" convBoundary="884.68,648.58,1041.67,784.61" origBoundary="884.68,648.58,1041.67,784.61" projParameter="!"/>

    <type id="highway.bridleway" priority="1" speed="2.78" allow="pedestrian" oneway="1" width="2.00"/>
    <type id="highway.bus_guideway" priority="1" speed="27.78" allow="bus" oneway="1"/>
    <type id="highway.cycleway" priority="1" speed="8.33" allow="bicycle" oneway="0" width="1.00"/>
    <type id="highway.footway" priority="1" speed="2.78" allow="pedestrian" oneway="1" width="2.00"/>
    <type id="highway.ford" priority="1" speed="2.78" allow="army" oneway="0"/>
    <type id="highway.living_street" priority="2" speed="2.78" disallow="tram rail_urban rail rail_electric rail_fast ship" oneway="0"/>
    <type id="highway.motorway" priority="14" speed="39.44" allow="private emergency authority army vip passenger hov taxi bus coach delivery truck trailer motorcycle evehicle custom1 custom2" oneway="1"/>
    <type id="highway.motorway_link" priority="9" speed="22.22" allow="private emergency authority army vip passenger hov taxi bus coach delivery truck trailer motorcycle evehicle custom1 custom2" oneway="1"/>
    <type id="highway.path" priority="1" speed="2.78" allow="pedestrian bicycle" oneway="0" width="2.00"/>
    <type id="highway.pedestrian" priority="1" speed="2.78" allow="pedestrian" oneway="1" width="2.00"/>
    <type id="highway.primary" priority="12" speed="27.78" disallow="pedestrian tram rail_urban rail rail_electric rail_fast ship" oneway="0"/>
    <type id="highway.primary_link" priority="7" speed="22.22" disallow="pedestrian tram rail_urban rail rail_electric rail_fast ship" oneway="0"/>
    <type id="highway.raceway" priority="15" speed="83.33" allow="vip" oneway="0"/>
    <type id="highway.residential" priority="3" speed="13.89" disallow="pedestrian tram rail_urban rail rail_electric rail_fast ship" oneway="0"/>
    <type id="highway.secondary" priority="11" speed="27.78" disallow="pedestrian tram rail_urban rail rail_electric rail_fast ship" oneway="0"/>
    <type id="highway.secondary_link" priority="6" speed="22.22" disallow="pedestrian tram rail_urban rail rail_electric rail_fast ship" oneway="0"/>
    <type id="highway.service" priority="1" speed="5.56" allow="pedestrian delivery bicycle" oneway="0"/>
    <type id="highway.stairs" priority="1" speed="1.39" allow="pedestrian" oneway="1" width="2.00"/>
    <type id="highway.step" priority="1" speed="1.39" allow="pedestrian" oneway="1" width="2.00"/>
    <type id="highway.steps" priority="1" speed="1.39" allow="pedestrian" oneway="1" width="2.00"/>
    <type id="highway.tertiary" priority="10" speed="22.22" disallow="pedestrian tram rail_urban rail rail_electric rail_fast ship" oneway="0"/>
    <type id="highway.tertiary_link" priority="5" speed="22.22" disallow="pedestrian tram rail_urban rail rail_electric rail_fast ship" oneway="0"/>
    <type id="highway.track" priority="1" speed="5.56" allow="pedestrian motorcycle moped bicycle" oneway="0"/>
    <type id="highway.trunk" priority="13" speed="27.78" disallow="pedestrian bicycle tram rail_urban rail rail_electric rail_fast ship" oneway="0"/>
    <type id="highway.trunk_link" priority="8" speed="22.22" disallow="pedestrian bicycle tram rail_urban rail rail_electric rail_fast ship" oneway="0"/>
    <type id="highway.unclassified" priority="4" speed="13.89" disallow="pedestrian tram rail_urban rail rail_electric rail_fast ship" oneway="0"/>
    <type id="highway.unsurfaced" priority="1" speed="8.33" disallow="tram rail_urban rail rail_electric rail_fast ship" oneway="0"/>
    <type id="railway.highspeed" priority="21" speed="69.44" allow="rail_fast" oneway="1"/>
    <type id="railway.light_rail" priority="19" speed="27.78" allow="rail_urban" oneway="1"/>
    <type id="railway.preserved" priority="16" speed="27.78" allow="rail" oneway="1"/>
    <type id="railway.rail" priority="20" speed="44.44" allow="rail" oneway="1"/>
    <type id="railway.subway" priority="18" speed="27.78" allow="rail_urban" oneway="1"/>
    <type id="railway.tram" priority="17" speed="13.89" allow="tram" oneway="1"/>

    <edge id=":18_0" function="internal">
        <lane id=":18_0_0" index="0" disallow="pedestrian tram rail_urban rail rail_electric rail_fast ship" speed="15.67" length="42.89" width="3.50" shape="998.47,728.40 991.99,725.45 988.99,724.48 985.90,723.84 982.75,723.56 979.60,723.69 977.52,723.99 974.46,724.77 971.52,725.92 968.72,727.38 966.08,729.10 963.59,731.04 961.24,733.15 959.76,734.65"/>
    </edge>
    <edge id=":18_1" function="internal">
        <lane id=":18_1_0" index="0" disallow="pedestrian tram rail_urban rail rail_electric rail_fast ship" speed="36.11" length="50.72" width="3.50" shape="998.47,728.40 981.98,720.71 969.85,715.49 957.58,710.60 951.85,708.47"/>
    </edge>
    <edge id=":18_2" function="internal">
        <lane id=":18_2_0" index="0" disallow="pedestrian tram rail_urban rail rail_electric rail_fast ship" speed="8.72" length="21.24" width="3.50" shape="998.47,728.40 992.21,725.29 989.64,723.70 987.25,721.85 986.15,720.81 985.15,719.69 984.26,718.47 983.51,717.15 982.95,715.75 982.79,715.12"/>
    </edge>
    <edge id=":18_3" function="internal">
        <lane id=":18_3_0" index="0" disallow="pedestrian tram rail_urban rail rail_electric rail_fast ship" speed="9.58" length="25.93" width="3.50" shape="980.64,713.00 1002.62,726.76"/>
    </edge>
    <edge id=":18_4" function="internal">
        <lane id=":18_4_0" index="0" disallow="pedestrian tram rail_urban rail rail_electric rail_fast ship" speed="36.11" length="30.08" width="3.50" shape="980.69,713.05 959.76,734.65"/>
    </edge>
    <edge id=":18_5" function="internal">
        <lane id=":18_5_0" index="0" disallow="pedestrian tram rail_urban rail rail_electric rail_fast ship" speed="13.05" length="26.44" width="3.50" shape="977.77,710.17 974.62,710.97 971.18,711.47 967.71,711.60 964.24,711.42 960.79,710.93 957.40,710.19 952.96,708.86 951.85,708.47"/>
    </edge>
    <edge id=":18_6" function="internal">
        <lane id=":18_6_0" index="0" disallow="pedestrian tram rail_urban rail rail_electric rail_fast ship" speed="12.00" length="22.22" width="3.50" shape="953.04,705.18 954.05,705.54 958.18,706.78 961.29,707.46 964.44,707.91 967.60,708.09 970.74,707.97 973.84,707.54 974.84,707.29"/>
    </edge>
    <edge id=":18_7" function="internal">
        <lane id=":18_7_0" index="0" disallow="pedestrian tram rail_urban rail rail_electric rail_fast ship" speed="36.11" length="3.99" width="3.50" shape="953.06,705.18 956.80,706.58"/>
    </edge>
    <edge id=":18_8" function="internal">
        <lane id=":18_8_0" index="0" disallow="pedestrian tram rail_urban rail rail_electric rail_fast ship" speed="11.41" length="39.59" width="3.50" shape="953.04,705.17 957.28,706.94 959.98,708.35 962.51,710.04 963.69,711.00 964.78,712.06 965.76,713.23 966.59,714.50 967.24,715.87 967.68,717.33 967.90,718.83 967.89,720.36 967.68,721.86 967.29,723.33 966.77,724.76 966.12,726.14 964.57,728.76 962.77,731.22 959.76,734.65"/>
    </edge>
    <edge id=":18_9" function="internal">
        <lane id=":18_9_0" index="0" disallow="pedestrian tram rail_urban rail rail_electric rail_fast ship" speed="10.34" length="32.28" width="3.50" shape="957.23,732.23 959.86,729.24 961.39,727.16 962.70,724.94 963.21,723.84 963.63,722.70 963.93,721.55 964.10,720.40 964.11,719.28 963.95,718.18 963.63,717.11 963.15,716.10 962.52,715.14 961.76,714.23 960.89,713.39 959.95,712.62 957.81,711.19 955.53,709.99 951.85,708.47"/>
    </edge>
    <edge id=":18_10" function="internal">
        <lane id=":18_10_0" index="0" disallow="pedestrian tram rail_urban rail rail_electric rail_fast ship" speed="36.11" length="30.13" width="3.50" shape="957.23,732.23 978.19,710.59"/>
    </edge>
    <edge id=":18_11" function="internal">
        <lane id=":18_11_0" index="0" disallow="pedestrian tram rail_urban rail rail_electric rail_fast ship" speed="20.85" length="22.29" width="3.50" shape="957.26,732.20 957.87,731.61 958.58,730.97 959.39,730.30 960.29,729.61 961.26,728.88 962.29,728.15 963.37,727.41 964.49,726.66 965.63,725.93 966.80,725.21 967.97,724.52 969.13,723.85 970.28,723.22 971.40,722.64 972.48,722.12 973.51,721.65 974.48,721.25 975.37,720.93 976.18,720.69"/>
    </edge>

    <edge id="8040" from="14" to="18" priority="3" type="highway.residential" spreadType="center" length="86.97" shape="1041.67,651.04 972.52,716.52">
        <lane id="8040_0" index="0" disallow="pedestrian tram rail_urban rail rail_electric rail_fast ship" speed="36.11" length="86.97" width="3.50" customShape="1" shape="1041.67,651.04 980.64,713.00"/>
    </edge>
    <edge id="8041" from="18" to="8" priority="3" type="highway.residential" spreadType="center" length="86.97" shape="970.11,713.98 1039.18,648.58">
        <lane id="8041_0" index="0" disallow="pedestrian tram rail_urban rail rail_electric rail_fast ship" speed="36.11" length="86.97" width="3.50" customShape="1" shape="978.15,710.54 1039.18,648.58"/>
    </edge>
    <edge id="8051" from="18" to="3" priority="3" type="highway.residential" spreadType="center" length="70.01" shape="970.83,716.90 884.68,688.91">
        <lane id="8051_0" index="0" disallow="pedestrian tram rail_urban rail rail_electric rail_fast ship" speed="36.11" length="70.01" width="3.50" customShape="1" shape="951.85,708.47 949.51,707.62 937.18,703.40 922.84,698.86 909.83,695.14 893.82,690.99 884.68,688.91"/>
    </edge>
    <edge id="8052" from="12" to="18" priority="3" type="highway.residential" spreadType="center" length="69.99" shape="885.91,685.60 971.91,713.57">
        <lane id="8052_0" index="0" disallow="pedestrian tram rail_urban rail rail_electric rail_fast ship" speed="36.11" length="69.99" width="3.50" customShape="1" shape="885.91,685.60 894.72,687.60 910.81,691.78 923.89,695.52 938.30,700.08 950.68,704.32 953.06,705.18"/>
    </edge>
    <edge id="8054" from="13" to="18" priority="3" type="highway.residential" spreadType="center" length="1.29" shape="999.63,728.96 970.58,716.80">
        <lane id="8054_0" index="0" disallow="pedestrian tram rail_urban rail rail_electric rail_fast ship" speed="36.11" length="1.29" width="3.50" customShape="1" shape="999.63,728.96 998.47,728.40"/>
    </edge>
    <edge id="8057" from="18" to="10" priority="3" type="highway.residential" spreadType="center" length="70.00" shape="972.66,716.38 910.73,784.61">
        <lane id="8057_0" index="0" disallow="pedestrian tram rail_urban rail rail_electric rail_fast ship" speed="36.11" length="70.00" width="3.50" customShape="1" shape="959.76,734.65 910.73,784.61"/>
    </edge>
    <edge id="8058" from="11" to="18" priority="3" type="highway.residential" spreadType="center" length="70.04" shape="908.20,782.19 970.07,714.02">
        <lane id="8058_0" index="0" disallow="pedestrian tram rail_urban rail rail_electric rail_fast ship" speed="36.11" length="70.04" width="3.50" customShape="1" shape="908.20,782.19 957.26,732.20"/>
    </edge>
    <edge id="8563" from="18" to="19" priority="3" type="highway.residential" spreadType="center" length="53.42" shape="971.89,713.56 996.39,723.53">
        <lane id="8563_0" index="0" disallow="pedestrian tram rail_urban rail rail_electric rail_fast ship" speed="36.11" length="53.42" width="3.50" customShape="1" shape="1002.62,726.76 990.77,702.83 989.17,704.84 987.80,706.98 987.25,708.06 986.79,709.17 986.45,710.30 986.25,711.43 986.19,712.55 986.29,713.65 986.55,714.72 986.98,715.76 987.54,716.76 988.23,717.71 989.03,718.60 989.90,719.43 991.92,720.98 994.10,722.33 996.39,723.53"/>
    </edge>
    <edge id="8570" from="18" to="19" priority="3" type="highway.residential" spreadType="center" length="43.08">
        <lane id="8570_0" index="0" disallow="pedestrian tram rail_urban rail rail_electric rail_fast ship" speed="36.11" length="43.08" width="3.50" customShape="1" shape="956.80,706.58 958.83,707.33 971.18,712.25 983.41,717.52 996.39,723.53"/>
    </edge>
    <edge id="8579" from="18" to="19" priority="3" type="highway.residential" spreadType="center" length="20.80">
        <lane id="8579_0" index="0" disallow="pedestrian tram rail_urban rail rail_electric rail_fast ship" speed="36.11" length="20.80" width="3.50" customShape="1" shape="976.18,720.69 976.95,720.50 979.33,720.16 982.87,720.04 986.40,720.36 989.85,721.08 993.19,722.16 996.39,723.53"/>
    </edge>

    <junction id="10" type="dead_end" x="910.73" y="784.61" incLanes="8057_0" intLanes="" shape="911.98,785.84 909.48,783.39" rightOfWay="edgePriority"/>
    <junction id="11" type="dead_end" x="908.20" y="782.19" incLanes="" intLanes="" shape="909.45,783.42 906.95,780.97" rightOfWay="edgePriority"/>
    <junction id="12" type="dead_end" x="885.91" y="685.60" incLanes="" intLanes="" shape="885.52,687.31 886.29,683.90" rightOfWay="edgePriority"/>
    <junction id="13" type="dead_end" x="999.63" y="728.96" incLanes="" intLanes="" shape="1000.38,727.38 998.87,730.53" rightOfWay="edgePriority"/>
    <junction id="14" type="dead_end" x="1041.67" y="651.04" incLanes="" intLanes="" shape="1040.42,649.81 1042.91,652.26" rightOfWay="edgePriority"/>
    <junction id="18" type="priority" x="971.34" y="715.22" incLanes="8054_0 8040_0 8052_0 8058_0" intLanes=":18_0_0 :18_1_0 :18_2_0 :18_3_0 :18_4_0 :18_5_0 :18_6_0 :18_7_0 :18_8_0 :18_9_0 :18_10_0 :18_11_0" shape="997.72,729.98 999.23,726.82 1004.19,725.98 1001.06,727.54 981.89,714.23 976.90,709.32 956.19,708.22 957.41,704.94 953.63,703.53 951.25,710.11 956.55,712.56 960.05,715.42 961.75,718.70 961.64,722.38 959.72,726.47 956.01,730.97 961.00,735.87 964.06,732.42 966.21,729.56 968.02,727.20 970.07,725.26 972.93,723.64 977.17,722.25 975.20,719.14 980.40,721.96 985.76,724.49 991.26,727.03">
        <request index="0" response="100000010000" foes="100100010000" cont="0"/>
        <request index="1" response="011000110000" foes="011100110000" cont="0"/>
        <request index="2" response="010001110000" foes="010001110000" cont="0"/>
        <request index="3" response="000000000000" foes="000000000000" cont="0"/>
        <request index="4" response="000000000000" foes="100100000111" cont="0"/>
        <request index="5" response="011000000000" foes="011100000110" cont="0"/>
        <request index="6" response="010000000000" foes="010000000100" cont="0"/>
        <request index="7" response="000000000000" foes="000000000000" cont="0"/>
        <request index="8" response="110000110011" foes="110000110011" cont="0"/>
        <request index="9" response="000000000000" foes="000000100010" cont="0"/>
        <request index="10" response="000000000000" foes="000101100110" cont="0"/>
        <request index="11" response="000000010000" foes="000100010001" cont="0"/>
    </junction>
    <junction id="19" type="dead_end" x="996.39" y="723.53" incLanes="8563_0 8570_0 8579_0" intLanes="" shape="997.20,721.97 995.59,725.08 997.13,721.94 995.66,725.11 997.08,721.92 995.71,725.14"/>
    <junction id="3" type="dead_end" x="884.68" y="688.91" incLanes="8051_0" intLanes="" shape="884.29,690.62 885.07,687.21" rightOfWay="edgePriority"/>
    <junction id="8" type="dead_end" x="1039.18" y="648.58" incLanes="8041_0" intLanes="" shape="1037.93,647.35 1040.42,649.81" rightOfWay="edgePriority"/>

    <connection from="8040" to="8563" fromLane="0" toLane="0" contPos="-4.00" via=":18_3_0" dir="r" state="M"/>
    <connection from="8040" to="8057" fromLane="0" toLane="0" contPos="-4.00" shape="992.55,700.91 985.37,708.21 959.76,734.65" via=":18_4_0" dir="s" state="M"/>
    <connection from="8040" to="8051" fromLane="0" toLane="0" contPos="-4.00" shape="992.55,700.91 990.00,703.30 987.27,705.44 984.34,707.32 981.24,708.89 977.99,710.12 974.62,710.97 971.18,711.47 967.71,711.60 964.24,711.42 960.79,710.93 957.40,710.19 952.96,708.86 951.85,708.47" via=":18_5_0" dir="L" state="m"/>
    <connection from="8052" to="8041" fromLane="0" toLane="0" contPos="-4.00" shape="953.06,705.18 954.05,705.54 958.18,706.78 961.29,707.46 964.44,707.91 967.60,708.09 970.74,707.97 973.84,707.54 976.87,706.77 979.80,705.68 982.60,704.27 985.25,702.58 987.73,700.63 990.06,698.45" via=":18_6_0" dir="R" state="m"/>
    <connection from="8052" to="8570" fromLane="0" toLane="0" contPos="-4.00" via=":18_7_0" dir="s" state="M"/>
    <connection from="8052" to="8057" fromLane="0" toLane="0" contPos="-4.00" shape="953.06,705.18 957.28,706.94 959.98,708.35 962.51,710.04 963.69,711.00 964.78,712.06 965.76,713.23 966.59,714.50 967.24,715.87 967.68,717.33 967.90,718.83 967.89,720.36 967.68,721.86 967.29,723.33 966.77,724.76 966.12,726.14 964.57,728.76 962.77,731.22 959.76,734.65" via=":18_8_0" dir="l" state="m"/>
    <connection from="8054" to="8057" fromLane="0" toLane="0" contPos="-4.00" shape="994.89,726.69 991.99,725.45 988.99,724.48 985.90,723.84 982.75,723.56 979.60,723.69 977.52,723.99 974.46,724.77 971.52,725.92 968.72,727.38 966.08,729.10 963.59,731.04 961.24,733.15 959.76,734.65" via=":18_0_0" dir="R" state="m"/>
    <connection from="8054" to="8051" fromLane="0" toLane="0" contPos="-4.00" shape="994.89,726.69 981.98,720.71 969.85,715.49 957.58,710.60 951.85,708.47" via=":18_1_0" dir="s" state="m"/>
    <connection from="8054" to="8041" fromLane="0" toLane="0" contPos="-4.00" shape="994.89,726.69 992.21,725.29 989.64,723.70 987.25,721.85 986.15,720.81 985.15,719.69 984.26,718.47 983.51,717.15 982.95,715.75 982.58,714.29 982.44,712.78 982.52,711.27 982.79,709.79 983.22,708.34 983.80,706.94 984.48,705.60 986.11,703.05 987.99,700.68 990.06,698.45" via=":18_2_0" dir="l" state="m"/>
    <connection from="8058" to="8051" fromLane="0" toLane="0" contPos="-4.00" shape="957.23,732.23 959.86,729.24 961.39,727.16 962.70,724.94 963.21,723.84 963.63,722.70 963.93,721.55 964.10,720.40 964.11,719.28 963.95,718.18 963.63,717.11 963.15,716.10 962.52,715.14 961.76,714.23 960.89,713.39 959.95,712.62 957.81,711.19 955.53,709.99 951.85,708.47" via=":18_9_0" dir="r" state="M"/>
    <connection from="8058" to="8041" fromLane="0" toLane="0" contPos="-4.00" shape="957.23,732.23 982.87,705.76 990.06,698.45" via=":18_10_0" dir="s" state="M"/>
    <connection from="8058" to="8579" fromLane="0" toLane="0" contPos="-4.00" via=":18_11_0" dir="l" state="m"/>

    <connection from=":18_0" to="8057" fromLane="0" toLane="0" dir="R" state="M"/>
    <connection from=":18_1" to="8051" fromLane="0" toLane="0" dir="s" state="M"/>
    <connection from=":18_2" to="8041" fromLane="0" toLane="0" dir="l" state="M"/>
    <connection from=":18_3" to="8563" fromLane="0" toLane="0" dir="r" state="M"/>
    <connection from=":18_4" to="8057" fromLane="0" toLane="0" dir="s" state="M"/>
    <connection from=":18_5" to="8051" fromLane="0" toLane="0" dir="L" state="M"/>
    <connection from=":18_6" to="8041" fromLane="0" toLane="0" dir="R" state="M"/>
    <connection from=":18_7" to="8570" fromLane="0" toLane="0" dir="s" state="M"/>
    <connection from=":18_8" to="8057" fromLane="0" toLane="0" dir="l" state="M"/>
    <connection from=":18_9" to="8051" fromLane="0" toLane="0" dir="r" state="M"/>
    <connection from=":18_10" to="8041" fromLane="0" toLane="0" dir="s" state="M"/>
    <connection from=":18_11" to="8579" fromLane="0" toLane="0" dir="l" state="M"/>

</net>