<routes>
	<vehicle depart="0.1" departLane="0" departPos="56.400022682469526" departSpeed="0.0" id="311" type="bicycle">
		<route edges="8052 8057"/>
	</vehicle>
	<vehicle depart="0.1" departLane="0" departPos="53.39378331026773" departSpeed="0.0" id="314" type="bicycle">
		<route edges="8052 8057"/>
	</vehicle>
	<vehicle depart="0.1" departLane="0" departPos="62.39540879387898" departSpeed="0.0" id="34" type="passenger">
		<route edges="8052 8057"/>
	</vehicle>
	<vehicle depart="0.1" departLane="0" departPos="54.8811486355167" departSpeed="0.0" id="313" type="passenger">
		<route edges="8052 8057"/>
	</vehicle>
	<vehicle depart="0.1" departLane="0" departPos="19.927449102502347" departSpeed="8.7014408" id="316" type="passenger">
		<route edges="8051"/>
	</vehicle>
	<vehicle depart="0.1" departLane="0" departPos="47.663403933484666" departSpeed="0.0" id="318" type="passenger">
		<route edges="8052 8057"/>
	</vehicle>
	<vehicle depart="0.1" departLane="0" departPos="40.43126294562657" departSpeed="0.0" id="322" type="passenger">
		<route edges="8052 8057"/>
	</vehicle>
	<vehicle depart="0.1" departLane="0" departPos="32.93134405280544" departSpeed="2.6674464e-05" id="324" type="passenger">
		<route edges="8052 8057"/>
	</vehicle>
	<vehicle depart="0.1" departLane="0" departPos="25.431013223534443" departSpeed="0.00021164757" id="326" type="passenger">
		<route edges="8052 8057"/>
	</vehicle>
	<vehicle depart="0.1" departLane="0" departPos="17.92973414248236" departSpeed="0.0010223763" id="329" type="passenger">
		<route edges="8052 8057"/>
	</vehicle>
</routes>
