<routes>
	<vehicle depart="0.1" departLane="0" departPos="90.5362562533361" departSpeed="6.8613778" id="39" type="bicycle">
		<route edges="339 16"/>
	</vehicle>
	<vehicle depart="0.1" departLane="0" departPos="35.2875231806776" departSpeed="6.9108424" id="312" type="bicycle">
		<route edges="16"/>
	</vehicle>
	<vehicle depart="0.1" departLane="0" departPos="24.314931872497546" departSpeed="0.32998795" id="360" type="bicycle">
		<route edges="40 29"/>
	</vehicle>
	<vehicle depart="0.1" departLane="0" departPos="37.06545661326569" departSpeed="0.14574677" id="356" type="bus">
		<route edges="40 29"/>
	</vehicle>
	<vehicle depart="0.1" departLane="0" departPos="26.028555649747133" departSpeed="5.5630608" id="381" type="bus">
		<route edges="337 340 32"/>
	</vehicle>
	<vehicle depart="0.1" departLane="0" departPos="28.204424077294835" departSpeed="0.0" id="34" type="passenger">
		<route edges="29 32"/>
	</vehicle>
	<vehicle depart="0.1" departLane="0" departPos="35.93840291405614" departSpeed="0.0" id="313" type="passenger">
		<route edges="19 340"/>
	</vehicle>
	<vehicle depart="0.1" departLane="0" departPos="62.99632085149281" departSpeed="0.0" id="314" type="passenger">
		<route edges="17 340"/>
	</vehicle>
	<vehicle depart="0.1" departLane="0" departPos="35.341355728645624" departSpeed="0.0" id="316" type="passenger">
		<route edges="29 32"/>
	</vehicle>
	<vehicle depart="0.1" departLane="0" departPos="149.38959738534064" departSpeed="0.0" id="317" type="passenger">
		<route edges="340 343"/>
	</vehicle>
	<vehicle depart="0.1" departLane="0" departPos="70.03365292916799" departSpeed="0.0" id="318" type="passenger">
		<route edges="17 340"/>
	</vehicle>
	<vehicle depart="0.1" departLane="0" departPos="51.77575573797025" departSpeed="16.642674" id="319" type="passenger">
		<route edges="340 32"/>
	</vehicle>
	<vehicle depart="0.1" departLane="0" departPos="56.215475319875026" departSpeed="0.0" id="322" type="passenger">
		<route edges="17 340"/>
	</vehicle>
	<vehicle depart="0.1" departLane="0" departPos="28.53695675391279" departSpeed="0.0" id="325" type="passenger">
		<route edges="19 340"/>
	</vehicle>
	<vehicle depart="0.1" departLane="0" departPos="29.477686174248973" departSpeed="14.324029" id="327" type="passenger">
		<route edges="340 32"/>
	</vehicle>
	<vehicle depart="0.1" departLane="0" departPos="21.27319073143472" departSpeed="0.0" id="332" type="passenger">
		<route edges="19 340"/>
	</vehicle>
	<vehicle depart="0.1" departLane="0" departPos="49.25727037647631" departSpeed="0.0" id="333" type="passenger">
		<route edges="17 340"/>
	</vehicle>
	<vehicle depart="0.1" departLane="0" departPos="12.224233857598987" departSpeed="12.882656" id="338" type="passenger">
		<route edges="340 32"/>
	</vehicle>
	<vehicle depart="0.1" departLane="0" departPos="41.8992645317946" departSpeed="1.4785923e-05" id="341" type="passenger">
		<route edges="17 340"/>
	</vehicle>
	<vehicle depart="0.1" departLane="0" departPos="14.308137315858232" departSpeed="0.0" id="350" type="passenger">
		<route edges="19 340"/>
	</vehicle>
	<vehicle depart="0.1" departLane="0" departPos="29.74216239553712" departSpeed="0.00058061406" id="352" type="passenger">
		<route edges="17 340"/>
	</vehicle>
	<vehicle depart="0.1" departLane="0" departPos="75.76746027527503" departSpeed="19.374488" id="358" type="passenger">
		<route edges="339 16"/>
	</vehicle>
	<vehicle depart="0.1" departLane="0" departPos="13.126260328385513" departSpeed="11.852893" id="359" type="passenger">
		<route edges=":39_4 340 32"/>
	</vehicle>
	<vehicle depart="0.1" departLane="0" departPos="22.702161518485827" departSpeed="0.0022717428" id="361" type="passenger">
		<route edges="17 340"/>
	</vehicle>
	<vehicle depart="0.1" departLane="0" departPos="52.51619796765916" departSpeed="17.287353" id="362" type="passenger">
		<route edges="339 16"/>
	</vehicle>
	<vehicle depart="0.1" departLane="0" departPos="7.4356112594130614" departSpeed="4.901844e-05" id="364" type="passenger">
		<route edges="19 340"/>
	</vehicle>
	<vehicle depart="0.1" departLane="0" departPos="22.715317304243104" departSpeed="0.31255529" id="365" type="passenger">
		<route edges="40 29"/>
	</vehicle>
	<vehicle depart="0.1" departLane="0" departPos="32.4425069250589" departSpeed="16.003833" id="367" type="passenger">
		<route edges="339 16"/>
	</vehicle>
	<vehicle depart="0.1" departLane="0" departPos="15.705589975811387" departSpeed="0.0079324578" id="368" type="passenger">
		<route edges="17 340"/>
	</vehicle>
	<vehicle depart="0.1" departLane="0" departPos="13.164202130677161" departSpeed="14.766247" id="370" type="passenger">
		<route edges="339 16"/>
	</vehicle>
	<vehicle depart="0.1" departLane="0" departPos="15.452460554651308" departSpeed="0.50397163" id="373" type="passenger">
		<route edges="40 29"/>
	</vehicle>
	<vehicle depart="0.1" departLane="0" departPos="4.598354660733148" departSpeed="9.0179592" id="374" type="passenger">
		<route edges=":37_11 28 25"/>
	</vehicle>
	<vehicle depart="0.1" departLane="0" departPos="8.697018223501631" departSpeed="0.021651358" id="375" type="passenger">
		<route edges="17 340"/>
	</vehicle>
	<vehicle depart="0.1" departLane="0" departPos="59.06486964186458" departSpeed="8.672888" id="376" type="passenger">
		<route edges="342 339 16"/>
	</vehicle>
	<vehicle depart="0.1" departLane="0" departPos="7.9413171706330505" departSpeed="0.67411893" id="380" type="passenger">
		<route edges="40 29"/>
	</vehicle>
	<vehicle depart="0.1" departLane="0" departPos="8.50318585850831" departSpeed="3.3195014" id="383" type="passenger">
		<route edges="337 340 32"/>
	</vehicle>
	<vehicle depart="0.1" departLane="0" departPos="34.53971537694594" departSpeed="0.00011052723" id="345" type="motorcycle">
		<route edges="17 340"/>
	</vehicle>
	<vehicle depart="0.1" departLane="0" departPos="47.53608262814795" departSpeed="11.38162" id="30" type="truck">
		<route edges="16"/>
	</vehicle>
	<vehicle depart="0.1" departLane="0" departPos="45.54156060067209" departSpeed="0.0" id="320" type="truck">
		<route edges="19 340"/>
	</vehicle>
	<vehicle depart="0.1" departLane="0" departPos="69.91643923764924" departSpeed="0.0" id="326" type="truck">
		<route edges="31 343"/>
	</vehicle>
</routes>
