<routes>
	<vehicle depart="0.1" departLane="0" departPos="13.971421639765707" departSpeed="5.7268749" id="313" type="bicycle">
		<route edges="89365 89368"/>
	</vehicle>
	<vehicle depart="0.1" departLane="0" departPos="31.430457381719222" departSpeed="0.0" id="31" type="passenger">
		<route edges=":30_1 89558"/>
	</vehicle>
	<vehicle depart="0.1" departLane="0" departPos="39.01570746250634" departSpeed="23.024914" id="340" type="passenger">
		<route edges=":29_0 89368"/>
	</vehicle>
	<vehicle depart="0.1" departLane="0" departPos="23.496596465181465" departSpeed="13.634936" id="343" type="passenger">
		<route edges="89365 89368"/>
	</vehicle>
	<vehicle depart="0.1" departLane="0" departPos="27.368780958970135" departSpeed="16.007042" id="344" type="passenger">
		<route edges=":31_1 89365 89368"/>
	</vehicle>
</routes>
