<!-- generated on Tue Feb  9 22:19:35 2021 by Eclipse SUMO netconvert Version 1.8.0
<configuration xmlns:xsi="http://www.w3.org/2001/XMLSchema-instance" xsi:noNamespaceSchemaLocation="http://sumo.dlr.de/xsd/netconvertConfiguration.xsd">

    <input>
        <node-files value="./converted_scenarios/scenario-factory/DEU_Ibbenbueren-9_1_I-1-1/DEU_Ibbenbueren-9_1_I-1-1.nod.xml"/>
        <edge-files value="./converted_scenarios/scenario-factory/DEU_Ibbenbueren-9_1_I-1-1/DEU_Ibbenbueren-9_1_I-1-1.edg.xml"/>
        <connection-files value="./converted_scenarios/scenario-factory/DEU_Ibbenbueren-9_1_I-1-1/DEU_Ibbenbueren-9_1_I-1-1.con.xml"/>
        <tllogic-files value="./converted_scenarios/scenario-factory/DEU_Ibbenbueren-9_1_I-1-1/DEU_Ibbenbueren-9_1_I-1-1.tll.xml"/>
        <type-files value="/home/zen/commonroad-interactive-benchmarks/install/commonroad-map-tool/crmapconverter/sumo_map/templates/DEU.typ.xml"/>
    </input>

    <output>
        <output-file value="./converted_scenarios/scenario-factory/DEU_Ibbenbueren-9_1_I-1-1/DEU_Ibbenbueren-9_1_I-1-1.net.xml"/>
    </output>

    <processing>
        <geometry.remove.keep-edges.explicit value="true"/>
        <geometry.avoid-overlap value="true"/>
        <offset.disable-normalization value="true"/>
    </processing>

    <junctions>
        <no-turnarounds value="true"/>
        <junctions.internal-link-detail value="20"/>
    </junctions>

    <report>
        <aggregate-warnings value="5"/>
    </report>

    <random_number>
        <seed value="1234"/>
    </random_number>

</configuration>
--><net xmlns:xsi="http://www.w3.org/2001/XMLSchema-instance" version="1.6" junctionCornerDetail="5" junctionLinkDetail="20" limitTurnSpeed="5.50" xsi:noNamespaceSchemaLocation="http://sumo.dlr.de/xsd/net_file.xsd">

    <location netOffset="0.00,0.00" convBoundary="-802.13,567.67,-580.83,806.54" origBoundary="-802.13,567.67,-580.83,806.54" projParameter="!"/>

    <type id="highway.bridleway" priority="1" speed="2.78" allow="pedestrian" oneway="1" width="2.00"/>
    <type id="highway.bus_guideway" priority="1" speed="27.78" allow="bus" oneway="1"/>
    <type id="highway.cycleway" priority="1" speed="8.33" allow="bicycle" oneway="0" width="1.00"/>
    <type id="highway.footway" priority="1" speed="2.78" allow="pedestrian" oneway="1" width="2.00"/>
    <type id="highway.ford" priority="1" speed="2.78" allow="army" oneway="0"/>
    <type id="highway.living_street" priority="2" speed="2.78" disallow="tram rail_urban rail rail_electric rail_fast ship" oneway="0"/>
    <type id="highway.motorway" priority="14" speed="39.44" allow="private emergency authority army vip passenger hov taxi bus coach delivery truck trailer motorcycle evehicle custom1 custom2" oneway="1"/>
    <type id="highway.motorway_link" priority="9" speed="22.22" allow="private emergency authority army vip passenger hov taxi bus coach delivery truck trailer motorcycle evehicle custom1 custom2" oneway="1"/>
    <type id="highway.path" priority="1" speed="2.78" allow="pedestrian bicycle" oneway="0" width="2.00"/>
    <type id="highway.pedestrian" priority="1" speed="2.78" allow="pedestrian" oneway="1" width="2.00"/>
    <type id="highway.primary" priority="12" speed="27.78" disallow="pedestrian tram rail_urban rail rail_electric rail_fast ship" oneway="0"/>
    <type id="highway.primary_link" priority="7" speed="22.22" disallow="pedestrian tram rail_urban rail rail_electric rail_fast ship" oneway="0"/>
    <type id="highway.raceway" priority="15" speed="83.33" allow="vip" oneway="0"/>
    <type id="highway.residential" priority="3" speed="13.89" disallow="pedestrian tram rail_urban rail rail_electric rail_fast ship" oneway="0"/>
    <type id="highway.secondary" priority="11" speed="27.78" disallow="pedestrian tram rail_urban rail rail_electric rail_fast ship" oneway="0"/>
    <type id="highway.secondary_link" priority="6" speed="22.22" disallow="pedestrian tram rail_urban rail rail_electric rail_fast ship" oneway="0"/>
    <type id="highway.service" priority="1" speed="5.56" allow="pedestrian delivery bicycle" oneway="0"/>
    <type id="highway.stairs" priority="1" speed="1.39" allow="pedestrian" oneway="1" width="2.00"/>
    <type id="highway.step" priority="1" speed="1.39" allow="pedestrian" oneway="1" width="2.00"/>
    <type id="highway.steps" priority="1" speed="1.39" allow="pedestrian" oneway="1" width="2.00"/>
    <type id="highway.tertiary" priority="10" speed="22.22" disallow="pedestrian tram rail_urban rail rail_electric rail_fast ship" oneway="0"/>
    <type id="highway.tertiary_link" priority="5" speed="22.22" disallow="pedestrian tram rail_urban rail rail_electric rail_fast ship" oneway="0"/>
    <type id="highway.track" priority="1" speed="5.56" allow="pedestrian motorcycle moped bicycle" oneway="0"/>
    <type id="highway.trunk" priority="13" speed="27.78" disallow="pedestrian bicycle tram rail_urban rail rail_electric rail_fast ship" oneway="0"/>
    <type id="highway.trunk_link" priority="8" speed="22.22" disallow="pedestrian bicycle tram rail_urban rail rail_electric rail_fast ship" oneway="0"/>
    <type id="highway.unclassified" priority="4" speed="13.89" disallow="pedestrian tram rail_urban rail rail_electric rail_fast ship" oneway="0"/>
    <type id="highway.unsurfaced" priority="1" speed="8.33" disallow="tram rail_urban rail rail_electric rail_fast ship" oneway="0"/>
    <type id="railway.highspeed" priority="21" speed="69.44" allow="rail_fast" oneway="1"/>
    <type id="railway.light_rail" priority="19" speed="27.78" allow="rail_urban" oneway="1"/>
    <type id="railway.preserved" priority="16" speed="27.78" allow="rail" oneway="1"/>
    <type id="railway.rail" priority="20" speed="44.44" allow="rail" oneway="1"/>
    <type id="railway.subway" priority="18" speed="27.78" allow="rail_urban" oneway="1"/>
    <type id="railway.tram" priority="17" speed="13.89" allow="tram" oneway="1"/>

    <edge id=":1_0" function="internal">
        <lane id=":1_0_0" index="0" disallow="pedestrian tram rail_urban rail rail_electric rail_fast ship" speed="36.11" length="2.98" width="3.50" shape="-691.78,685.61 -690.20,688.14"/>
    </edge>
    <edge id=":1_1" function="internal">
        <lane id=":1_1_0" index="0" disallow="pedestrian tram rail_urban rail rail_electric rail_fast ship" speed="36.11" length="2.98" width="3.50" shape="-691.92,685.71 -690.20,688.14"/>
    </edge>
    <edge id=":17_0" function="internal">
        <lane id=":17_0_0" index="0" disallow="pedestrian tram rail_urban rail rail_electric rail_fast ship" speed="36.11" length="2.96" width="3.50" shape="-768.43,678.79 -770.92,680.39"/>
    </edge>
    <edge id=":20_0" function="internal">
        <lane id=":20_0_0" index="0" disallow="pedestrian tram rail_urban rail rail_electric rail_fast ship" speed="36.11" length="2.99" width="3.50" shape="-730.25,627.26 -731.50,624.54"/>
    </edge>
    <edge id=":32_0" function="internal">
        <lane id=":32_0_0" index="0" disallow="pedestrian tram rail_urban rail rail_electric rail_fast ship" speed="36.11" length="2.97" width="3.50" shape="-777.93,680.80 -775.43,679.19"/>
    </edge>
    <edge id=":41_0" function="internal">
        <lane id=":41_0_0" index="0" disallow="pedestrian tram rail_urban rail rail_electric rail_fast ship" speed="36.11" length="2.98" width="3.26" shape="-728.33,623.07 -727.08,625.78"/>
    </edge>
    <edge id=":45_0" function="internal">
        <lane id=":45_0_0" index="0" disallow="pedestrian tram rail_urban rail rail_electric rail_fast ship" speed="36.11" length="7.84" width="3.49" shape="-691.75,692.21 -692.06,691.71 -692.34,691.26 -692.58,690.85 -692.81,690.48 -693.02,690.14 -693.21,689.83 -693.39,689.54 -693.57,689.27 -693.74,689.01 -693.92,688.76 -694.11,688.50 -694.31,688.25 -694.52,687.98 -694.75,687.70 -695.01,687.40 -695.29,687.08 -695.61,686.72 -695.96,686.33 -696.36,685.90"/>
        <lane id=":45_0_1" index="1" disallow="pedestrian tram rail_urban rail rail_electric rail_fast ship" speed="36.11" length="7.84" width="3.45" shape="-691.75,692.21 -692.06,691.71 -692.34,691.26 -692.58,690.85 -692.81,690.48 -693.02,690.14 -693.21,689.83 -693.39,689.54 -693.57,689.27 -693.74,689.01 -693.92,688.76 -694.11,688.50 -694.31,688.25 -694.52,687.98 -694.75,687.70 -695.01,687.40 -695.29,687.08 -695.61,686.72 -695.96,686.33 -696.36,685.90"/>
    </edge>
    <edge id=":47_0" function="internal">
        <lane id=":47_0_0" index="0" disallow="pedestrian tram rail_urban rail rail_electric rail_fast ship" speed="15.95" length="31.21" width="3.50" shape="-655.76,712.68 -658.29,714.55 -660.61,716.63 -662.69,718.93 -664.50,721.44 -666.02,724.14 -667.22,727.00 -668.12,729.98 -668.73,733.05 -669.07,736.18 -669.17,739.34"/>
    </edge>
    <edge id=":47_1" function="internal">
        <lane id=":47_1_0" index="0" disallow="pedestrian tram rail_urban rail rail_electric rail_fast ship" speed="11.93" length="34.90" width="3.50" shape="-655.76,712.68 -657.98,714.06 -660.31,715.26 -662.79,716.23 -665.38,716.88 -666.77,717.07 -668.16,717.13 -669.56,717.06 -670.95,716.86 -672.31,716.51 -673.63,716.04 -674.89,715.44 -676.08,714.74 -677.22,713.92 -679.21,712.15 -680.96,710.16 -682.50,708.03 -684.43,704.75"/>
    </edge>
    <edge id=":47_2" function="internal">
        <lane id=":47_2_0" index="0" disallow="pedestrian tram rail_urban rail rail_electric rail_fast ship" speed="10.90" length="28.98" width="3.50" shape="-681.38,703.04 -679.67,705.96 -678.37,707.77 -676.90,709.44 -675.24,710.92 -674.34,711.57 -673.38,712.14 -672.38,712.62 -671.33,713.01 -670.26,713.28 -669.16,713.45 -668.04,713.51 -666.93,713.46 -665.83,713.32 -663.67,712.78 -661.60,711.97 -659.62,710.96 -657.73,709.78"/>
    </edge>
    <edge id=":47_3" function="internal">
        <lane id=":47_3_0" index="0" disallow="pedestrian tram rail_urban rail rail_electric rail_fast ship" speed="28.06" length="38.61" width="3.50" shape="-681.38,703.04 -677.57,710.65 -674.57,717.45 -672.32,723.43 -670.77,728.57 -669.83,732.79 -669.36,736.04 -669.17,739.34"/>
    </edge>
    <edge id=":47_4" function="internal">
        <lane id=":47_4_0" index="0" disallow="pedestrian tram rail_urban rail rail_electric rail_fast ship" speed="27.34" length="36.83" width="3.50" shape="-672.67,739.34 -672.85,736.29 -673.30,733.25 -674.20,729.25 -675.70,724.35 -677.88,718.60 -680.78,712.04 -684.43,704.75"/>
    </edge>
    <edge id=":47_5" function="internal">
        <lane id=":47_5_0" index="0" disallow="pedestrian tram rail_urban rail rail_electric rail_fast ship" speed="16.81" length="34.63" width="3.50" shape="-672.67,739.34 -672.56,735.90 -672.18,732.45 -671.50,729.06 -670.50,725.74 -669.15,722.55 -667.45,719.53 -665.42,716.72 -663.09,714.15 -660.51,711.84 -657.73,709.78"/>
    </edge>
    <edge id=":48_0" function="internal">
        <lane id=":48_0_0" index="0" disallow="pedestrian tram rail_urban rail rail_electric rail_fast ship" speed="8.86" length="18.27" width="3.50" shape="-718.48,654.61 -721.37,649.80 -721.81,649.44 -722.36,649.27 -722.93,649.30 -724.00,649.72 -725.42,650.71 -730.51,655.39 -731.43,656.08"/>
    </edge>
    <edge id=":48_1" function="internal">
        <lane id=":48_1_0" index="0" disallow="pedestrian tram rail_urban rail rail_electric rail_fast ship" speed="36.11" length="19.48" width="3.50" shape="-718.48,654.61 -721.88,648.36 -722.67,645.31 -723.40,642.26 -725.82,636.68"/>
    </edge>
    <edge id=":48_2" function="internal">
        <lane id=":48_2_0" index="0" disallow="pedestrian tram rail_urban rail rail_electric rail_fast ship" speed="10.10" length="24.43" width="3.50" shape="-715.57,652.65 -718.65,646.98 -718.88,645.84 -718.89,644.68 -718.68,643.54 -718.02,641.94 -717.05,640.49 -715.46,638.81 -713.20,636.99 -710.27,635.11 -708.23,634.00"/>
    </edge>
    <edge id=":48_3" function="internal">
        <lane id=":48_3_0" index="0" disallow="pedestrian tram rail_urban rail rail_electric rail_fast ship" speed="8.36" length="16.37" width="3.34" shape="-705.10,640.27 -710.58,643.26 -713.26,644.97 -714.49,645.97 -714.83,646.38 -712.66,650.69"/>
    </edge>
    <edge id=":48_4" function="internal">
        <lane id=":48_4_0" index="0" disallow="pedestrian tram rail_urban rail rail_electric rail_fast ship" speed="8.36" length="16.37" width="3.34" shape="-705.10,640.27 -710.58,643.26 -713.26,644.97 -714.49,645.97 -714.83,646.38 -712.66,650.69"/>
    </edge>
    <edge id=":48_5" function="internal">
        <lane id=":48_5_0" index="0" disallow="pedestrian tram rail_urban rail rail_electric rail_fast ship" speed="36.11" length="30.73" width="3.50" shape="-705.10,640.27 -712.99,644.58 -721.67,649.77 -731.43,656.08"/>
    </edge>
    <edge id=":48_6" function="internal">
        <lane id=":48_6_0" index="0" disallow="pedestrian tram rail_urban rail rail_electric rail_fast ship" speed="9.93" length="22.71" width="3.50" shape="-706.62,637.11 -710.94,639.23 -714.29,640.66 -716.62,641.46 -717.87,641.79 -719.20,642.01 -720.65,642.02 -722.16,641.61 -725.82,636.68"/>
    </edge>
    <edge id=":48_7" function="internal">
        <lane id=":48_7_0" index="0" disallow="pedestrian tram rail_urban rail rail_electric rail_fast ship" speed="9.03" length="18.68" width="3.50" shape="-723.14,634.16 -720.03,639.06 -719.06,638.87 -718.11,638.58 -717.18,638.23 -716.26,637.86 -714.45,637.07 -711.77,635.79 -708.23,634.00"/>
    </edge>
    <edge id=":48_8" function="internal">
        <lane id=":48_8_0" index="0" disallow="pedestrian tram rail_urban rail rail_electric rail_fast ship" speed="36.11" length="19.66" width="3.34" shape="-723.14,634.16 -719.87,640.65 -717.83,643.10 -715.78,645.54 -712.66,650.69"/>
    </edge>
    <edge id=":48_9" function="internal">
        <lane id=":48_9_0" index="0" disallow="pedestrian tram rail_urban rail rail_electric rail_fast ship" speed="36.11" length="19.66" width="3.34" shape="-723.14,634.16 -719.87,640.65 -717.83,643.10 -715.78,645.54 -712.66,650.69"/>
    </edge>
    <edge id=":48_10" function="internal">
        <lane id=":48_10_0" index="0" disallow="pedestrian tram rail_urban rail rail_electric rail_fast ship" speed="11.54" length="27.09" width="3.50" shape="-723.14,634.16 -720.40,640.41 -720.21,642.09 -720.39,643.77 -720.90,645.38 -721.66,646.89 -722.94,648.74 -724.83,650.83 -727.35,653.08 -730.97,655.77 -731.43,656.08"/>
    </edge>
    <edge id=":48_11" function="internal">
        <lane id=":48_11_0" index="0" disallow="pedestrian tram rail_urban rail rail_electric rail_fast ship" speed="8.78" length="15.22" width="3.50" shape="-735.33,650.26 -729.70,646.31 -726.40,643.66 -724.91,642.16 -724.30,641.30 -724.10,640.81 -723.92,640.44"/>
    </edge>
    <edge id=":48_12" function="internal">
        <lane id=":48_12_0" index="0" disallow="pedestrian tram rail_urban rail rail_electric rail_fast ship" speed="36.11" length="31.62" width="3.50" shape="-735.33,650.26 -725.48,643.90 -716.73,638.65 -708.68,634.24 -708.23,634.00"/>
    </edge>
    <edge id=":48_13" function="internal">
        <lane id=":48_13_0" index="0" disallow="pedestrian tram rail_urban rail rail_electric rail_fast ship" speed="10.32" length="25.22" width="3.34" shape="-733.38,653.17 -727.82,649.67 -723.96,647.59 -720.94,646.31 -718.83,645.72 -717.20,645.60 -716.13,645.82 -715.65,646.08 -715.23,646.44 -712.66,650.69"/>
    </edge>
    <edge id=":48_14" function="internal">
        <lane id=":48_14_0" index="0" disallow="pedestrian tram rail_urban rail rail_electric rail_fast ship" speed="10.32" length="25.22" width="3.34" shape="-733.38,653.17 -727.82,649.67 -723.96,647.59 -720.94,646.31 -718.83,645.72 -717.20,645.60 -716.13,645.82 -715.65,646.08 -715.23,646.44 -712.66,650.69"/>
    </edge>
    <edge id=":49_0" function="internal">
        <lane id=":49_0_0" index="0" disallow="pedestrian tram rail_urban rail rail_electric rail_fast ship" speed="13.95" length="30.44" width="3.50" shape="-598.06,614.76 -599.66,613.75 -602.59,612.37 -605.64,611.33 -608.79,610.60 -612.52,610.09 -616.83,609.91 -621.67,610.13 -626.48,610.71 -627.55,610.88"/>
    </edge>
    <edge id=":49_1" function="internal">
        <lane id=":49_1_0" index="0" disallow="pedestrian tram rail_urban rail rail_electric rail_fast ship" speed="36.11" length="41.18" width="3.50" shape="-586.54,610.66 -592.66,609.87 -598.82,609.36 -604.99,609.13 -611.17,609.21 -617.34,609.59 -623.48,610.27 -627.55,610.88"/>
    </edge>
    <edge id=":49_2" function="internal">
        <lane id=":49_2_0" index="0" disallow="pedestrian tram rail_urban rail rail_electric rail_fast ship" speed="36.11" length="21.95" width="3.50" shape="-628.82,604.00 -607.28,599.80"/>
    </edge>
    <edge id=":49_3" function="internal">
        <lane id=":49_3_0" index="0" disallow="pedestrian tram rail_urban rail rail_electric rail_fast ship" speed="36.11" length="42.33" width="3.49" shape="-628.18,607.44 -623.94,606.80 -617.64,606.10 -611.30,605.71 -604.96,605.64 -598.62,605.86 -592.30,606.39 -586.03,607.20"/>
    </edge>
    <edge id=":51_0" function="internal">
        <lane id=":51_0_0" index="0" disallow="pedestrian tram rail_urban rail rail_electric rail_fast ship" speed="36.11" length="7.34" width="3.50" shape="-674.95,624.88 -678.22,626.15 -678.42,626.23 -681.68,627.79"/>
        <lane id=":51_0_1" index="1" disallow="pedestrian tram rail_urban rail rail_electric rail_fast ship" speed="36.11" length="7.35" width="3.50" shape="-674.95,624.88 -678.22,626.15 -678.42,626.23 -681.80,627.54"/>
    </edge>
    <edge id=":52_0" function="internal">
        <lane id=":52_0_0" index="0" disallow="pedestrian tram rail_urban rail rail_electric rail_fast ship" speed="36.11" length="8.03" width="3.50" shape="-763.15,670.33 -756.86,665.34"/>
        <lane id=":52_0_1" index="1" disallow="pedestrian tram rail_urban rail rail_electric rail_fast ship" speed="36.11" length="8.05" width="3.50" shape="-762.55,671.24 -755.52,667.32"/>
    </edge>
    <edge id=":53_0" function="internal">
        <lane id=":53_0_0" index="0" disallow="pedestrian tram rail_urban rail rail_electric rail_fast ship" speed="36.11" length="3.00" width="3.50" shape="-773.51,682.11 -775.98,683.81"/>
    </edge>
    <edge id=":53_1" function="internal">
        <lane id=":53_1_0" index="0" disallow="pedestrian tram rail_urban rail rail_electric rail_fast ship" speed="36.11" length="3.00" width="3.50" shape="-773.51,682.11 -776.03,683.74"/>
    </edge>
    <edge id=":55_0" function="internal">
        <lane id=":55_0_0" index="0" disallow="pedestrian tram rail_urban rail rail_electric rail_fast ship" speed="36.11" length="7.10" width="3.50" shape="-682.95,624.24 -679.79,623.01 -679.59,622.93 -676.44,621.43"/>
        <lane id=":55_0_1" index="1" disallow="pedestrian tram rail_urban rail rail_electric rail_fast ship" speed="36.11" length="7.08" width="3.50" shape="-682.95,624.24 -679.79,623.01 -679.59,622.93 -676.35,621.67"/>
    </edge>
    <edge id=":9_0" function="internal">
        <lane id=":9_0_0" index="0" disallow="pedestrian tram rail_urban rail rail_electric rail_fast ship" speed="36.11" length="2.95" width="3.50" shape="-743.30,664.02 -745.78,665.62"/>
    </edge>

    <edge id="30895" from="47" to="12" priority="3" type="highway.residential" spreadType="center" length="59.13" shape="-671.18,716.73 -609.21,675.99">
        <lane id="30895_0" index="0" disallow="pedestrian tram rail_urban rail rail_electric rail_fast ship" speed="36.11" length="59.13" width="3.50" customShape="1" shape="-657.73,709.78 -644.36,700.69 -609.21,675.99"/>
    </edge>
    <edge id="30896" from="26" to="47" priority="3" type="highway.residential" spreadType="center" length="59.19" shape="-607.20,678.86 -669.26,719.65">
        <lane id="30896_0" index="0" disallow="pedestrian tram rail_urban rail rail_electric rail_fast ship" speed="36.11" length="59.19" width="3.50" customShape="1" shape="-607.20,678.86 -642.38,703.57 -655.77,712.68"/>
    </edge>
    <edge id="30982" from="45" to="48" priority="3" type="highway.residential" spreadType="center" length="38.44" shape="-693.88,688.92 -722.71,646.16">
        <lane id="30982_0" index="0" disallow="pedestrian tram rail_urban rail rail_electric rail_fast ship" speed="36.11" length="38.44" width="3.49" customShape="1" shape="-696.36,685.90 -697.38,684.78 -701.21,680.90 -703.26,678.35 -703.33,678.25 -703.42,678.11 -709.78,668.49 -711.20,666.26 -712.28,664.58 -713.36,662.88 -717.22,656.73 -718.48,654.61"/>
        <lane id="30982_1" index="1" disallow="pedestrian tram rail_urban rail rail_electric rail_fast ship" speed="36.11" length="39.00" width="3.45" customShape="1" shape="-696.36,685.90 -697.38,684.78 -701.21,680.90 -703.26,678.35 -703.33,678.25 -703.42,678.11 -704.08,677.04 -704.66,675.86 -705.47,673.55 -706.25,670.19 -707.03,667.05 -707.79,665.19 -708.26,664.36 -709.32,662.69 -710.41,660.99 -714.20,654.96 -715.57,652.65"/>
    </edge>
    <edge id="31177" from="48" to="9" priority="3" type="highway.residential" spreadType="center" length="14.28" shape="-718.60,645.77 -744.53,664.84">
        <lane id="31177_0" index="0" disallow="pedestrian tram rail_urban rail rail_electric rail_fast ship" speed="36.11" length="14.28" width="3.50" customShape="1" shape="-731.43,656.08 -737.98,660.46 -743.30,664.02"/>
    </edge>
    <edge id="31179" from="52" to="48" priority="3" type="highway.residential" spreadType="center" length="26.27" shape="-759.53,668.56 -721.53,641.42">
        <lane id="31179_0" index="0" disallow="pedestrian tram rail_urban rail rail_electric rail_fast ship" speed="36.11" length="26.29" width="3.50" customShape="1" shape="-757.17,664.88 -741.87,654.64 -735.32,650.26"/>
        <lane id="31179_1" index="1" disallow="pedestrian tram rail_urban rail rail_electric rail_fast ship" speed="36.11" length="26.27" width="3.50" customShape="1" shape="-755.21,667.78 -739.93,657.55 -733.38,653.17"/>
    </edge>
    <edge id="31475" from="1" to="47" priority="3" type="highway.residential" spreadType="center" length="17.38" shape="-690.98,686.95 -668.73,717.19">
        <lane id="31475_0" index="0" disallow="pedestrian tram rail_urban rail rail_electric rail_fast ship" speed="36.11" length="17.38" width="3.50" customShape="1" shape="-690.20,688.14 -689.53,689.15 -685.17,696.25 -681.35,703.09"/>
    </edge>
    <edge id="31476" from="47" to="45" priority="3" type="highway.residential" spreadType="center" length="14.52" shape="-671.55,719.27 -693.88,688.92">
        <lane id="31476_0" index="0" disallow="pedestrian tram rail_urban rail rail_electric rail_fast ship" speed="36.11" length="14.52" width="3.50" customShape="1" shape="-684.43,704.75 -688.19,698.02 -691.75,692.21"/>
    </edge>
    <edge id="31558" from="49" to="51" priority="3" type="highway.residential" spreadType="center" length="49.45" shape="-603.38,612.65 -677.85,627.41">
        <lane id="31558_0" index="0" disallow="pedestrian tram rail_urban rail rail_electric rail_fast ship" speed="36.11" length="49.45" width="3.50" customShape="1" shape="-627.55,610.88 -630.48,611.42 -636.27,612.81 -643.41,614.92 -674.70,625.63"/>
    </edge>
    <edge id="31560" from="55" to="49" priority="3" type="highway.residential" spreadType="center" length="50.31" shape="-679.82,622.56 -604.29,607.48">
        <lane id="31560_0" index="0" disallow="pedestrian tram rail_urban rail rail_electric rail_fast ship" speed="36.11" length="50.77" width="3.50" customShape="1" shape="-677.24,619.09 -645.25,608.16 -637.80,605.97 -631.75,604.54 -628.82,604.00"/>
        <lane id="31560_1" index="1" disallow="pedestrian tram rail_urban rail rail_electric rail_fast ship" speed="36.11" length="50.31" width="3.50" customShape="1" shape="-676.10,622.41 -644.39,611.56 -637.10,609.41 -631.16,607.99 -628.12,607.43"/>
    </edge>
    <edge id="31587" from="17" to="53" priority="3" type="highway.residential" spreadType="center" length="3.11">
        <lane id="31587_0" index="0" disallow="pedestrian tram rail_urban rail rail_electric rail_fast ship" speed="36.11" length="3.11" width="3.50" customShape="1" shape="-770.92,680.39 -772.22,681.25 -773.51,682.11"/>
    </edge>
    <edge id="31588" from="32" to="52" priority="3" type="highway.residential" spreadType="center" length="15.13">
        <lane id="31588_0" index="0" disallow="pedestrian tram rail_urban rail rail_electric rail_fast ship" speed="36.11" length="15.13" width="3.50" customShape="1" shape="-775.43,679.19 -774.15,678.34 -762.83,670.82"/>
    </edge>
    <edge id="31681" from="47" to="15" priority="3" type="highway.residential" spreadType="center" length="69.99" shape="-668.47,718.50 -687.55,806.54">
        <lane id="31681_0" index="0" disallow="pedestrian tram rail_urban rail rail_electric rail_fast ship" speed="36.11" length="69.99" width="3.50" customShape="1" shape="-669.17,739.34 -669.22,741.37 -669.60,744.89 -671.02,752.36 -672.59,759.27 -676.24,772.45 -678.40,780.79 -679.52,786.76 -680.19,789.20 -681.57,792.47 -687.55,806.54"/>
    </edge>
    <edge id="31682" from="29" to="47" priority="3" type="highway.residential" spreadType="center" length="70.09" shape="-691.33,806.47 -671.89,717.76">
        <lane id="31682_0" index="0" disallow="pedestrian tram rail_urban rail rail_electric rail_fast ship" speed="36.11" length="70.09" width="3.50" customShape="1" shape="-691.33,806.47 -685.00,791.55 -683.63,788.41 -682.98,786.20 -681.87,780.26 -679.71,771.88 -676.08,758.77 -674.51,751.95 -673.10,744.61 -672.72,741.25 -672.67,739.25"/>
    </edge>
    <edge id="31770" from="38" to="49" priority="3" type="highway.residential" spreadType="center" length="15.46">
        <lane id="31770_0" index="0" disallow="pedestrian tram rail_urban rail rail_electric rail_fast ship" speed="36.11" length="15.46" width="3.40" customShape="1" shape="-587.52,626.26 -590.40,622.18 -590.47,622.07 -596.40,613.60"/>
    </edge>
    <edge id="31955" from="51" to="48" priority="3" type="highway.residential" spreadType="center" length="26.52" shape="-677.85,627.41 -718.39,647.66">
        <lane id="31955_0" index="0" disallow="pedestrian tram rail_urban rail rail_electric rail_fast ship" speed="36.11" length="26.52" width="3.50" customShape="1" shape="-681.37,628.42 -701.92,638.67 -705.10,640.26"/>
        <lane id="31955_1" index="1" disallow="pedestrian tram rail_urban rail rail_electric rail_fast ship" speed="36.11" length="26.55" width="3.50" customShape="1" shape="-682.90,625.28 -703.48,635.54 -706.66,637.13"/>
    </edge>
    <edge id="31957" from="48" to="55" priority="3" type="highway.residential" spreadType="center" length="26.98" shape="-720.55,642.88 -679.82,622.56">
        <lane id="31957_0" index="0" disallow="pedestrian tram rail_urban rail rail_electric rail_fast ship" speed="36.11" length="26.98" width="3.50" customShape="1" shape="-708.23,634.00 -705.04,632.41 -684.09,621.96"/>
    </edge>
    <edge id="31980" from="39" to="49" priority="3" type="highway.residential" spreadType="center" length="5.27" shape="-581.35,611.45 -603.80,612.67">
        <lane id="31980_0" index="0" disallow="pedestrian tram rail_urban rail rail_electric rail_fast ship" speed="36.11" length="5.27" width="3.46" customShape="1" shape="-581.35,611.45 -586.30,610.70 -586.42,610.68 -586.56,610.66"/>
    </edge>
    <edge id="31981" from="49" to="37" priority="3" type="highway.residential" spreadType="center" length="5.26" shape="-603.98,609.21 -580.83,608.01">
        <lane id="31981_0" index="0" disallow="pedestrian tram rail_urban rail rail_electric rail_fast ship" speed="36.11" length="5.26" width="3.49" customShape="1" shape="-586.03,607.20 -585.88,607.22 -585.77,607.24 -580.83,608.01"/>
    </edge>
    <edge id="32159" from="20" to="21" priority="3" type="highway.residential" spreadType="center" length="58.71">
        <lane id="32159_0" index="0" disallow="pedestrian tram rail_urban rail rail_electric rail_fast ship" speed="36.11" length="58.71" width="3.50" customShape="1" shape="-731.50,624.54 -734.51,617.86 -737.03,611.60 -739.12,605.18 -740.44,600.16 -741.32,595.57 -741.94,590.41 -742.20,585.23 -742.16,579.52 -741.73,573.82 -740.87,567.67"/>
    </edge>
    <edge id="32160" from="42" to="41" priority="3" type="highway.residential" spreadType="center" length="56.61">
        <lane id="32160_0" index="0" disallow="pedestrian tram rail_urban rail rail_electric rail_fast ship" speed="36.11" length="56.61" width="3.50" customShape="1" shape="-737.42,568.25 -738.25,574.20 -738.66,579.67 -738.70,585.17 -738.45,590.15 -737.85,595.10 -737.01,599.49 -735.72,604.31 -733.70,610.51 -731.25,616.57 -728.33,623.07"/>
    </edge>
    <edge id="32163" from="41" to="48" priority="3" type="highway.residential" spreadType="center" length="9.26" shape="-727.71,624.43 -718.20,643.81">
        <lane id="32163_0" index="0" disallow="pedestrian tram rail_urban rail rail_electric rail_fast ship" speed="36.11" length="9.26" width="3.26" customShape="1" shape="-727.08,625.78 -724.39,631.50 -723.14,634.16"/>
    </edge>
    <edge id="35112" from="9" to="17" priority="3" type="highway.residential" spreadType="center" length="26.21">
        <lane id="35112_0" index="0" disallow="pedestrian tram rail_urban rail rail_electric rail_fast ship" speed="36.11" length="26.21" width="3.50" customShape="1" shape="-745.78,665.62 -749.83,668.15 -764.39,676.27 -768.43,678.79"/>
    </edge>
    <edge id="35266" from="49" to="50" priority="3" type="highway.residential" spreadType="center" length="19.79">
        <lane id="35266_0" index="0" disallow="pedestrian tram rail_urban rail rail_electric rail_fast ship" speed="36.11" length="19.79" width="3.50" customShape="1" shape="-607.28,599.80 -605.79,599.48 -598.92,597.68 -594.09,596.10 -590.82,594.72 -589.05,593.72 -588.64,593.43"/>
    </edge>
    <edge id="35272" from="53" to="54" priority="3" type="highway.residential" spreadType="center" length="27.84">