<routes>
	<vehicle depart="0.1" departLane="0" departPos="54.010437944624606" departSpeed="0.0" id="33" type="passenger">
		<route edges="32160 32163"/>
	</vehicle>
	<vehicle depart="0.1" departLane="1" departPos="8.695735579788543" departSpeed="0.72011348" id="314" type="passenger">
		<route edges="31179 36258"/>
	</vehicle>
	<vehicle depart="0.1" departLane="1" departPos="13.499796915273558" departSpeed="0.99544434" id="318" type="passenger">
		<route edges=":52_0 31179"/>
	</vehicle>
	<vehicle depart="0.1" departLane="0" departPos="4.952808568857723" departSpeed="1.0832377" id="320" type="passenger">
		<route edges=":52_0 31179"/>
	</vehicle>
	<vehicle depart="0.1" departLane="0" departPos="21.317160983893682" departSpeed="1.7823692" id="327" type="passenger">
		<route edges=":52_0 31179"/>
	</vehicle>
	<vehicle depart="0.1" departLane="0" departPos="7.741066289251134" departSpeed="0.13001482" id="344" type="passenger">
		<route edges=":48_5 31177 35112 31587 35272"/>
	</vehicle>
	<vehicle depart="0.1" departLane="0" departPos="41.51617409735847" departSpeed="2.9520984" id="347" type="passenger">
		<route edges=":51_0 31955 31177"/>
	</vehicle>
	<vehicle depart="0.1" departLane="0" departPos="19.644899789979178" departSpeed="4.1248707" id="350" type="passenger">
		<route edges=":51_0 31955"/>
	</vehicle>
	<vehicle depart="0.1" departLane="0" departPos="26.752283848495775" departSpeed="4.8531585" id="352" type="passenger">
		<route edges=":51_0 31955"/>
	</vehicle>
	<vehicle depart="0.1" departLane="0" departPos="9.234928962535989" departSpeed="1.0702438" id="30" type="truck">
		<route edges="31179 31957"/>
	</vehicle>
</routes>
