<routes>
	<vehicle depart="0.1" departLane="0" departPos="9.905379538348384" departSpeed="6.1367815" id="317" type="passenger">
		<route edges=":65_3 66401"/>
	</vehicle>
	<vehicle depart="0.1" departLane="0" departPos="78.14145468198303" departSpeed="4.9666462" id="325" type="passenger">
		<route edges="66379 66401"/>
	</vehicle>
	<vehicle depart="0.1" departLane="0" departPos="19.315742600855536" departSpeed="0.03748053" id="359" type="passenger">
		<route edges="66801 66804"/>
	</vehicle>
	<vehicle depart="0.1" departLane="0" departPos="2.5" departSpeed="7.739685" id="364" type="passenger">
		<route edges="66378 66308"/>
	</vehicle>
	<vehicle depart="0.1" departLane="0" departPos="68.02594314380123" departSpeed="0.29734188" id="367" type="passenger">
		<route edges="66572 66378"/>
	</vehicle>
	<vehicle depart="0.1" departLane="0" departPos="48.3717268341703" departSpeed="4.5418234" id="370" type="passenger">
		<route edges="66572 66378"/>
	</vehicle>
	<vehicle depart="0.1" departLane="0" departPos="4.600345525906471" departSpeed="3.2512822" id="377" type="passenger">
		<route edges="66400 66378"/>
	</vehicle>
	<vehicle depart="0.1" departLane="0" departPos="23.598555995272374" departSpeed="7.4020065" id="371" type="truck">
		<route edges="66572 66378"/>
	</vehicle>
</routes>
