<!-- generated on Tue Feb  9 22:16:39 2021 by Eclipse SUMO netconvert Version 1.8.0
<configuration xmlns:xsi="http://www.w3.org/2001/XMLSchema-instance" xsi:noNamespaceSchemaLocation="http://sumo.dlr.de/xsd/netconvertConfiguration.xsd">

    <input>
        <node-files value="./converted_scenarios/scenario-factory/GRC_Perama-7_1_I-1-1/GRC_Perama-7_1_I-1-1.nod.xml"/>
        <edge-files value="./converted_scenarios/scenario-factory/GRC_Perama-7_1_I-1-1/GRC_Perama-7_1_I-1-1.edg.xml"/>
        <connection-files value="./converted_scenarios/scenario-factory/GRC_Perama-7_1_I-1-1/GRC_Perama-7_1_I-1-1.con.xml"/>
        <tllogic-files value="./converted_scenarios/scenario-factory/GRC_Perama-7_1_I-1-1/GRC_Perama-7_1_I-1-1.tll.xml"/>
        <type-files value="/home/zen/commonroad-interactive-benchmarks/install/commonroad-map-tool/crmapconverter/sumo_map/templates/DEU.typ.xml"/>
    </input>

    <output>
        <output-file value="./converted_scenarios/scenario-factory/GRC_Perama-7_1_I-1-1/GRC_Perama-7_1_I-1-1.net.xml"/>
    </output>

    <processing>
        <geometry.remove.keep-edges.explicit value="true"/>
        <geometry.avoid-overlap value="true"/>
        <offset.disable-normalization value="true"/>
    </processing>

    <junctions>
        <no-turnarounds value="true"/>
        <junctions.internal-link-detail value="20"/>
    </junctions>

    <report>
        <aggregate-warnings value="5"/>
    </report>

    <random_number>
        <seed value="1234"/>
    </random_number>

</configuration>
--><net xmlns:xsi="http://www.w3.org/2001/XMLSchema-instance" version="1.6" junctionCornerDetail="5" junctionLinkDetail="20" limitTurnSpeed="5.50" xsi:noNamespaceSchemaLocation="http://sumo.dlr.de/xsd/net_file.xsd">

    <location netOffset="0.00,0.00" convBoundary="-135.33,-810.09,134.60,-614.52" origBoundary="-135.33,-810.09,134.60,-614.52" projParameter="!"/>

    <type id="highway.bridleway" priority="1" speed="2.78" allow="pedestrian" oneway="1" width="2.00"/>
    <type id="highway.bus_guideway" priority="1" speed="27.78" allow="bus" oneway="1"/>
    <type id="highway.cycleway" priority="1" speed="8.33" allow="bicycle" oneway="0" width="1.00"/>
    <type id="highway.footway" priority="1" speed="2.78" allow="pedestrian" oneway="1" width="2.00"/>
    <type id="highway.ford" priority="1" speed="2.78" allow="army" oneway="0"/>
    <type id="highway.living_street" priority="2" speed="2.78" disallow="tram rail_urban rail rail_electric rail_fast ship" oneway="0"/>
    <type id="highway.motorway" priority="14" speed="39.44" allow="private emergency authority army vip passenger hov taxi bus coach delivery truck trailer motorcycle evehicle custom1 custom2" oneway="1"/>
    <type id="highway.motorway_link" priority="9" speed="22.22" allow="private emergency authority army vip passenger hov taxi bus coach delivery truck trailer motorcycle evehicle custom1 custom2" oneway="1"/>
    <type id="highway.path" priority="1" speed="2.78" allow="pedestrian bicycle" oneway="0" width="2.00"/>
    <type id="highway.pedestrian" priority="1" speed="2.78" allow="pedestrian" oneway="1" width="2.00"/>
    <type id="highway.primary" priority="12" speed="27.78" disallow="pedestrian tram rail_urban rail rail_electric rail_fast ship" oneway="0"/>
    <type id="highway.primary_link" priority="7" speed="22.22" disallow="pedestrian tram rail_urban rail rail_electric rail_fast ship" oneway="0"/>
    <type id="highway.raceway" priority="15" speed="83.33" allow="vip" oneway="0"/>
    <type id="highway.residential" priority="3" speed="13.89" disallow="pedestrian tram rail_urban rail rail_electric rail_fast ship" oneway="0"/>
    <type id="highway.secondary" priority="11" speed="27.78" disallow="pedestrian tram rail_urban rail rail_electric rail_fast ship" oneway="0"/>
    <type id="highway.secondary_link" priority="6" speed="22.22" disallow="pedestrian tram rail_urban rail rail_electric rail_fast ship" oneway="0"/>
    <type id="highway.service" priority="1" speed="5.56" allow="pedestrian delivery bicycle" oneway="0"/>
    <type id="highway.stairs" priority="1" speed="1.39" allow="pedestrian" oneway="1" width="2.00"/>
    <type id="highway.step" priority="1" speed="1.39" allow="pedestrian" oneway="1" width="2.00"/>
    <type id="highway.steps" priority="1" speed="1.39" allow="pedestrian" oneway="1" width="2.00"/>
    <type id="highway.tertiary" priority="10" speed="22.22" disallow="pedestrian tram rail_urban rail rail_electric rail_fast ship" oneway="0"/>
    <type id="highway.tertiary_link" priority="5" speed="22.22" disallow="pedestrian tram rail_urban rail rail_electric rail_fast ship" oneway="0"/>
    <type id="highway.track" priority="1" speed="5.56" allow="pedestrian motorcycle moped bicycle" oneway="0"/>
    <type id="highway.trunk" priority="13" speed="27.78" disallow="pedestrian bicycle tram rail_urban rail rail_electric rail_fast ship" oneway="0"/>
    <type id="highway.trunk_link" priority="8" speed="22.22" disallow="pedestrian bicycle tram rail_urban rail rail_electric rail_fast ship" oneway="0"/>
    <type id="highway.unclassified" priority="4" speed="13.89" disallow="pedestrian tram rail_urban rail rail_electric rail_fast ship" oneway="0"/>
    <type id="highway.unsurfaced" priority="1" speed="8.33" disallow="tram rail_urban rail rail_electric rail_fast ship" oneway="0"/>
    <type id="railway.highspeed" priority="21" speed="69.44" allow="rail_fast" oneway="1"/>
    <type id="railway.light_rail" priority="19" speed="27.78" allow="rail_urban" oneway="1"/>
    <type id="railway.preserved" priority="16" speed="27.78" allow="rail" oneway="1"/>
    <type id="railway.rail" priority="20" speed="44.44" allow="rail" oneway="1"/>
    <type id="railway.subway" priority="18" speed="27.78" allow="rail_urban" oneway="1"/>
    <type id="railway.tram" priority="17" speed="13.89" allow="tram" oneway="1"/>

    <edge id=":61_0" function="internal">
        <lane id=":61_0_0" index="0" disallow="pedestrian tram rail_urban rail rail_electric rail_fast ship" speed="36.11" length="30.67" width="3.50" shape="0.57,-751.28 -2.28,-742.22 -6.92,-728.16 -9.15,-722.20"/>
    </edge>
    <edge id=":61_1" function="internal">
        <lane id=":61_1_0" index="0" disallow="pedestrian tram rail_urban rail rail_electric rail_fast ship" speed="11.53" length="27.43" width="3.50" shape="0.57,-751.28 -0.65,-747.79 -2.14,-744.40 -3.37,-742.17 -4.82,-740.06 -6.53,-738.12 -7.54,-737.21 -8.63,-736.40 -9.81,-735.70 -11.07,-735.13 -12.39,-734.71 -13.76,-734.44 -15.14,-734.33 -16.50,-734.37 -17.83,-734.54"/>
    </edge>
    <edge id=":61_2" function="internal">
        <lane id=":61_2_0" index="0" disallow="pedestrian tram rail_urban rail rail_electric rail_fast ship" speed="10.43" length="22.38" width="3.50" shape="-17.23,-737.99 -16.19,-737.86 -15.12,-737.84 -14.06,-737.95 -13.02,-738.18 -12.02,-738.55 -11.07,-739.03 -10.18,-739.62 -9.35,-740.29 -8.59,-741.04 -7.23,-742.68 -6.07,-744.47 -5.08,-746.36 -3.82,-749.30 -2.77,-752.32"/>
    </edge>
    <edge id=":61_3" function="internal">
        <lane id=":61_3_0" index="0" disallow="pedestrian tram rail_urban rail rail_electric rail_fast ship" speed="9.06" length="21.36" width="3.50" shape="-17.23,-737.99 -15.85,-737.69 -14.45,-737.29 -13.06,-736.75 -11.70,-736.02 -10.42,-735.07 -9.30,-733.86 -8.43,-732.43 -7.90,-730.86 -7.67,-729.27 -7.69,-727.72 -7.89,-726.23 -8.24,-724.79 -9.15,-722.20"/>
    </edge>
    <edge id=":61_4" function="internal">
        <lane id=":61_4_0" index="0" disallow="pedestrian tram rail_urban rail rail_electric rail_fast ship" speed="7.66" length="14.97" width="3.50" shape="-12.40,-723.49 -11.68,-725.51 -11.43,-726.55 -11.28,-727.62 -11.25,-728.69 -11.39,-729.75 -11.73,-730.76 -12.26,-731.69 -12.98,-732.48 -13.84,-733.12 -14.78,-733.63 -15.78,-734.02 -16.81,-734.32 -17.83,-734.54"/>
    </edge>
    <edge id=":61_5" function="internal">
        <lane id=":61_5_0" index="0" disallow="pedestrian tram rail_urban rail rail_electric rail_fast ship" speed="36.11" length="30.40" width="3.50" shape="-12.40,-723.49 -10.20,-729.38 -5.60,-743.32 -2.77,-752.32"/>
    </edge>
    <edge id=":62_0" function="internal">
        <lane id=":62_0_0" index="0" disallow="pedestrian tram rail_urban rail rail_electric rail_fast ship" speed="19.49" length="23.81" width="3.50" shape="-13.99,-686.36 -18.15,-687.33 -22.29,-688.06 -26.45,-688.49 -29.54,-688.56 -32.60,-688.36 -35.58,-687.82 -37.46,-687.24"/>
    </edge>
    <edge id=":62_1" function="internal">
        <lane id=":62_1_0" index="0" disallow="pedestrian tram rail_urban rail rail_electric rail_fast ship" speed="10.26" length="22.14" width="3.50" shape="-13.99,-686.36 -16.68,-687.16 -19.25,-688.16 -21.70,-689.45 -22.84,-690.22 -23.91,-691.10 -24.88,-692.08 -25.73,-693.17 -26.43,-694.36 -26.96,-695.63 -27.32,-696.97 -27.50,-698.34 -27.53,-699.72 -27.41,-701.09"/>
    </edge>
    <edge id=":62_2" function="internal">
        <lane id=":62_2_0" index="0" disallow="pedestrian tram rail_urban rail rail_electric rail_fast ship" speed="9.08" length="17.01" width="3.50" shape="-23.94,-700.64 -24.03,-699.62 -24.00,-698.60 -23.85,-697.62 -23.58,-696.68 -23.17,-695.79 -22.64,-694.95 -22.00,-694.18 -21.25,-693.47 -20.41,-692.82 -19.52,-692.24 -17.50,-691.22 -15.37,-690.41 -13.14,-689.76"/>
    </edge>
    <edge id=":62_3" function="internal">
        <lane id=":62_3_0" index="0" disallow="pedestrian tram rail_urban rail rail_electric rail_fast ship" speed="11.94" length="20.05" width="3.50" shape="-23.94,-700.64 -24.18,-699.35 -24.55,-698.09 -25.04,-696.87 -25.66,-695.71 -26.38,-694.63 -27.19,-693.63 -28.09,-692.69 -29.98,-691.10 -32.03,-689.76 -34.18,-688.62 -37.46,-687.24"/>
    </edge>
    <edge id=":62_4" function="internal">
        <lane id=":62_4_0" index="0" disallow="pedestrian tram rail_urban rail rail_electric rail_fast ship" speed="10.75" length="16.27" width="3.50" shape="-38.70,-690.51 -35.85,-691.70 -34.05,-692.63 -32.33,-693.72 -30.76,-694.99 -30.04,-695.71 -29.38,-696.48 -28.79,-697.31 -28.30,-698.20 -27.90,-699.13 -27.60,-700.10 -27.41,-701.09"/>
    </edge>
    <edge id=":62_5" function="internal">
        <lane id=":62_5_0" index="0" disallow="pedestrian tram rail_urban rail rail_electric rail_fast ship" speed="20.68" length="25.94" width="3.50" shape="-38.71,-690.52 -36.51,-691.19 -33.19,-691.81 -29.83,-692.05 -26.45,-691.99 -21.98,-691.54 -17.54,-690.78 -13.14,-689.76"/>
    </edge>
    <edge id=":63_0" function="internal">
        <lane id=":63_0_0" index="0" disallow="pedestrian tram rail_urban rail rail_electric rail_fast ship" speed="7.34" length="14.91" width="3.50" shape="-18.11,-734.59 -20.72,-734.92 -21.97,-734.96 -23.18,-734.89 -24.32,-734.68 -25.32,-734.32 -26.13,-733.80 -26.73,-733.11 -27.15,-732.24 -27.40,-731.20 -27.48,-730.05 -27.43,-728.83 -27.26,-727.53"/>
    </edge>
    <edge id=":63_1" function="internal">
        <lane id=":63_1_0" index="0" disallow="pedestrian tram rail_urban rail rail_electric rail_fast ship" speed="11.96" length="29.39" width="3.50" shape="-18.11,-734.59 -20.59,-735.20 -22.98,-736.13 -24.17,-736.77 -25.28,-737.50 -26.32,-738.33 -27.28,-739.26 -28.15,-740.26 -28.92,-741.33 -29.59,-742.46 -30.18,-743.65 -31.06,-746.03 -31.66,-748.48 -32.01,-750.94 -32.17,-753.41 -32.12,-757.03"/>
    </edge>
    <edge id=":63_2" function="internal">
        <lane id=":63_2_0" index="0" disallow="pedestrian tram rail_urban rail rail_electric rail_fast ship" speed="10.85" length="24.31" width="3.50" shape="-28.63,-756.87 -28.67,-753.70 -28.55,-751.59 -28.27,-749.49 -27.80,-747.43 -27.10,-745.44 -26.65,-744.48 -26.12,-743.56 -25.53,-742.69 -24.85,-741.87 -24.11,-741.12 -23.30,-740.45 -22.42,-739.85 -21.50,-739.33 -19.54,-738.54 -17.49,-738.04"/>
    </edge>
    <edge id=":63_3" function="internal">
        <lane id=":63_3_0" index="0" disallow="pedestrian tram rail_urban rail rail_electric rail_fast ship" speed="36.11" length="29.43" width="3.50" shape="-28.63,-756.87 -28.73,-754.78 -28.86,-747.41 -28.64,-740.06 -28.13,-733.79 -27.26,-727.53"/>
    </edge>
    <edge id=":63_4" function="internal">
        <lane id=":63_4_0" index="0" disallow="pedestrian tram rail_urban rail rail_electric rail_fast ship" speed="36.11" length="30.18" width="3.50" shape="-30.71,-726.94 -31.60,-733.39 -32.13,-739.83 -32.36,-747.37 -32.22,-754.90 -32.12,-757.03"/>
    </edge>
    <edge id=":63_5" function="internal">
        <lane id=":63_5_0" index="0" disallow="pedestrian tram rail_urban rail rail_electric rail_fast ship" speed="8.81" length="21.90" width="3.50" shape="-30.71,-726.94 -30.94,-728.66 -31.02,-730.34 -30.91,-732.02 -30.54,-733.66 -29.84,-735.18 -28.78,-736.48 -27.40,-737.44 -25.84,-738.05 -24.19,-738.37 -22.51,-738.49 -20.83,-738.45 -17.49,-738.04"/>
    </edge>
    <edge id=":64_0" function="internal">
        <lane id=":64_0_0" index="0" disallow="pedestrian tram rail_urban rail rail_electric rail_fast ship" speed="16.08" length="32.75" width="3.50" shape="-28.13,-696.26 -27.33,-702.16 -27.42,-702.92 -27.67,-703.61 -28.10,-704.24 -28.69,-704.81 -29.42,-705.32 -30.24,-705.77 -32.17,-706.55 -34.22,-707.17 -41.91,-709.08 -45.27,-710.12 -47.53,-711.07 -49.69,-712.31 -50.72,-713.08"/>
    </edge>
    <edge id=":64_1" function="internal">
        <lane id=":64_1_0" index="0" disallow="pedestrian tram rail_urban rail rail_electric rail_fast ship" speed="36.11" length="30.77" width="3.50" shape="-28.13,-696.26 -27.34,-702.14 -27.63,-706.17 -28.56,-713.35 -30.68,-726.74"/>
    </edge>
    <edge id=":64_2" function="internal">
        <lane id=":64_2_0" index="0" disallow="pedestrian tram rail_urban rail rail_electric rail_fast ship" speed="36.11" length="32.06" width="3.50" shape="-28.13,-696.26 -27.16,-702.56 -26.48,-704.81 -25.47,-706.94 -24.22,-708.90 -22.11,-711.48 -16.27,-717.60 -14.38,-719.93 -13.34,-721.55 -12.48,-723.28"/>
    </edge>
    <edge id=":64_3" function="internal">
        <lane id=":64_3_0" index="0" disallow="pedestrian tram rail_urban rail rail_electric rail_fast ship" speed="36.11" length="31.23" width="3.50" shape="-9.25,-721.94 -10.19,-720.04 -11.33,-718.30 -13.30,-715.88 -19.09,-709.92 -21.09,-707.52 -22.22,-705.78 -23.13,-703.91 -23.73,-701.92 -24.65,-695.75"/>
    </edge>
    <edge id=":64_4" function="internal">
        <lane id=":64_4_0" index="0" disallow="pedestrian tram rail_urban rail rail_electric rail_fast ship" speed="13.43" length="52.90" width="3.50" shape="-9.25,-721.95 -10.95,-718.23 -12.92,-714.68 -14.45,-712.39 -16.18,-710.22 -18.14,-708.21 -20.34,-706.46 -21.58,-705.67 -22.86,-705.00 -24.21,-704.43 -25.60,-703.98 -27.03,-703.66 -28.47,-703.47 -29.92,-703.41 -31.37,-703.46 -32.82,-703.63 -35.55,-704.23 -38.20,-705.13 -40.73,-706.28 -44.26,-708.30 -47.60,-710.60 -50.72,-713.08"/>
    </edge>
    <edge id=":64_5" function="internal">
        <lane id=":64_5_0" index="0" disallow="pedestrian tram rail_urban rail rail_electric rail_fast ship" speed="10.32" length="42.76" width="3.50" shape="-9.25,-721.95 -10.19,-719.78 -12.19,-715.63 -13.35,-713.56 -14.66,-711.54 -16.26,-709.58 -18.48,-707.84 -21.70,-707.28 -24.52,-708.80 -26.16,-711.00 -27.24,-713.23 -28.07,-715.48 -28.75,-717.74 -29.83,-722.23 -30.68,-726.74"/>
    </edge>
    <edge id=":64_6" function="internal">
        <lane id=":64_6_0" index="0" disallow="pedestrian tram rail_urban rail rail_electric rail_fast ship" speed="8.90" length="31.40" width="3.50" shape="-27.23,-727.33 -26.55,-723.69 -25.69,-720.09 -25.17,-718.32 -24.54,-716.58 -23.76,-714.90 -22.73,-713.37 -21.22,-712.34 -19.42,-712.54 -17.96,-713.66 -16.77,-715.08 -15.76,-716.62 -14.84,-718.23 -13.23,-721.56 -12.48,-723.28"/>
    </edge>
    <edge id=":64_7" function="internal">
        <lane id=":64_7_0" index="0" disallow="pedestrian tram rail_urban rail rail_electric rail_fast ship" speed="36.11" length="31.87" width="3.50" shape="-27.23,-727.33 -25.07,-713.63 -24.13,-706.22 -23.85,-701.96 -24.65,-695.75"/>
    </edge>
    <edge id=":64_8" function="internal">
        <lane id=":64_8_0" index="0" disallow="pedestrian tram rail_urban rail rail_electric rail_fast ship" speed="10.98" length="46.86" width="3.50" shape="-27.23,-727.33 -26.67,-723.58 -26.28,-719.79 -26.14,-715.95 -26.22,-713.97 -26.44,-711.97 -26.88,-709.94 -27.67,-707.89 -29.05,-705.96 -31.09,-704.56 -33.46,-704.02 -35.72,-704.18 -37.78,-704.74 -39.66,-705.51 -41.42,-706.41 -43.12,-707.42 -46.28,-709.58 -50.72,-713.08"/>
    </edge>
    <edge id=":64_9" function="internal">
        <lane id=":64_9_0" index="0" disallow="pedestrian tram rail_urban rail rail_electric rail_fast ship" speed="9.77" length="36.67" width="3.50" shape="-48.34,-715.66 -44.71,-712.80 -42.06,-710.99 -40.68,-710.17 -39.25,-709.44 -37.76,-708.84 -36.22,-708.41 -34.62,-708.30 -33.07,-708.65 -31.77,-709.58 -30.87,-710.90 -30.31,-712.40 -29.99,-713.97 -29.82,-715.56 -29.76,-717.17 -29.88,-720.38 -30.21,-723.57 -30.68,-726.74"/>
    </edge>
    <edge id=":64_10" function="internal">
        <lane id=":64_10_0" index="0" disallow="pedestrian tram rail_urban rail rail_electric rail_fast ship" speed="12.50" length="45.90" width="3.50" shape="-48.34,-715.66 -45.65,-713.52 -42.65,-711.45 -39.50,-709.64 -37.29,-708.64 -35.00,-707.85 -32.63,-707.32 -31.43,-707.18 -30.21,-707.13 -29.00,-707.18 -27.80,-707.33 -26.62,-707.59 -25.46,-707.96 -24.34,-708.42 -23.26,-708.98 -22.24,-709.62 -20.34,-711.13 -18.64,-712.86 -17.13,-714.75 -15.78,-716.77 -14.01,-719.95 -12.48,-723.28"/>
    </edge>
    <edge id=":64_11" function="internal">
        <lane id=":64_11_0" index="0" disallow="pedestrian tram rail_urban rail rail_electric rail_fast ship" speed="16.86" length="35.70" width="3.50" shape="-48.34,-715.66 -47.55,-715.06 -45.52,-713.86 -43.36,-712.90 -40.01,-711.74 -32.08,-709.41 -29.86,-708.60 -27.72,-707.59 -26.72,-706.97 -25.80,-706.23 -25.00,-705.36 -24.38,-704.36 -24.00,-703.24 -23.85,-702.07 -24.65,-695.75"/>
    </edge>
    <edge id=":65_0" function="internal">
        <lane id=":65_0_0" index="0" disallow="pedestrian tram rail_urban rail rail_electric rail_fast ship" speed="12.13" length="45.48" width="3.50" shape="77.98,-732.35 75.09,-733.99 71.85,-735.58 68.48,-736.89 66.17,-737.56 63.80,-738.01 61.40,-738.19 60.20,-738.17 59.00,-738.04 57.82,-737.82 56.66,-737.50 55.53,-737.07 54.45,-736.54 53.43,-735.91 52.46,-735.19 51.56,-734.39 49.96,-732.59 48.61,-730.60 47.47,-728.48 46.52,-726.26 45.38,-722.84 44.51,-719.31"/>
    </edge>
    <edge id=":65_1" function="internal">
        <lane id=":65_1_0" index="0" disallow="pedestrian tram rail_urban rail rail_electric rail_fast ship" speed="23.50" length="45.61" width="3.50" shape="68.87,-756.85 65.11,-753.56 61.46,-749.98 58.05,-746.20 54.91,-742.20 52.07,-737.99 50.05,-734.48 48.27,-730.84 46.75,-727.10 45.49,-723.25 44.51,-719.31"/>
    </edge>
    <edge id=":65_2" function="internal">
        <lane id=":65_2_0" index="0" disallow="pedestrian tram rail_urban rail rail_electric rail_fast ship" speed="24.18" length="48.12" width="3.50" shape="41.08,-720.02 42.13,-724.20 43.45,-728.26 45.05,-732.22 46.93,-736.06 49.05,-739.76 52.03,-744.19 55.32,-748.39 58.90,-752.36 62.71,-756.10 66.75,-759.64"/>
    </edge>
    <edge id=":65_3" function="internal">
        <lane id=":65_3_0" index="0" disallow="pedestrian tram rail_urban rail rail_electric rail_fast ship" speed="13.08" length="52.91" width="3.50" shape="41.08,-720.02 42.06,-723.97 43.33,-727.81 44.40,-730.34 45.70,-732.79 47.26,-735.12 49.12,-737.24 50.21,-738.24 51.37,-739.12 52.61,-739.90 53.92,-740.56 55.28,-741.09 56.69,-741.50 58.11,-741.78 59.55,-741.93 61.01,-741.97 63.80,-741.76 66.53,-741.23 69.19,-740.46 72.97,-738.98 76.59,-737.19 80.10,-735.16"/>
    </edge>
    <edge id=":66_0" function="internal">
        <lane id=":66_0_0" index="0" disallow="pedestrian tram rail_urban rail rail_electric rail_fast ship" speed="36.11" length="40.26" width="3.50" shape="-42.15,-663.75 -44.90,-665.43 -48.21,-667.87 -51.31,-670.58 -55.69,-674.94 -61.45,-680.83 -65.25,-684.29 -68.52,-686.80 -71.13,-688.45 -72.92,-689.42"/>
    </edge>
    <edge id=":66_1" function="internal">
        <lane id=":66_1_0" index="0" disallow="pedestrian tram rail_urban rail rail_electric rail_fast ship" speed="10.79" length="41.63" width="3.50" shape="-42.15,-663.75 -45.52,-665.74 -48.63,-667.87 -50.10,-669.05 -51.50,-670.32 -52.79,-671.70 -53.90,-673.22 -54.75,-674.91 -55.19,-676.74 -55.09,-678.61 -54.45,-680.38 -53.41,-681.95 -52.12,-683.33 -50.67,-684.54 -49.12,-685.62 -45.84,-687.48 -42.41,-689.06 -38.90,-690.44"/>
    </edge>
    <edge id=":66_2" function="internal">
        <lane id=":66_2_0" index="0" disallow="pedestrian tram rail_urban rail rail_electric rail_fast ship" speed="9.60" length="32.62" width="3.50" shape="-37.69,-687.16 -40.71,-685.97 -43.62,-684.63 -46.38,-683.07 -47.62,-682.21 -48.77,-681.27 -49.75,-680.25 -50.50,-679.16 -50.93,-678.04 -51.01,-676.90 -50.73,-675.73 -50.15,-674.56 -49.32,-673.42 -48.31,-672.33 -47.18,-671.29 -45.98,-670.33 -43.34,-668.51 -40.55,-666.86"/>
    </edge>
    <edge id=":66_3" function="internal">
        <lane id=":66_3_0" index="0" disallow="pedestrian tram rail_urban rail rail_electric rail_fast ship" speed="19.07" length="36.36" width="3.50" shape="-37.69,-687.16 -39.78,-686.45 -42.96,-685.56 -46.20,-684.92 -49.49,-684.52 -52.81,-684.39 -56.13,-684.53 -59.42,-684.94 -62.66,-685.60 -65.84,-686.50 -68.95,-687.63 -72.92,-689.42"/>
    </edge>
    <edge id=":66_4" function="internal">
        <lane id=":66_4_0" index="0" disallow="pedestrian tram rail_urban rail rail_electric rail_fast ship" speed="18.28" length="33.50" width="3.50" shape="-71.35,-692.55 -67.67,-690.89 -64.80,-689.85 -61.87,-689.01 -58.89,-688.40 -55.86,-688.03 -52.82,-687.90 -49.77,-688.02 -46.75,-688.38 -43.76,-688.97 -40.82,-689.79 -38.90,-690.44"/>
    </edge>
    <edge id=":66_5" function="internal">
        <lane id=":66_5_0" index="0" disallow="pedestrian tram rail_urban rail rail_electric rail_fast ship" speed="36.11" length="40.29" width="3.50" shape="-71.35,-692.55 -69.46,-691.52 -66.73,-689.79 -63.33,-687.19 -59.42,-683.64 -53.63,-677.71 -49.29,-673.40 -46.28,-670.77 -43.08,-668.41 -40.55,-666.86"/>
    </edge>
    <edge id=":67_0" function="internal">
        <lane id=":67_0_0" index="0" disallow="pedestrian tram rail_urban rail rail_electric rail_fast ship" speed="21.34" length="38.05" width="3.50" shape="16.64,-627.45 16.13,-628.33 13.91,-631.85 11.48,-635.19 8.83,-638.35 5.96,-641.29 2.86,-643.98 -0.44,-646.40 -3.95,-648.52 -7.63,-650.32 -11.47,-651.81"/>
    </edge>
    <edge id=":67_1" function="internal">
        <lane id=":67_1_0" index="0" disallow="pedestrian tram rail_urban rail rail_electric rail_fast ship" speed="11.67" length="36.38" width="3.50" shape="16.64,-627.45 14.81,-630.99 13.78,-633.50 12.98,-636.13 12.49,-638.84 12.40,-640.30 12.44,-641.74 12.62,-643.19 12.97,-644.63 13.49,-646.02 14.17,-647.34 15.00,-648.56 15.94,-649.68 16.99,-650.68 18.10,-651.57 19.29,-652.38 21.69,-653.68 24.20,-654.72 26.74,-655.55"/>
    </edge>
    <edge id=":67_2" function="internal">
        <lane id=":67_2_0" index="0" disallow="pedestrian tram rail_urban rail rail_electric rail_fast ship" speed="10.63" length="29.94" width="3.50" shape="27.80,-652.21 25.53,-651.48 23.41,-650.60 21.40,-649.49 20.45,-648.84 19.56,-648.12 18.73,-647.32 18.00,-646.44 17.36,-645.48 16.85,-644.46 16.46,-643.38 16.20,-642.26 16.06,-641.12 16.04,-639.97 16.12,-638.82 16.54,-636.57 17.22,-634.37 18.10,-632.25 19.68,-629.19"/>
    </edge>
    <edge id=":67_3" function="internal">
        <lane id=":67_3_0" index="0" disallow="pedestrian tram rail_urban rail rail_electric rail_fast ship" speed="24.52" length="39.88" width="3.50" shape="27.80,-652.21 22.51,-650.86 17.23,-649.85 11.89,-649.20 7.60,-648.98 3.30,-649.04 -0.98,-649.41 -5.23,-650.11 -9.40,-651.15 -11.47,-651.81"/>
    </edge>
    <edge id=":67_4" function="internal">
        <lane id=":67_4_0" index="0" disallow="pedestrian tram rail_urban rail rail_electric rail_fast ship" speed="23.84" length="37.68" width="3.50" shape="-10.36,-655.13 -8.42,-654.51 -4.48,-653.53 -0.48,-652.88 3.56,-652.53 7.62,-652.48 11.69,-652.69 16.76,-653.32 21.79,-654.28 26.74,-655.55"/>
    </edge>
    <edge id=":67_5" function="internal">
        <lane id=":67_5_0" index="0" disallow="pedestrian tram rail_urban rail rail_electric rail_fast ship" speed="22.03" length="40.60" width="3.50" shape="-10.36,-655.13 -6.23,-653.53 -2.30,-651.60 1.46,-649.34 5.00,-646.76 8.31,-643.88 11.38,-640.75 14.20,-637.39 16.78,-633.84 19.13,-630.13 19.68,-629.19"/>
    </edge>

    <edge id="66058" from="32" to="64" priority="3" type="highway.residential" spreadType="center" length="70.19" shape="-90.90,-771.36 -27.61,-717.59">
        <lane id="66058_0" index="0" disallow="pedestrian tram rail_urban rail rail_electric rail_fast ship" speed="36.11" length="70.19" width="3.50" customShape="1" shape="-90.90,-771.36 -87.00,-765.48 -81.97,-758.47 -71.65,-744.64 -62.22,-732.68 -57.14,-725.70 -53.78,-721.25 -51.09,-718.20 -48.35,-715.65"/>
    </edge>
    <edge id="66059" from="64" to="3" priority="3" type="highway.residential" spreadType="center" length="70.01" shape="-29.87,-714.93 -93.24,-768.58">
        <lane id="66059_0" index="0" disallow="pedestrian tram rail_urban rail rail_electric rail_fast ship" speed="36.11" length="70.01" width="3.50" customShape="1" shape="-50.72,-713.08 -53.45,-715.61 -56.25,-718.74 -59.67,-723.22 -64.69,-730.14 -74.05,-742.02 -84.34,-755.78 -89.39,-762.77 -93.24,-768.58"/>
    </edge>
    <edge id="66133" from="63" to="61" priority="3" type="highway.residential" spreadType="center" length="0.28" shape="-25.56,-741.92 -9.46,-738.68">
        <lane id="66133_0" index="0" disallow="pedestrian tram rail_urban rail rail_electric rail_fast ship" speed="36.11" length="0.28" width="3.50" customShape="1" shape="-17.49,-738.04 -17.37,-738.01 -17.22,-737.99"/>
    </edge>
    <edge id="66134" from="61" to="63" priority="3" type="highway.residential" spreadType="center" length="0.28" shape="-10.15,-735.25 -26.25,-738.51">
        <lane id="66134_0" index="0" disallow="pedestrian tram rail_urban rail rail_electric rail_fast ship" speed="36.11" length="0.28" width="3.50" customShape="1" shape="-17.83,-734.54 -17.98,-734.57 -18.11,-734.59"/>
    </edge>
    <edge id="66233" from="67" to="66" priority="3" type="highway.residential" spreadType="center" length="32.97" shape="10.64,-643.69 -51.50,-680.20">
        <lane id="66233_0" index="0" disallow="pedestrian tram rail_urban rail rail_electric rail_fast ship" speed="36.11" length="32.97" width="3.50" customShape="1" shape="-11.47,-651.81 -24.70,-656.24 -31.98,-658.95 -37.67,-661.44 -42.15,-663.75"/>
    </edge>
    <edge id="66234" from="66" to="67" priority="3" type="highway.residential" spreadType="center" length="32.46" shape="-49.73,-683.21 12.42,-646.71">
        <lane id="66234_0" index="0" disallow="pedestrian tram rail_urban rail rail_electric rail_fast ship" speed="36.11" length="32.46" width="3.50" customShape="1" shape="-40.55,-666.86 -36.11,-664.57 -30.57,-662.16 -23.43,-659.50 -10.34,-655.12"/>
    </edge>
    <edge id="66236" from="60" to="67" priority="3" type="highway.residential" spreadType="center" length="14.96" shape="24.11,-614.52 9.87,-644.56">
        <lane id="66236_0" index="0" disallow="pedestrian tram rail_urban rail rail_electric rail_fast ship" speed="36.11" length="14.96" width="3.50" customShape="1" shape="24.11,-614.52 23.30,-615.84 16.63,-627.47"/>
    </edge>
    <edge id="66237" from="67" to="49" priority="3" type="highway.residential" spreadType="center" length="14.82" shape="13.03,-646.05 27.09,-616.36">
        <lane id="66237_0" index="0" disallow="pedestrian tram rail_urban rail rail_electric rail_fast ship" speed="36.11" length="14.82" width="3.50" customShape="1" shape="19.68,-629.19 26.30,-617.65 27.09,-616.36"/>
    </edge>
    <edge id="66304" from="62" to="64" priority="3" type="highway.residential" spreadType="center" length="0.20" shape="-27.51,-692.39 -30.52,-716.19">
        <lane id="66304_0" index="0" disallow="pedestrian tram rail_urban rail rail_electric rail_fast ship" speed="36.11" length="0.20" width="3.50" customShape="1" shape="-28.16,-696.06 -28.13,-696.26"/>
    </edge>
    <edge id="66305" from="64" to="62" priority="3" type="highway.residential" spreadType="center" length="0.19" shape="-27.06,-716.63 -24.04,-692.83">
        <lane id="66305_0" index="0" disallow="pedestrian tram rail_urban rail rail_electric rail_fast ship" speed="36.11" length="0.19" width="3.50" customShape="1" shape="-24.65,-695.75 -24.68,-695.56"/>
    </edge>
    <edge id="66307" from="66" to="62" priority="3" type="highway.residential" spreadType="center" length="0.26" shape="-51.42,-683.26 -26.47,-694.21">
        <lane id="66307_0" index="0" disallow="pedestrian tram rail_urban rail rail_electric rail_fast ship" speed="36.11" length="0.26" width="3.50" customShape="1" shape="-38.90,-690.44 -38.78,-690.49 -38.66,-690.53"/>
    </edge>
    <edge id="66308" from="62" to="66" priority="3" type="highway.residential" spreadType="center" length="0.25" shape="-25.07,-691.00 -50.01,-680.06">
        <lane id="66308_0" index="0" disallow="pedestrian tram rail_urban rail rail_electric rail_fast ship" speed="36.11" length="0.25" width="3.50" customShape="1" shape="-37.46,-687.25 -37.57,-687.20 -37.69,-687.16"/>
    </edge>
    <edge id="66310" from="46" to="66" priority="3" type="highway.residential" spreadType="center" length="70.03" shape="-133.77,-724.24 -49.82,-683.26">
        <lane id="66310_0" index="0" disallow="pedestrian tram rail_urban rail rail_electric rail_fast ship" speed="36.11" length="70.03" width="3.50" customShape="1" shape="-133.77,-724.24 -108.43,-711.37 -71.33,-692.54"/>
    </edge>
    <edge id="66311" from="66" to="38" priority="3" type="highway.residential" spreadType="center" length="69.99" shape="-51.35,-680.12 -135.33,-721.11">