<routes>
	<vehicle depart="0.1" departLane="0" departPos="34.96533404140911" departSpeed="2.1248135" id="37" type="bicycle">
		<route edges="108608 107264"/>
	</vehicle>
	<vehicle depart="0.1" departLane="0" departPos="9.966531399561504" departSpeed="0.033990577" id="31" type="passenger">
		<route edges=":25_3 107268"/>
	</vehicle>
	<vehicle depart="0.1" departLane="0" departPos="47.583803650989545" departSpeed="0.024037346" id="35" type="passenger">
		<route edges="108608 107264"/>
	</vehicle>
	<vehicle depart="0.1" departLane="0" departPos="70.48572986870994" departSpeed="0.52216595" id="314" type="passenger">
		<route edges="108608 108605 108118"/>
	</vehicle>
	<vehicle depart="0.1" departLane="0" departPos="60.7276496889254" departSpeed="0.077397252" id="318" type="passenger">
		<route edges="108608 107264"/>
	</vehicle>
	<vehicle depart="0.1" departLane="0" departPos="69.90583645139337" departSpeed="0.0" id="320" type="passenger">
		<route edges="108117 108606"/>
	</vehicle>
	<vehicle depart="0.1" departLane="0" departPos="34.50375128632964" departSpeed="13.58897" id="343" type="passenger">
		<route edges=":25_2 108609"/>
	</vehicle>
	<vehicle depart="0.1" departLane="0" departPos="18.09757690031092" departSpeed="7.9196463" id="344" type="passenger">
		<route edges=":25_2 108609"/>
	</vehicle>
	<vehicle depart="0.1" departLane="0" departPos="60.623534682222974" departSpeed="10.218659" id="346" type="passenger">
		<route edges="107267 108605 108118"/>
	</vehicle>
	<vehicle depart="0.1" departLane="0" departPos="27.31441894359764" departSpeed="0.11995687" id="30" type="truck">
		<route edges=":25_8 108605"/>
	</vehicle>
</routes>
