<routes>
	<vehicle depart="0.1" departLane="0" departPos="42.17840751488782" departSpeed="7.7053387" id="333" type="bus">
		<route edges=":43_3 21492"/>
	</vehicle>
	<vehicle depart="0.1" departLane="0" departPos="25.04090790355324" departSpeed="8.79121" id="35" type="passenger">
		<route edges="20969 21047"/>
	</vehicle>
	<vehicle depart="0.1" departLane="0" departPos="7.3307064053246656" departSpeed="9.4602575" id="341" type="passenger">
		<route edges="20968 21488"/>
	</vehicle>
	<vehicle depart="0.1" departLane="0" departPos="29.5993359782268" departSpeed="1.1793804" id="30" type="truck">
		<route edges=":43_5 20969"/>
	</vehicle>
</routes>
