<!-- generated on Tue Feb  9 22:17:46 2021 by Eclipse SUMO netconvert Version 1.8.0
<configuration xmlns:xsi="http://www.w3.org/2001/XMLSchema-instance" xsi:noNamespaceSchemaLocation="http://sumo.dlr.de/xsd/netconvertConfiguration.xsd">

    <input>
        <node-files value="./converted_scenarios/scenario-factory/BEL_Zaventem-2_3_I-1-1/BEL_Zaventem-2_3_I-1-1.nod.xml"/>
        <edge-files value="./converted_scenarios/scenario-factory/BEL_Zaventem-2_3_I-1-1/BEL_Zaventem-2_3_I-1-1.edg.xml"/>
        <connection-files value="./converted_scenarios/scenario-factory/BEL_Zaventem-2_3_I-1-1/BEL_Zaventem-2_3_I-1-1.con.xml"/>
        <tllogic-files value="./converted_scenarios/scenario-factory/BEL_Zaventem-2_3_I-1-1/BEL_Zaventem-2_3_I-1-1.tll.xml"/>
        <type-files value="/home/zen/commonroad-interactive-benchmarks/install/commonroad-map-tool/crmapconverter/sumo_map/templates/DEU.typ.xml"/>
    </input>

    <output>
        <output-file value="./converted_scenarios/scenario-factory/BEL_Zaventem-2_3_I-1-1/BEL_Zaventem-2_3_I-1-1.net.xml"/>
    </output>

    <processing>
        <geometry.remove.keep-edges.explicit value="true"/>
        <geometry.avoid-overlap value="true"/>
        <offset.disable-normalization value="true"/>
    </processing>

    <junctions>
        <no-turnarounds value="true"/>
        <junctions.internal-link-detail value="20"/>
    </junctions>

    <report>
        <aggregate-warnings value="5"/>
    </report>

    <random_number>
        <seed value="1234"/>
    </random_number>

</configuration>
--><net xmlns:xsi="http://www.w3.org/2001/XMLSchema-instance" version="1.6" junctionCornerDetail="5" junctionLinkDetail="20" limitTurnSpeed="5.50" xsi:noNamespaceSchemaLocation="http://sumo.dlr.de/xsd/net_file.xsd">

    <location netOffset="0.00,0.00" convBoundary="-474.36,-174.26,-304.06,77.37" origBoundary="-474.36,-174.26,-304.06,77.37" projParameter="!"/>

    <type id="highway.bridleway" priority="1" speed="2.78" allow="pedestrian" oneway="1" width="2.00"/>
    <type id="highway.bus_guideway" priority="1" speed="27.78" allow="bus" oneway="1"/>
    <type id="highway.cycleway" priority="1" speed="8.33" allow="bicycle" oneway="0" width="1.00"/>
    <type id="highway.footway" priority="1" speed="2.78" allow="pedestrian" oneway="1" width="2.00"/>
    <type id="highway.ford" priority="1" speed="2.78" allow="army" oneway="0"/>
    <type id="highway.living_street" priority="2" speed="2.78" disallow="tram rail_urban rail rail_electric rail_fast ship" oneway="0"/>
    <type id="highway.motorway" priority="14" speed="39.44" allow="private emergency authority army vip passenger hov taxi bus coach delivery truck trailer motorcycle evehicle custom1 custom2" oneway="1"/>
    <type id="highway.motorway_link" priority="9" speed="22.22" allow="private emergency authority army vip passenger hov taxi bus coach delivery truck trailer motorcycle evehicle custom1 custom2" oneway="1"/>
    <type id="highway.path" priority="1" speed="2.78" allow="pedestrian bicycle" oneway="0" width="2.00"/>
    <type id="highway.pedestrian" priority="1" speed="2.78" allow="pedestrian" oneway="1" width="2.00"/>
    <type id="highway.primary" priority="12" speed="27.78" disallow="pedestrian tram rail_urban rail rail_electric rail_fast ship" oneway="0"/>
    <type id="highway.primary_link" priority="7" speed="22.22" disallow="pedestrian tram rail_urban rail rail_electric rail_fast ship" oneway="0"/>
    <type id="highway.raceway" priority="15" speed="83.33" allow="vip" oneway="0"/>
    <type id="highway.residential" priority="3" speed="13.89" disallow="pedestrian tram rail_urban rail rail_electric rail_fast ship" oneway="0"/>
    <type id="highway.secondary" priority="11" speed="27.78" disallow="pedestrian tram rail_urban rail rail_electric rail_fast ship" oneway="0"/>
    <type id="highway.secondary_link" priority="6" speed="22.22" disallow="pedestrian tram rail_urban rail rail_electric rail_fast ship" oneway="0"/>
    <type id="highway.service" priority="1" speed="5.56" allow="pedestrian delivery bicycle" oneway="0"/>
    <type id="highway.stairs" priority="1" speed="1.39" allow="pedestrian" oneway="1" width="2.00"/>
    <type id="highway.step" priority="1" speed="1.39" allow="pedestrian" oneway="1" width="2.00"/>
    <type id="highway.steps" priority="1" speed="1.39" allow="pedestrian" oneway="1" width="2.00"/>
    <type id="highway.tertiary" priority="10" speed="22.22" disallow="pedestrian tram rail_urban rail rail_electric rail_fast ship" oneway="0"/>
    <type id="highway.tertiary_link" priority="5" speed="22.22" disallow="pedestrian tram rail_urban rail rail_electric rail_fast ship" oneway="0"/>
    <type id="highway.track" priority="1" speed="5.56" allow="pedestrian motorcycle moped bicycle" oneway="0"/>
    <type id="highway.trunk" priority="13" speed="27.78" disallow="pedestrian bicycle tram rail_urban rail rail_electric rail_fast ship" oneway="0"/>
    <type id="highway.trunk_link" priority="8" speed="22.22" disallow="pedestrian bicycle tram rail_urban rail rail_electric rail_fast ship" oneway="0"/>
    <type id="highway.unclassified" priority="4" speed="13.89" disallow="pedestrian tram rail_urban rail rail_electric rail_fast ship" oneway="0"/>
    <type id="highway.unsurfaced" priority="1" speed="8.33" disallow="tram rail_urban rail rail_electric rail_fast ship" oneway="0"/>
    <type id="railway.highspeed" priority="21" speed="69.44" allow="rail_fast" oneway="1"/>
    <type id="railway.light_rail" priority="19" speed="27.78" allow="rail_urban" oneway="1"/>
    <type id="railway.preserved" priority="16" speed="27.78" allow="rail" oneway="1"/>
    <type id="railway.rail" priority="20" speed="44.44" allow="rail" oneway="1"/>
    <type id="railway.subway" priority="18" speed="27.78" allow="rail_urban" oneway="1"/>
    <type id="railway.tram" priority="17" speed="13.89" allow="tram" oneway="1"/>

    <edge id=":22_0" function="internal">
        <lane id=":22_0_0" index="0" disallow="pedestrian tram rail_urban rail rail_electric rail_fast ship" speed="36.11" length="3.00" width="3.50" shape="-324.52,-104.83 -323.83,-107.75"/>
    </edge>
    <edge id=":36_0" function="internal">
        <lane id=":36_0_0" index="0" disallow="pedestrian tram rail_urban rail rail_electric rail_fast ship" speed="36.11" length="0.30" width="3.50" shape="-320.73,-105.65 -320.80,-105.36"/>
    </edge>
    <edge id=":39_0" function="internal">
        <lane id=":39_0_0" index="0" disallow="pedestrian tram rail_urban rail rail_electric rail_fast ship" speed="36.11" length="38.75" width="3.50" shape="-326.71,-80.35 -329.29,-70.21 -332.20,-60.14 -335.15,-51.18 -338.08,-43.34"/>
    </edge>
    <edge id=":39_1" function="internal">
        <lane id=":39_1_0" index="0" disallow="pedestrian tram rail_urban rail rail_electric rail_fast ship" speed="12.54" length="33.79" width="3.50" shape="-326.71,-80.35 -327.41,-77.97 -328.37,-75.64 -329.65,-73.42 -331.25,-71.40 -333.14,-69.67 -334.25,-68.88 -336.47,-67.65 -338.84,-66.74 -341.28,-66.14 -343.73,-65.79 -346.18,-65.65 -349.80,-65.75 -353.36,-66.14"/>
    </edge>
    <edge id=":39_2" function="internal">
        <lane id=":39_2_0" index="0" disallow="pedestrian tram rail_urban rail rail_electric rail_fast ship" speed="11.54" length="28.56" width="3.50" shape="-352.86,-69.60 -349.72,-69.26 -346.54,-69.15 -344.43,-69.26 -342.33,-69.54 -340.27,-70.02 -338.28,-70.74 -336.41,-71.73 -335.53,-72.33 -333.95,-73.73 -332.61,-75.36 -331.53,-77.19 -330.71,-79.14 -330.11,-81.17"/>
    </edge>
    <edge id=":39_3" function="internal">
        <lane id=":39_3_0" index="0" disallow="pedestrian tram rail_urban rail rail_electric rail_fast ship" speed="11.67" length="36.66" width="3.50" shape="-352.86,-69.60 -351.53,-69.39 -348.89,-68.82 -346.26,-68.02 -343.72,-66.93 -342.45,-66.23 -341.25,-65.43 -340.11,-64.51 -339.07,-63.46 -338.13,-62.30 -337.34,-61.03 -336.71,-59.67 -336.24,-58.26 -335.92,-56.83 -335.75,-55.39 -335.70,-53.96 -335.76,-52.52 -336.14,-49.80 -336.78,-47.12 -338.08,-43.34"/>
    </edge>
    <edge id=":39_4" function="internal">
        <lane id=":39_4_0" index="0" disallow="pedestrian tram rail_urban rail rail_electric rail_fast ship" speed="10.63" length="30.17" width="3.50" shape="-341.34,-44.60 -340.21,-47.89 -339.67,-50.15 -339.35,-52.45 -339.30,-53.61 -339.33,-54.77 -339.47,-55.92 -339.72,-57.06 -340.08,-58.16 -340.57,-59.21 -341.18,-60.20 -341.90,-61.11 -342.72,-61.93 -343.62,-62.67 -344.59,-63.31 -345.60,-63.88 -347.74,-64.79 -349.96,-65.47 -352.23,-65.96 -353.36,-66.14"/>
    </edge>
    <edge id=":39_5" function="internal">
        <lane id=":39_5_0" index="0" disallow="pedestrian tram rail_urban rail rail_electric rail_fast ship" speed="36.11" length="38.29" width="3.50" shape="-341.34,-44.60 -338.45,-52.35 -335.54,-61.20 -332.66,-71.14 -330.11,-81.17"/>
    </edge>
    <edge id=":40_0" function="internal">
        <lane id=":40_0_0" index="0" disallow="pedestrian tram rail_urban rail rail_electric rail_fast ship" speed="36.11" length="37.68" width="3.50" shape="-343.09,-28.82 -343.69,-25.84 -343.94,-22.70 -343.88,-19.56 -343.44,-15.38 -341.50,-3.99 -341.07,0.18 -341.01,3.33 -341.26,6.47 -341.62,8.54"/>
    </edge>
    <edge id=":40_1" function="internal">
        <lane id=":40_1_0" index="0" disallow="pedestrian tram rail_urban rail rail_electric rail_fast ship" speed="12.48" length="33.50" width="3.50" shape="-343.10,-28.82 -344.22,-25.23 -345.70,-21.64 -346.92,-19.36 -348.36,-17.22 -350.04,-15.26 -351.99,-13.56 -353.06,-12.84 -354.19,-12.20 -355.36,-11.66 -356.58,-11.23 -357.83,-10.90 -360.38,-10.53 -362.97,-10.51 -365.54,-10.79 -366.83,-11.03"/>
    </edge>
    <edge id=":40_2" function="internal">
        <lane id=":40_2_0" index="0" disallow="pedestrian tram rail_urban rail rail_electric rail_fast ship" speed="11.49" length="28.24" width="3.50" shape="-366.11,-14.45 -365.04,-14.25 -362.85,-14.02 -360.70,-14.04 -358.58,-14.37 -357.60,-14.65 -356.63,-15.01 -355.69,-15.46 -354.79,-15.98 -353.96,-16.56 -352.36,-17.99 -350.98,-19.64 -349.77,-21.47 -348.74,-23.42 -347.46,-26.57 -346.45,-29.83"/>
    </edge>
    <edge id=":40_3" function="internal">
        <lane id=":40_3_0" index="0" disallow="pedestrian tram rail_urban rail rail_electric rail_fast ship" speed="12.77" length="37.95" width="3.50" shape="-366.11,-14.45 -361.18,-13.27 -357.55,-12.17 -354.00,-10.82 -350.59,-9.15 -348.44,-7.82 -346.44,-6.27 -344.65,-4.49 -343.86,-3.50 -343.16,-2.45 -342.55,-1.34 -342.05,-0.18 -341.66,1.02 -341.39,2.26 -341.23,3.51 -341.19,4.78 -341.39,7.30 -341.62,8.54"/>
    </edge>
    <edge id=":40_4" function="internal">
        <lane id=":40_4_0" index="0" disallow="pedestrian tram rail_urban rail rail_electric rail_fast ship" speed="11.83" length="32.42" width="3.50" shape="-345.05,7.84 -344.85,6.81 -344.70,4.68 -344.76,3.71 -344.91,2.71 -345.15,1.74 -345.49,0.80 -345.92,-0.10 -346.44,-0.97 -347.04,-1.79 -347.70,-2.56 -349.27,-4.02 -351.01,-5.28 -352.88,-6.39 -355.92,-7.82 -359.09,-8.99 -362.35,-9.97 -366.83,-11.03"/>
    </edge>
    <edge id=":40_5" function="internal">
        <lane id=":40_5_0" index="0" disallow="pedestrian tram rail_urban rail rail_electric rail_fast ship" speed="36.11" length="38.00" width="3.50" shape="-345.05,7.84 -344.70,5.88 -344.46,2.90 -344.52,-0.10 -344.94,-4.15 -346.87,-15.57 -347.32,-19.88 -347.38,-23.20 -347.11,-26.53 -346.45,-29.83"/>
    </edge>
    <edge id=":41_0" function="internal">
        <lane id=":41_0_0" index="0" disallow="pedestrian tram rail_urban rail rail_electric rail_fast ship" speed="11.00" length="29.12" width="3.50" shape="-392.03,-73.39 -394.36,-73.99 -397.84,-74.62 -400.12,-74.80 -402.38,-74.76 -404.61,-74.43 -405.63,-74.16 -406.64,-73.80 -407.60,-73.35 -408.51,-72.81 -409.36,-72.19 -410.15,-71.48 -410.87,-70.70 -411.52,-69.85 -412.09,-68.96 -413.09,-66.94 -413.84,-64.80 -414.38,-62.56"/>
    </edge>
    <edge id=":41_1" function="internal">
        <lane id=":41_1_0" index="0" disallow="pedestrian tram rail_urban rail rail_electric rail_fast ship" speed="36.11" length="41.57" width="3.50" shape="-392.03,-73.39 -398.03,-75.29 -405.80,-78.19 -419.31,-83.54 -425.20,-85.58 -431.18,-87.29"/>
    </edge>
    <edge id=":41_2" function="internal">
        <lane id=":41_2_0" index="0" disallow="pedestrian tram rail_urban rail rail_electric rail_fast ship" speed="18.23" length="31.68" width="3.50" shape="-392.09,-73.41 -392.47,-73.57 -392.92,-73.87 -393.42,-74.30 -393.98,-74.87 -394.60,-75.57 -395.29,-76.41 -396.03,-77.38 -396.83,-78.49 -397.70,-79.73 -398.62,-81.11 -399.60,-82.62 -400.64,-84.26 -401.75,-86.04 -402.91,-87.96 -404.13,-90.01 -405.41,-92.19 -406.76,-94.51 -408.16,-96.97 -409.62,-99.56"/>
    </edge>
    <edge id=":41_3" function="internal">
        <lane id=":41_3_0" index="0" disallow="pedestrian tram rail_urban rail rail_electric rail_fast ship" speed="12.46" length="34.14" width="3.50" shape="-406.12,-102.20 -407.31,-96.17 -407.48,-94.02 -407.40,-91.87 -407.03,-89.75 -406.35,-87.71 -405.35,-85.80 -404.08,-84.07 -402.58,-82.53 -400.89,-81.19 -399.08,-80.02 -397.18,-79.02 -394.20,-77.77 -391.12,-76.77"/>
    </edge>
    <edge id=":41_4" function="internal">
        <lane id=":41_4_0" index="0" disallow="pedestrian tram rail_urban rail rail_electric rail_fast ship" speed="36.11" length="40.49" width="3.50" shape="-406.12,-102.20 -408.71,-90.15 -414.38,-62.56"/>
    </edge>
    <edge id=":41_5" function="internal">
        <lane id=":41_5_0" index="0" disallow="pedestrian tram rail_urban rail rail_electric rail_fast ship" speed="36.11" length="41.63" width="3.50" shape="-430.33,-90.69 -424.24,-88.95 -418.26,-86.88 -404.71,-81.52 -396.98,-78.63 -391.12,-76.77"/>
    </edge>
    <edge id=":41_6" function="internal">
        <lane id=":41_6_0" index="0" disallow="pedestrian tram rail_urban rail rail_electric rail_fast ship" speed="12.82" length="36.58" width="3.50" shape="-430.33,-90.69 -426.80,-89.59 -424.49,-88.60 -422.27,-87.36 -420.20,-85.85 -418.34,-84.05 -416.75,-82.00 -415.49,-79.73 -414.57,-77.33 -413.97,-74.85 -413.65,-72.35 -413.57,-69.85 -413.81,-66.18 -414.38,-62.56"/>
    </edge>
    <edge id=":41_7" function="internal">
        <lane id=":41_7_0" index="0" disallow="pedestrian tram rail_urban rail rail_electric rail_fast ship" speed="11.87" length="31.18" width="3.50" shape="-417.82,-63.25 -417.31,-66.44 -417.09,-69.66 -417.15,-71.81 -417.41,-73.94 -417.90,-76.03 -418.66,-78.05 -419.69,-79.93 -420.99,-81.65 -422.53,-83.15 -424.26,-84.42 -426.13,-85.48 -428.10,-86.34 -431.18,-87.29"/>
    </edge>
    <edge id=":41_8" function="internal">
        <lane id=":41_8_0" index="0" disallow="pedestrian tram rail_urban rail rail_electric rail_fast ship" speed="36.11" length="29.42" width="3.50" shape="-417.82,-63.25 -411.87,-92.06"/>
    </edge>
    <edge id=":41_9" function="internal">
        <lane id=":41_9_0" index="0" disallow="pedestrian tram rail_urban rail rail_electric rail_fast ship" speed="12.02" length="34.96" width="3.50" shape="-417.82,-63.25 -417.18,-65.86 -416.30,-68.40 -415.12,-70.82 -414.41,-71.96 -413.60,-73.03 -412.70,-74.03 -411.71,-74.94 -410.64,-75.75 -409.49,-76.45 -408.28,-77.04 -407.02,-77.51 -405.73,-77.86 -403.07,-78.28 -400.38,-78.35 -397.70,-78.14 -393.73,-77.44 -391.12,-76.77"/>
    </edge>
    <edge id=":43_0" function="internal">
        <lane id=":43_0_0" index="0" disallow="pedestrian tram rail_urban rail rail_electric rail_fast ship" speed="11.17" length="28.29" width="3.50" shape="-405.27,-19.02 -408.47,-19.52 -410.65,-19.63 -412.82,-19.53 -414.97,-19.17 -416.02,-18.88 -417.04,-18.50 -418.03,-18.04 -418.98,-17.50 -419.87,-16.88 -420.71,-16.19 -421.49,-15.42 -422.85,-13.73 -423.97,-11.86 -424.87,-9.87 -425.57,-7.81 -426.11,-5.70"/>
    </edge>
    <edge id=":43_1" function="internal">
        <lane id=":43_1_0" index="0" disallow="pedestrian tram rail_urban rail rail_electric rail_fast ship" speed="12.22" length="34.17" width="3.50" shape="-405.27,-19.02 -408.93,-19.99 -411.37,-20.91 -413.71,-22.10 -415.89,-23.57 -416.94,-24.46 -417.91,-25.41 -418.78,-26.45 -419.57,-27.57 -420.26,-28.74 -420.84,-29.97 -421.32,-31.24 -421.70,-32.56 -422.16,-35.14 -422.30,-37.75 -422.18,-40.35 -421.64,-44.09"/>
    </edge>
    <edge id=":43_2" function="internal">
        <lane id=":43_2_0" index="0" disallow="pedestrian tram rail_urban rail rail_electric rail_fast ship" speed="11.22" length="28.65" width="3.50" shape="-418.20,-43.43 -418.68,-40.16 -418.78,-37.96 -418.66,-35.75 -418.28,-33.58 -417.97,-32.52 -417.59,-31.49 -417.11,-30.49 -416.56,-29.54 -415.92,-28.63 -415.21,-27.79 -414.43,-27.01 -413.59,-26.30 -411.76,-25.06 -409.79,-24.07 -407.73,-23.29 -404.56,-22.45"/>
    </edge>
    <edge id=":43_3" function="internal">
        <lane id=":43_3_0" index="0" disallow="pedestrian tram rail_urban rail rail_electric rail_fast ship" speed="36.11" length="38.55" width="3.50" shape="-418.20,-43.43 -423.68,-16.90 -426.11,-5.70"/>
    </edge>
    <edge id=":43_4" function="internal">
        <lane id=":43_4_0" index="0" disallow="pedestrian tram rail_urban rail rail_electric rail_fast ship" speed="36.11" length="38.46" width="3.50" shape="-429.53,-6.45 -427.10,-17.63 -421.64,-44.09"/>
    </edge>
    <edge id=":43_5" function="internal">
        <lane id=":43_5_0" index="0" disallow="pedestrian tram rail_urban rail rail_electric rail_fast ship" speed="12.18" length="33.83" width="3.50" shape="-429.53,-6.45 -428.90,-8.89 -428.08,-11.30 -427.02,-13.65 -425.67,-15.90 -424.04,-17.94 -423.06,-18.91 -422.02,-19.77 -420.92,-20.54 -419.75,-21.21 -418.53,-21.77 -417.27,-22.23 -415.96,-22.60 -413.41,-23.03 -410.82,-23.16 -408.25,-23.02 -404.56,-22.45"/>
    </edge>

    <edge id="20968" from="40" to="43" priority="3" type="highway.residential" spreadType="center" length="39.26" shape="-351.84,-9.59 -417.91,-21.82">
        <lane id="20968_0" index="0" disallow="pedestrian tram rail_urban rail rail_electric rail_fast ship" speed="36.11" length="39.26" width="3.50" customShape="1" shape="-366.83,-11.03 -386.02,-15.02 -405.27,-19.02"/>
    </edge>
    <edge id="20969" from="43" to="40" priority="3" type="highway.residential" spreadType="center" length="39.27" shape="-417.28,-25.26 -351.20,-13.03">
        <lane id="20969_0" index="0" disallow="pedestrian tram rail_urban rail rail_electric rail_fast ship" speed="36.11" length="39.27" width="3.50" customShape="1" shape="-404.56,-22.45 -385.31,-18.45 -366.11,-14.45"/>
    </edge>
    <edge id="21043" from="40" to="13" priority="3" type="highway.residential" spreadType="center" length="70.00" shape="-349.77,-11.26 -354.21,77.37">
        <lane id="21043_0" index="0" disallow="pedestrian tram rail_urban rail rail_electric rail_fast ship" speed="36.11" length="70.00" width="3.50" customShape="1" shape="-341.62,8.54 -345.50,26.30 -348.62,41.64 -350.86,54.58 -353.74,73.56 -354.21,77.37"/>
    </edge>
    <edge id="21044" from="21" to="40" priority="3" type="highway.residential" spreadType="center" length="70.04" shape="-357.65,76.67 -353.27,-11.43">
        <lane id="21044_0" index="0" disallow="pedestrian tram rail_urban rail rail_electric rail_fast ship" speed="36.11" length="70.04" width="3.50" customShape="1" shape="-357.65,76.67 -357.16,72.75 -354.28,53.79 -352.04,40.85 -348.91,25.52 -345.04,7.80"/>
    </edge>
    <edge id="21046" from="39" to="40" priority="3" type="highway.residential" spreadType="center" length="15.37" shape="-338.70,-63.84 -349.82,-10.89">
        <lane id="21046_0" index="0" disallow="pedestrian tram rail_urban rail rail_electric rail_fast ship" speed="36.11" length="15.37" width="3.50" customShape="1" shape="-338.08,-43.34 -338.83,-41.42 -341.46,-34.27 -343.10,-28.82"/>
    </edge>
    <edge id="21047" from="40" to="39" priority="3" type="highway.residential" spreadType="center" length="15.67" shape="-353.24,-11.61 -342.12,-64.55">
        <lane id="21047_0" index="0" disallow="pedestrian tram rail_urban rail rail_electric rail_fast ship" speed="36.11" length="15.67" width="3.50" customShape="1" shape="-346.45,-29.83 -344.78,-35.35 -342.11,-42.66 -341.33,-44.63"/>
    </edge>
    <edge id="21049" from="36" to="39" priority="3" type="highway.residential" spreadType="center" length="25.73" shape="-320.76,-105.50 -338.83,-63.44">
        <lane id="21049_0" index="0" disallow="pedestrian tram rail_urban rail rail_electric rail_fast ship" speed="36.11" length="25.73" width="3.50" customShape="1" shape="-320.80,-105.36 -323.71,-93.05 -326.65,-80.60 -326.68,-80.48 -326.72,-80.32"/>
    </edge>
    <edge id="21082" from="37" to="36" priority="3" type="highway.residential" spreadType="center" length="69.85">
        <lane id="21082_0" index="0" disallow="pedestrian tram rail_urban rail rail_electric rail_fast ship" speed="36.11" length="69.85" width="3.50" customShape="1" shape="-304.06,-173.47 -307.94,-159.37 -312.47,-141.30 -320.73,-105.65"/>
    </edge>
    <edge id="21083" from="22" to="23" priority="3" type="highway.residential" spreadType="center" length="68.50">
        <lane id="21083_0" index="0" disallow="pedestrian tram rail_urban rail rail_electric rail_fast ship" speed="36.11" length="68.50" width="3.50" customShape="1" shape="-323.83,-107.75 -315.86,-142.15 -311.32,-160.28 -307.47,-174.26"/>
    </edge>
    <edge id="21486" from="31" to="41" priority="3" type="highway.residential" spreadType="center" length="1.21" shape="-405.88,-103.39 -410.28,-78.47">
        <lane id="21486_0" index="0" disallow="pedestrian tram rail_urban rail rail_electric rail_fast ship" speed="36.11" length="1.21" width="3.49" customShape="1" shape="-405.88,-103.39 -406.12,-102.20"/>
    </edge>
    <edge id="21488" from="43" to="41" priority="3" type="highway.residential" spreadType="center" length="19.54" shape="-419.30,-23.65 -413.72,-79.07">
        <lane id="21488_0" index="0" disallow="pedestrian tram rail_urban rail rail_electric rail_fast ship" speed="36.11" length="19.54" width="3.50" customShape="1" shape="-421.64,-44.09 -419.72,-53.69 -417.82,-63.25"/>
    </edge>
    <edge id="21489" from="41" to="43" priority="3" type="highway.residential" spreadType="center" length="19.53" shape="-410.23,-78.72 -415.82,-23.30">
        <lane id="21489_0" index="0" disallow="pedestrian tram rail_urban rail rail_electric rail_fast ship" speed="36.11" length="19.53" width="3.50" customShape="1" shape="-414.38,-62.56 -416.29,-53.00 -418.20,-43.41"/>
    </edge>
    <edge id="21491" from="33" to="43" priority="3" type="highway.residential" spreadType="center" length="70.00" shape="-444.59,61.89 -419.22,-24.06">
        <lane id="21491_0" index="0" disallow="pedestrian tram rail_urban rail rail_electric rail_fast ship" speed="36.11" length="70.00" width="3.50" customShape="1" shape="-444.59,61.89 -441.91,49.76 -429.53,-6.47"/>
    </edge>
    <edge id="21492" from="43" to="30" priority="3" type="highway.residential" spreadType="center" length="70.00" shape="-415.86,-23.06 -441.17,62.66">
        <lane id="21492_0" index="0" disallow="pedestrian tram rail_urban rail rail_electric rail_fast ship" speed="36.11" length="70.00" width="3.50" customShape="1" shape="-426.11,-5.70 -438.50,50.51 -441.17,62.66"/>
    </edge>
    <edge id="21591" from="41" to="39" priority="3" type="highway.residential" spreadType="center" length="38.98" shape="-411.66,-80.62 -340.06,-65.91">
        <lane id="21591_0" index="0" disallow="pedestrian tram rail_urban rail rail_electric rail_fast ship" speed="36.11" length="38.98" width="3.50" customShape="1" shape="-391.12,-76.77 -387.22,-75.71 -379.34,-73.89 -369.89,-72.15 -352.84,-69.60"/>
    </edge>
    <edge id="21592" from="39" to="41" priority="3" type="highway.residential" spreadType="center" length="39.44" shape="-340.76,-62.48 -412.37,-77.19">
        <lane id="21592_0" index="0" disallow="pedestrian tram rail_urban rail rail_electric rail_fast ship" speed="36.11" length="39.44" width="3.50" customShape="1" shape="-353.36,-66.14 -370.53,-68.71 -380.10,-70.48 -388.11,-72.33 -392.09,-73.41"/>
    </edge>
    <edge id="21594" from="32" to="41" priority="3" type="highway.residential" spreadType="center" length="44.54" shape="-473.50,-101.52 -411.37,-80.54">
        <lane id="21594_0" index="0" disallow="pedestrian tram rail_urban rail rail_electric rail_fast ship" speed="36.11" length="44.54" width="3.50" customShape="1" shape="-473.50,-101.52 -451.92,-96.10 -430.30,-90.68"/>
    </edge>
    <edge id="21595" from="41" to="24" priority="3" type="highway.residential" spreadType="center" length="44.52" shape="-412.49,-77.22 -474.36,-98.12">
        <lane id="21595_0" index="0" disallow="pedestrian tram rail_urban rail rail_electric rail_fast ship" speed="36.11" length="44.52" width="3.50" customShape="1" shape="-431.18,-87.29 -452.77,-92.71 -474.36,-98.12"/>
    </edge>
    <edge id="23178" from="41" to="42" priority="3" type="highway.residential" spreadType="center" length="0.20" shape="-413.72,-79.03 -410.35,-99.06">
        <lane id="23178_0" index="0" disallow="pedestrian tram rail_urban rail rail_electric rail_fast ship" speed="36.11" length="0.20" width="3.50" customShape="1" shape="-409.62,-99.56 -409.72,-99.73"/>
    </edge>
    <edge id="23387" from="39" to="22" priority="3" type="highway.residential" spreadType="center" length="24.31" shape="-342.04,-64.82 -324.17,-106.29">
        <lane id="23387_0" index="0" disallow="pedestrian tram rail_urban rail rail_electric rail_fast ship" speed="36.11" length="24.31" width="3.50" customShape="1" shape="-330.11,-81.17 -330.08,-81.29 -330.06,-81.41 -327.11,-93.85 -324.52,-104.83"/>
    </edge>
    <edge id="23430" from="41" to="42" priority="3" type="highway.residential" spreadType="center" length="7.16">
        <lane id="23430_0" index="0" disallow="pedestrian tram rail_urban rail rail_electric rail_fast ship" speed="36.11" length="7.16" width="3.50" customShape="1" shape="-411.87,-92.06 -410.35,-99.06"/>
    </edge>

    <junction id="13" type="dead_end" x="-354.21" y="77.37" incLanes="21043_0" intLanes="" shape="-352.47,77.59 -355.95,77.16" rightOfWay="edgePriority"/>
    <junction id="21" type="dead_end" x="-357.65" y="76.67" incLanes="" intLanes="" shape="-355.91,76.89 -359.38,76.45" rightOfWay="edgePriority"/>
    <junction id="22" type="priority" x="-324.17" y="-106.29" incLanes="23387_0" intLanes=":22_0_0" shape="-322.13,-107.36 -325.54,-108.15 -326.22,-105.24 -322.81,-104.43" rightOfWay="edgePriority">
        <request index="0" response="0" foes="0" cont="0"/>
    </junction>
    <junction id="23" type="dead_end" x="-307.47" y="-174.26" incLanes="21083_0" intLanes="" shape="-309.16,-174.73 -305.78,-173.80" rightOfWay="edgePriority"/>
    <junction id="24" type="dead_end" x="-474.36" y="-98.12" incLanes="21595_0" intLanes="" shape="-474.78,-96.43 -473.93,-99.82" rightOfWay="edgePriority"/>
    <junction id="30" type="dead_end" x="-441.17" y="62.66" incLanes="21492_0" intLanes="" shape="-439.47,63.04 -442.88,62.29" rightOfWay="edgePriority"/>
    <junction id="31" type="dead_end" x="-405.88" y="-103.39" incLanes="" intLanes="" shape="-407.59,-103.75 -404.17,-103.04" rightOfWay="edgePriority"/>
    <junction id="32" type="dead_end" x="-473.50" y="-101.52" incLanes="" intLanes="" shape="-473.93,-99.82 -473.08,-103.21" rightOfWay="edgePriority"/>
    <junction id="33" type="dead_end" x="-444.59" y="61.89" incLanes="" intLanes="" shape="-442.88,62.27 -446.30,61.51" rightOfWay="edgePriority"/>
    <junction id="36" type="priority" x="-320.76" y="-105.50" incLanes="21082_0" intLanes=":36_0_0" shape="-319.02,-105.25 -322.43,-106.04 -322.50,-105.76 -319.09,-104.95" rightOfWay="edgePriority">
        <request index="0" response="0" foes="0" cont="0"/>
    </junction>
    <junction id="37" type="dead_end" x="-304.06" y="-173.47" incLanes="" intLanes="" shape="-305.74,-173.93 -302.37,-173.00" rightOfWay="edgePriority"/>
    <junction id="39" type="priority" x="-340.41" y="-64.19" incLanes="21049_0 21591_0 21047_0" intLanes=":39_0_0 :39_1_0 :39_2_0 :39_3_0 :39_4_0 :39_5_0" shape="-325.01,-79.95 -331.82,-81.57 -333.25,-77.71 -335.49,-74.71 -338.55,-72.57 -342.41,-71.29 -347.09,-70.88 -352.58,-71.33 -353.62,-64.41 -348.55,-63.16 -344.80,-61.14 -342.36,-58.34 -341.25,-54.76 -341.44,-50.40 -342.96,-45.27 -336.45,-42.70 -333.45,-50.44 -331.34,-56.21 -329.79,-61.03 -328.44,-65.91 -326.96,-71.88">
        <request index="0" response="000000" foes="001000" cont="0"/>
        <request index="1" response="110000" foes="111000" cont="0"/>
        <request index="2" response="100000" foes="100000" cont="0"/>
        <request index="3" response="100011" foes="100011" cont="0"/>
        <request index="4" response="000000" foes="000010" cont="0"/>
        <request index="5" response="000000" foes="001110" cont="0"/>
    </junction>
    <junction id="40" type="priority" x="-351.52" y="-11.31" incLanes="21046_0 20969_0 21044_0" intLanes=":40_0_0 :40_1_0 :40_2_0 :40_3_0 :40_4_0 :40_5_0" shape="-341.43,-28.32 -348.12,-30.34 -350.02,-25.28 -352.34,-21.30 -355.07,-18.40 -358.21,-16.58 -361.78,-15.83 -365.76,-16.17 -367.18,-9.31 -360.21,-7.52 -354.67,-5.32 -350.55,-2.73 -347.86,0.25 -346.59,3.64 -346.75,7.42 -339.91,8.92 -339.01,1.08 -339.73,-4.86 -341.20,-9.84 -342.55,-14.78 -342.91,-20.63">
        <request index="0" response="000000" foes="001000" cont="0"/>
        <request index="1" response="110000" foes="111000" cont="0"/>
        <request index="2" response="100000" foes="100000" cont="0"/>
        <request index="3" response="100011" foes="100011" cont="0"/>
        <request index="4" response="000000" foes="000010" cont="0"/>
        <request index="5" response="000000" foes="001110" cont="0"/>
    </junction>