<routes>
	<vehicle depart="0.1" departLane="0" departPos="4.771385219272271" departSpeed="0.32552844" id="37" type="bicycle">
		<route edges="42245 42589"/>
	</vehicle>
	<vehicle depart="0.1" departLane="0" departPos="11.05273532158961" departSpeed="2.497245" id="31" type="passenger">
		<route edges=":37_9 42545"/>
	</vehicle>
	<vehicle depart="0.1" departLane="0" departPos="40.207962963912955" departSpeed="0.0" id="38" type="passenger">
		<route edges="42542 42245"/>
	</vehicle>
	<vehicle depart="0.1" departLane="0" departPos="6.631071045133859" departSpeed="0.41802551" id="310" type="passenger">
		<route edges="42245 42589"/>
	</vehicle>
	<vehicle depart="0.1" departLane="0" departPos="10.152360370055657" departSpeed="2.1045169" id="312" type="passenger">
		<route edges="42242 42545"/>
	</vehicle>
	<vehicle depart="0.1" departLane="0" departPos="21.543570516191192" departSpeed="2.1464676" id="319" type="passenger">
		<route edges="42242 42545"/>
	</vehicle>
	<vehicle depart="0.1" departLane="0" departPos="6.6265667777916235" departSpeed="0.12003535" id="322" type="passenger">
		<route edges=":38_4 42589"/>
	</vehicle>
	<vehicle depart="0.1" departLane="0" departPos="20.365444903994415" departSpeed="1.2795023" id="323" type="passenger">
		<route edges=":37_6 42245"/>
	</vehicle>
	<vehicle depart="0.1" departLane="0" departPos="50.20925300687845" departSpeed="0.0" id="320" type="truck">
		<route edges="42542 42245"/>
	</vehicle>
</routes>
