<routes>
	<vehicle depart="0.1" departLane="0" departPos="8.533250534919393" departSpeed="7.1063149" id="333" type="bus">
		<route edges="21492"/>
	</vehicle>
	<vehicle depart="0.1" departLane="0" departPos="19.811302599077013" departSpeed="8.1929566" id="337" type="passenger">
		<route edges="20968 21492"/>
	</vehicle>
	<vehicle depart="0.1" departLane="0" departPos="22.956053155402003" departSpeed="2.7658287" id="30" type="truck">
		<route edges=":43_5 20969"/>
	</vehicle>
</routes>
