<routes>
	<vehicle depart="0.1" departLane="0" departPos="15.187511081479402" departSpeed="2.2055402" id="311" type="passenger">
		<route edges=":86_2 14413"/>
	</vehicle>
	<vehicle depart="0.1" departLane="0" departPos="33.325305316946725" departSpeed="0.5982637" id="320" type="passenger">
		<route edges="14489 14417"/>
	</vehicle>
	<vehicle depart="0.1" departLane="0" departPos="46.61852857885384" departSpeed="0.049428382" id="331" type="passenger">
		<route edges="14487 14490"/>
	</vehicle>
	<vehicle depart="0.1" departLane="0" departPos="25.66172723189435" departSpeed="0.11039426" id="338" type="passenger">
		<route edges="14489 14417"/>
	</vehicle>
	<vehicle depart="0.1" departLane="0" departPos="4.502516657203878" departSpeed="0.72083075" id="353" type="passenger">
		<route edges=":84_4 14414 14490"/>
	</vehicle>
	<vehicle depart="0.1" departLane="0" departPos="36.10163393848065" departSpeed="2.0046939" id="362" type="passenger">
		<route edges=":86_10 14413 17382"/>
	</vehicle>
	<vehicle depart="0.1" departLane="0" departPos="11.794218478588917" departSpeed="1.9759357" id="365" type="passenger">
		<route edges=":84_1 14704"/>
	</vehicle>
	<vehicle depart="0.1" departLane="0" departPos="13.481897865210305" departSpeed="6.5809441" id="368" type="passenger">
		<route edges=":86_11 14490 17660"/>
	</vehicle>
	<vehicle depart="0.1" departLane="0" departPos="20.632234836947884" departSpeed="7.7607689" id="369" type="passenger">
		<route edges=":87_4 14707 16859"/>
	</vehicle>
</routes>
