<routes>
	<vehicle depart="0.1" departLane="0" departPos="13.451288589920805" departSpeed="3.0371387" id="310" type="passenger">
		<route edges="3373 2572"/>
	</vehicle>
	<vehicle depart="0.1" departLane="0" departPos="25.13388254193643" departSpeed="9.6581478" id="314" type="passenger">
		<route edges=":74_1 2646 8276"/>
	</vehicle>
	<vehicle depart="0.1" departLane="0" departPos="19.328357739876946" departSpeed="6.1831256" id="317" type="passenger">
		<route edges="2568 3779"/>
	</vehicle>
	<vehicle depart="0.1" departLane="0" departPos="28.45121375416487" departSpeed="2.0113474" id="318" type="passenger">
		<route edges=":72_5 2568 3779"/>
	</vehicle>
	<vehicle depart="0.1" departLane="0" departPos="17.382113268091924" departSpeed="4.1344924" id="321" type="passenger">
		<route edges=":72_2 2568"/>
	</vehicle>
	<vehicle depart="0.1" departLane="0" departPos="16.97219386843164" departSpeed="2.7435336" id="326" type="passenger">
		<route edges=":72_4 2572"/>
	</vehicle>
	<vehicle depart="0.1" departLane="0" departPos="2.5" departSpeed="0.64054864" id="328" type="passenger">
		<route edges="2571 3374"/>
	</vehicle>
	<vehicle depart="0.1" departLane="0" departPos="6.677611452478303" departSpeed="1.1406141" id="353" type="passenger">
		<route edges="3373 2572"/>
	</vehicle>
</routes>
