<!-- generated on Tue Feb  9 22:16:56 2021 by Eclipse SUMO netconvert Version 1.8.0
<configuration xmlns:xsi="http://www.w3.org/2001/XMLSchema-instance" xsi:noNamespaceSchemaLocation="http://sumo.dlr.de/xsd/netconvertConfiguration.xsd">

    <input>
        <node-files value="./converted_scenarios/scenario-factory/DEU_Muehlhausen-4_1_I-1-1/DEU_Muehlhausen-4_1_I-1-1.nod.xml"/>
        <edge-files value="./converted_scenarios/scenario-factory/DEU_Muehlhausen-4_1_I-1-1/DEU_Muehlhausen-4_1_I-1-1.edg.xml"/>
        <connection-files value="./converted_scenarios/scenario-factory/DEU_Muehlhausen-4_1_I-1-1/DEU_Muehlhausen-4_1_I-1-1.con.xml"/>
        <tllogic-files value="./converted_scenarios/scenario-factory/DEU_Muehlhausen-4_1_I-1-1/DEU_Muehlhausen-4_1_I-1-1.tll.xml"/>
        <type-files value="/home/zen/commonroad-interactive-benchmarks/install/commonroad-map-tool/crmapconverter/sumo_map/templates/DEU.typ.xml"/>
    </input>

    <output>
        <output-file value="./converted_scenarios/scenario-factory/DEU_Muehlhausen-4_1_I-1-1/DEU_Muehlhausen-4_1_I-1-1.net.xml"/>
    </output>

    <processing>
        <geometry.remove.keep-edges.explicit value="true"/>
        <geometry.avoid-overlap value="true"/>
        <offset.disable-normalization value="true"/>
    </processing>

    <junctions>
        <no-turnarounds value="true"/>
        <junctions.internal-link-detail value="20"/>
    </junctions>

    <report>
        <aggregate-warnings value="5"/>
    </report>

    <random_number>
        <seed value="1234"/>
    </random_number>

</configuration>
--><net xmlns:xsi="http://www.w3.org/2001/XMLSchema-instance" version="1.6" junctionCornerDetail="5" junctionLinkDetail="20" limitTurnSpeed="5.50" xsi:noNamespaceSchemaLocation="http://sumo.dlr.de/xsd/net_file.xsd">

    <location netOffset="0.00,0.00" convBoundary="-524.10,620.20,-221.09,991.15" origBoundary="-524.10,620.20,-221.09,991.15" projParameter="!"/>

    <type id="highway.bridleway" priority="1" speed="2.78" allow="pedestrian" oneway="1" width="2.00"/>
    <type id="highway.bus_guideway" priority="1" speed="27.78" allow="bus" oneway="1"/>
    <type id="highway.cycleway" priority="1" speed="8.33" allow="bicycle" oneway="0" width="1.00"/>
    <type id="highway.footway" priority="1" speed="2.78" allow="pedestrian" oneway="1" width="2.00"/>
    <type id="highway.ford" priority="1" speed="2.78" allow="army" oneway="0"/>
    <type id="highway.living_street" priority="2" speed="2.78" disallow="tram rail_urban rail rail_electric rail_fast ship" oneway="0"/>
    <type id="highway.motorway" priority="14" speed="39.44" allow="private emergency authority army vip passenger hov taxi bus coach delivery truck trailer motorcycle evehicle custom1 custom2" oneway="1"/>
    <type id="highway.motorway_link" priority="9" speed="22.22" allow="private emergency authority army vip passenger hov taxi bus coach delivery truck trailer motorcycle evehicle custom1 custom2" oneway="1"/>
    <type id="highway.path" priority="1" speed="2.78" allow="pedestrian bicycle" oneway="0" width="2.00"/>
    <type id="highway.pedestrian" priority="1" speed="2.78" allow="pedestrian" oneway="1" width="2.00"/>
    <type id="highway.primary" priority="12" speed="27.78" disallow="pedestrian tram rail_urban rail rail_electric rail_fast ship" oneway="0"/>
    <type id="highway.primary_link" priority="7" speed="22.22" disallow="pedestrian tram rail_urban rail rail_electric rail_fast ship" oneway="0"/>
    <type id="highway.raceway" priority="15" speed="83.33" allow="vip" oneway="0"/>
    <type id="highway.residential" priority="3" speed="13.89" disallow="pedestrian tram rail_urban rail rail_electric rail_fast ship" oneway="0"/>
    <type id="highway.secondary" priority="11" speed="27.78" disallow="pedestrian tram rail_urban rail rail_electric rail_fast ship" oneway="0"/>
    <type id="highway.secondary_link" priority="6" speed="22.22" disallow="pedestrian tram rail_urban rail rail_electric rail_fast ship" oneway="0"/>
    <type id="highway.service" priority="1" speed="5.56" allow="pedestrian delivery bicycle" oneway="0"/>
    <type id="highway.stairs" priority="1" speed="1.39" allow="pedestrian" oneway="1" width="2.00"/>
    <type id="highway.step" priority="1" speed="1.39" allow="pedestrian" oneway="1" width="2.00"/>
    <type id="highway.steps" priority="1" speed="1.39" allow="pedestrian" oneway="1" width="2.00"/>
    <type id="highway.tertiary" priority="10" speed="22.22" disallow="pedestrian tram rail_urban rail rail_electric rail_fast ship" oneway="0"/>
    <type id="highway.tertiary_link" priority="5" speed="22.22" disallow="pedestrian tram rail_urban rail rail_electric rail_fast ship" oneway="0"/>
    <type id="highway.track" priority="1" speed="5.56" allow="pedestrian motorcycle moped bicycle" oneway="0"/>
    <type id="highway.trunk" priority="13" speed="27.78" disallow="pedestrian bicycle tram rail_urban rail rail_electric rail_fast ship" oneway="0"/>
    <type id="highway.trunk_link" priority="8" speed="22.22" disallow="pedestrian bicycle tram rail_urban rail rail_electric rail_fast ship" oneway="0"/>
    <type id="highway.unclassified" priority="4" speed="13.89" disallow="pedestrian tram rail_urban rail rail_electric rail_fast ship" oneway="0"/>
    <type id="highway.unsurfaced" priority="1" speed="8.33" disallow="tram rail_urban rail rail_electric rail_fast ship" oneway="0"/>
    <type id="railway.highspeed" priority="21" speed="69.44" allow="rail_fast" oneway="1"/>
    <type id="railway.light_rail" priority="19" speed="27.78" allow="rail_urban" oneway="1"/>
    <type id="railway.preserved" priority="16" speed="27.78" allow="rail" oneway="1"/>
    <type id="railway.rail" priority="20" speed="44.44" allow="rail" oneway="1"/>
    <type id="railway.subway" priority="18" speed="27.78" allow="rail_urban" oneway="1"/>
    <type id="railway.tram" priority="17" speed="13.89" allow="tram" oneway="1"/>

    <edge id=":21_0" function="internal">
        <lane id=":21_0_0" index="0" disallow="pedestrian tram rail_urban rail rail_electric rail_fast ship" speed="36.11" length="3.35" width="3.50" shape="-426.87,797.19 -426.25,793.90"/>
    </edge>
    <edge id=":29_0" function="internal">
        <lane id=":29_0_0" index="0" disallow="pedestrian tram rail_urban rail rail_electric rail_fast ship" speed="36.11" length="3.20" width="3.50" shape="-401.05,782.58 -404.21,782.06"/>
    </edge>
    <edge id=":30_0" function="internal">
        <lane id=":30_0_0" index="0" disallow="pedestrian tram rail_urban rail rail_electric rail_fast ship" speed="36.11" length="3.37" width="3.50" shape="-422.81,794.51 -423.43,797.82"/>
    </edge>
    <edge id=":31_0" function="internal">
        <lane id=":31_0_0" index="0" disallow="pedestrian tram rail_urban rail rail_electric rail_fast ship" speed="36.11" length="3.21" width="3.50" shape="-403.62,778.61 -400.45,779.13"/>
    </edge>
    <edge id=":36_0" function="internal">
        <lane id=":36_0_0" index="0" disallow="pedestrian tram rail_urban rail rail_electric rail_fast ship" speed="36.11" length="2.99" width="3.50" shape="-305.62,770.09 -305.11,767.14"/>
    </edge>
    <edge id=":44_0" function="internal">
        <lane id=":44_0_0" index="0" disallow="pedestrian tram rail_urban rail rail_electric rail_fast ship" speed="36.11" length="0.10" width="3.50" shape="-507.92,823.30 -507.92,823.30"/>
    </edge>
    <edge id=":48_0" function="internal">
        <lane id=":48_0_0" index="0" disallow="pedestrian tram rail_urban rail rail_electric rail_fast ship" speed="36.11" length="3.00" width="3.50" shape="-300.78,743.19 -300.22,740.24"/>
    </edge>
    <edge id=":49_0" function="internal">
        <lane id=":49_0_0" index="0" disallow="pedestrian tram rail_urban rail rail_electric rail_fast ship" speed="36.11" length="2.99" width="3.50" shape="-301.66,767.73 -302.17,770.68"/>
    </edge>
    <edge id=":51_0" function="internal">
        <lane id=":51_0_0" index="0" disallow="pedestrian tram rail_urban rail rail_electric rail_fast ship" speed="36.11" length="2.99" width="3.50" shape="-296.78,740.91 -297.35,743.85"/>
    </edge>
    <edge id=":59_0" function="internal">
        <lane id=":59_0_0" index="0" disallow="pedestrian tram rail_urban rail rail_electric rail_fast ship" speed="36.11" length="2.26" width="3.50" shape="-242.88,855.79 -243.05,855.77 -243.20,855.75 -243.34,855.74 -243.46,855.73 -243.57,855.72 -243.68,855.72 -243.78,855.71 -243.87,855.71 -243.96,855.71 -244.05,855.71 -244.14,855.71 -244.23,855.71 -244.33,855.71 -244.44,855.71 -244.55,855.72 -244.68,855.72 -244.81,855.72 -244.97,855.71 -245.14,855.71"/>
    </edge>
    <edge id=":70_0" function="internal">
        <lane id=":70_0_0" index="0" disallow="pedestrian tram rail_urban rail rail_electric rail_fast ship" speed="13.21" length="33.27" width="3.50" shape="-295.84,856.71 -299.07,856.82 -302.26,857.23 -304.36,857.70 -306.41,858.35 -308.38,859.19 -310.26,860.23 -312.01,861.48 -313.62,862.91 -315.05,864.50 -316.32,866.24 -317.41,868.09 -318.74,871.02 -319.76,874.08 -320.02,875.09"/>
    </edge>
    <edge id=":70_1" function="internal">
        <lane id=":70_1_0" index="0" disallow="pedestrian tram rail_urban rail rail_electric rail_fast ship" speed="36.11" length="41.00" width="3.50" shape="-295.84,856.71 -306.35,856.44 -315.79,855.87 -325.21,854.96 -333.54,853.82 -336.65,853.30"/>
    </edge>
    <edge id=":70_2" function="internal">
        <lane id=":70_2_0" index="0" disallow="pedestrian tram rail_urban rail rail_electric rail_fast ship" speed="11.86" length="35.58" width="3.50" shape="-295.84,856.71 -299.94,856.47 -302.64,856.05 -305.29,855.35 -307.82,854.32 -309.02,853.66 -310.16,852.90 -311.21,852.03 -312.18,851.06 -313.03,850.00 -313.77,848.85 -314.40,847.63 -314.91,846.36 -315.31,845.05 -315.81,842.36 -315.97,839.63 -315.88,836.90 -315.57,834.16"/>
    </edge>
    <edge id=":70_3" function="internal">
        <lane id=":70_3_0" index="0" disallow="pedestrian tram rail_urban rail rail_electric rail_fast ship" speed="10.84" length="29.49" width="3.50" shape="-312.11,834.66 -312.38,837.04 -312.46,839.38 -312.32,841.68 -311.90,843.93 -311.58,844.96 -311.17,845.97 -310.68,846.93 -310.10,847.83 -309.43,848.65 -308.67,849.41 -307.84,850.09 -306.94,850.70 -306.00,851.21 -303.89,852.07 -301.67,852.65 -299.38,853.01 -295.80,853.21"/>
    </edge>
    <edge id=":70_4" function="internal">
        <lane id=":70_4_0" index="0" disallow="pedestrian tram rail_urban rail rail_electric rail_fast ship" speed="36.11" length="41.21" width="3.50" shape="-312.11,834.66 -312.73,838.77 -314.80,850.95 -317.24,863.07 -320.02,875.09"/>
    </edge>
    <edge id=":70_5" function="internal">
        <lane id=":70_5_0" index="0" disallow="pedestrian tram rail_urban rail rail_electric rail_fast ship" speed="12.30" length="35.58" width="3.50" shape="-312.11,834.66 -312.86,838.56 -313.59,841.09 -314.55,843.55 -315.78,845.88 -317.30,848.02 -318.18,849.00 -319.14,849.91 -320.17,850.72 -321.28,851.44 -322.44,852.06 -323.65,852.59 -326.17,853.34 -328.77,853.73 -331.41,853.82 -334.04,853.66 -336.65,853.30"/>
    </edge>
    <edge id=":70_6" function="internal">
        <lane id=":70_6_0" index="0" disallow="pedestrian tram rail_urban rail rail_electric rail_fast ship" speed="11.31" length="29.90" width="3.50" shape="-336.06,849.85 -333.78,850.17 -331.51,850.30 -329.28,850.23 -327.11,849.90 -325.01,849.26 -324.07,848.85 -323.13,848.35 -322.25,847.76 -321.42,847.11 -320.65,846.38 -319.96,845.61 -318.69,843.81 -317.67,841.85 -316.86,839.76 -316.23,837.58 -315.57,834.16"/>
    </edge>
    <edge id=":70_7" function="internal">
        <lane id=":70_7_0" index="0" disallow="pedestrian tram rail_urban rail rail_electric rail_fast ship" speed="36.11" length="40.44" width="3.50" shape="-336.06,849.85 -333.00,850.36 -324.78,851.48 -315.50,852.38 -306.18,852.94 -295.80,853.21"/>
    </edge>
    <edge id=":70_8" function="internal">
        <lane id=":70_8_0" index="0" disallow="pedestrian tram rail_urban rail rail_electric rail_fast ship" speed="11.97" length="34.77" width="3.50" shape="-336.06,849.85 -334.76,850.10 -332.26,850.72 -329.78,851.58 -327.36,852.72 -325.12,854.18 -324.03,855.08 -323.05,856.05 -322.16,857.12 -321.37,858.27 -320.70,859.50 -320.15,860.77 -319.71,862.08 -319.39,863.44 -319.05,866.07 -319.04,868.72 -319.29,871.34 -320.02,875.09"/>
    </edge>
    <edge id=":70_9" function="internal">
        <lane id=":70_9_0" index="0" disallow="pedestrian tram rail_urban rail rail_electric rail_fast ship" speed="10.95" length="28.93" width="3.50" shape="-323.42,874.27 -322.78,871.01 -322.57,868.79 -322.57,866.56 -322.85,864.36 -323.11,863.27 -323.46,862.22 -323.90,861.19 -324.43,860.22 -325.06,859.30 -325.77,858.44 -326.56,857.65 -327.41,856.94 -329.28,855.73 -331.29,854.77 -333.39,854.05 -335.55,853.51 -336.65,853.30"/>
    </edge>
    <edge id=":70_10" function="internal">
        <lane id=":70_10_0" index="0" disallow="pedestrian tram rail_urban rail rail_electric rail_fast ship" speed="36.11" length="40.89" width="3.50" shape="-323.42,874.27 -320.66,862.33 -318.24,850.31 -316.18,838.22 -315.57,834.16"/>
    </edge>
    <edge id=":70_11" function="internal">
        <lane id=":70_11_0" index="0" disallow="pedestrian tram rail_urban rail rail_electric rail_fast ship" speed="14.10" length="38.01" width="3.50" shape="-323.42,874.27 -323.11,873.09 -321.98,869.67 -320.47,866.36 -319.22,864.23 -317.76,862.22 -316.10,860.37 -314.24,858.71 -312.20,857.27 -310.03,856.06 -307.75,855.08 -305.41,854.33 -303.01,853.79 -299.42,853.33 -295.80,853.21"/>
    </edge>
    <edge id=":71_0" function="internal">
        <lane id=":71_0_0" index="0" disallow="pedestrian tram rail_urban rail rail_electric rail_fast ship" speed="36.11" length="38.86" width="3.50" shape="-412.66,840.41 -440.93,835.64 -450.96,833.85"/>
    </edge>
    <edge id=":71_1" function="internal">
        <lane id=":71_1_0" index="0" disallow="pedestrian tram rail_urban rail rail_electric rail_fast ship" speed="12.19" length="34.48" width="3.50" shape="-412.66,840.41 -416.58,839.56 -419.10,838.74 -421.52,837.67 -423.79,836.30 -424.84,835.50 -425.83,834.61 -426.73,833.64 -427.55,832.60 -428.27,831.49 -428.89,830.32 -429.41,829.10 -430.15,826.56 -430.54,823.94 -430.62,821.29 -430.46,818.64 -430.10,816.02"/>
    </edge>
    <edge id=":71_2" function="internal">
        <lane id=":71_2_0" index="0" disallow="pedestrian tram rail_urban rail rail_electric rail_fast ship" speed="11.19" length="28.86" width="3.50" shape="-426.65,816.61 -426.97,818.89 -427.11,821.17 -427.04,823.42 -426.72,825.60 -426.10,827.72 -425.69,828.68 -425.19,829.62 -424.62,830.51 -423.96,831.34 -423.23,832.11 -422.44,832.83 -421.61,833.47 -419.70,834.62 -417.66,835.52 -415.52,836.22 -412.10,836.95"/>
    </edge>
    <edge id=":71_3" function="internal">
        <lane id=":71_3_0" index="0" disallow="pedestrian tram rail_urban rail rail_electric rail_fast ship" speed="12.14" length="34.15" width="3.50" shape="-426.65,816.61 -427.17,819.10 -427.87,821.56 -428.81,823.98 -430.03,826.31 -431.55,828.47 -432.47,829.50 -433.46,830.43 -434.54,831.27 -435.68,832.02 -436.88,832.65 -438.13,833.18 -439.44,833.62 -442.00,834.16 -444.62,834.38 -447.21,834.32 -450.96,833.85"/>
    </edge>
    <edge id=":71_4" function="internal">
        <lane id=":71_4_0" index="0" disallow="pedestrian tram rail_urban rail rail_electric rail_fast ship" speed="11.14" length="28.57" width="3.50" shape="-450.37,830.40 -447.10,830.81 -444.90,830.86 -442.71,830.68 -440.57,830.22 -439.52,829.87 -438.51,829.44 -437.54,828.93 -436.62,828.33 -435.76,827.65 -434.96,826.89 -434.22,826.08 -432.95,824.28 -431.94,822.33 -431.15,820.28 -430.54,818.17 -430.10,816.02"/>
    </edge>
    <edge id=":71_5" function="internal">
        <lane id=":71_5_0" index="0" disallow="pedestrian tram rail_urban rail rail_electric rail_fast ship" speed="36.11" length="38.83" width="3.50" shape="-450.37,830.40 -440.33,832.19 -412.10,836.95"/>
    </edge>
    <edge id=":72_0" function="internal">
        <lane id=":72_0_0" index="0" disallow="pedestrian tram rail_urban rail rail_electric rail_fast ship" speed="11.21" length="28.68" width="3.50" shape="-366.26,848.14 -368.55,847.82 -370.81,847.68 -373.04,847.75 -375.21,848.06 -377.32,848.67 -378.27,849.07 -379.21,849.56 -380.10,850.12 -380.93,850.76 -381.71,851.48 -382.43,852.26 -383.08,853.08 -384.25,854.95 -385.17,856.96 -385.90,859.07 -386.68,862.46"/>
    </edge>
    <edge id=":72_1" function="internal">
        <lane id=":72_1_0" index="0" disallow="pedestrian tram rail_urban rail rail_electric rail_fast ship" speed="36.11" length="38.60" width="3.50" shape="-366.26,848.14 -369.36,847.61 -404.33,841.75"/>
    </edge>
    <edge id=":72_2" function="internal">
        <lane id=":72_2_0" index="0" disallow="pedestrian tram rail_urban rail rail_electric rail_fast ship" speed="36.11" length="38.63" width="3.50" shape="-403.78,838.30 -368.77,844.16 -365.68,844.69"/>
    </edge>
    <edge id=":72_3" function="internal">
        <lane id=":72_3_0" index="0" disallow="pedestrian tram rail_urban rail rail_electric rail_fast ship" speed="12.09" length="34.10" width="3.50" shape="-403.78,838.30 -399.90,839.13 -397.41,839.94 -395.02,841.00 -392.78,842.36 -391.75,843.16 -390.78,844.03 -389.89,844.99 -389.08,846.03 -388.38,847.13 -387.77,848.29 -387.27,849.50 -386.55,852.01 -386.19,854.60 -386.13,857.22 -386.30,859.83 -386.68,862.46"/>
    </edge>
    <edge id=":72_4" function="internal">
        <lane id=":72_4_0" index="0" disallow="pedestrian tram rail_urban rail rail_electric rail_fast ship" speed="11.08" length="28.44" width="3.50" shape="-390.13,861.84 -389.80,859.56 -389.64,857.32 -389.70,855.10 -389.99,852.94 -390.59,850.86 -390.98,849.92 -391.47,848.99 -392.03,848.11 -392.67,847.29 -393.38,846.52 -394.16,845.82 -394.98,845.19 -396.85,844.05 -398.85,843.16 -400.96,842.48 -404.33,841.75"/>
    </edge>
    <edge id=":72_5" function="internal">
        <lane id=":72_5_0" index="0" disallow="pedestrian tram rail_urban rail rail_electric rail_fast ship" speed="12.21" length="34.23" width="3.50" shape="-390.13,861.84 -389.23,857.97 -388.37,855.48 -387.27,853.09 -385.88,850.86 -385.07,849.83 -384.17,848.86 -383.21,847.97 -382.16,847.17 -381.05,846.46 -379.89,845.86 -378.67,845.35 -376.15,844.62 -373.54,844.25 -370.92,844.17 -368.29,844.33 -365.68,844.69"/>
    </edge>
    <edge id=":73_0" function="internal">
        <lane id=":73_0_0" index="0" disallow="pedestrian tram rail_urban rail rail_electric rail_fast ship" speed="11.18" length="29.04" width="3.50" shape="-478.38,847.28 -478.00,845.00 -477.78,842.70 -477.77,840.43 -478.01,838.21 -478.54,836.05 -478.91,835.07 -479.36,834.10 -479.90,833.17 -480.51,832.30 -481.21,831.49 -481.98,830.74 -482.81,830.04 -483.67,829.42 -485.63,828.32 -487.72,827.45 -489.91,826.77 -492.19,826.26"/>
    </edge>
    <edge id=":73_1" function="internal">
        <lane id=":73_1_0" index="0" disallow="pedestrian tram rail_urban rail rail_electric rail_fast ship" speed="12.33" length="34.32" width="3.50" shape="-478.38,847.28 -477.45,843.59 -476.58,841.14 -475.48,838.77 -474.09,836.51 -472.41,834.46 -471.41,833.49 -470.35,832.62 -469.22,831.85 -468.03,831.18 -466.79,830.62 -465.51,830.16 -464.19,829.79 -461.59,829.37 -458.96,829.26 -456.37,829.41 -453.85,829.77"/>
    </edge>
    <edge id=":73_2" function="internal">
        <lane id=":73_2_0" index="0" disallow="pedestrian tram rail_urban rail rail_electric rail_fast ship" speed="11.33" length="28.84" width="3.50" shape="-454.45,833.22 -456.65,832.91 -458.86,832.78 -461.08,832.87 -463.27,833.24 -464.34,833.53 -465.38,833.91 -466.39,834.38 -467.35,834.93 -468.26,835.55 -469.12,836.26 -469.92,837.03 -471.32,838.75 -472.47,840.65 -473.40,842.66 -474.14,844.75 -474.96,847.98"/>
    </edge>
    <edge id=":73_3" function="internal">
        <lane id=":73_3_0" index="0" disallow="pedestrian tram rail_urban rail rail_electric rail_fast ship" speed="36.11" length="38.38" width="3.50" shape="-454.45,833.22 -473.31,829.74 -492.19,826.26"/>
    </edge>
    <edge id=":73_4" function="internal">
        <lane id=":73_4_0" index="0" disallow="pedestrian tram rail_urban rail rail_electric rail_fast ship" speed="36.11" length="38.33" width="3.50" shape="-491.54,822.82 -472.67,826.30 -453.85,829.77"/>
    </edge>
    <edge id=":73_5" function="internal">
        <lane id=":73_5_0" index="0" disallow="pedestrian tram rail_urban rail rail_electric rail_fast ship" speed="12.18" length="34.68" width="3.50" shape="-491.54,822.82 -488.92,823.41 -486.37,824.20 -483.91,825.22 -481.59,826.53 -480.50,827.30 -479.48,828.15 -478.53,829.09 -477.66,830.10 -476.88,831.19 -476.21,832.34 -475.64,833.54 -475.18,834.79 -474.54,837.38 -474.26,840.03 -474.27,842.70 -474.51,845.35 -474.96,847.98"/>
    </edge>
    <edge id=":74_0" function="internal">
        <lane id=":74_0_0" index="0" disallow="pedestrian tram rail_urban rail rail_electric rail_fast ship" speed="36.11" length="38.25" width="3.50" shape="-303.55,778.83 -305.56,791.06 -309.48,816.62"/>
    </edge>
    <edge id=":74_1" function="internal">
        <lane id=":74_1_0" index="0" disallow="pedestrian tram rail_urban rail rail_electric rail_fast ship" speed="12.12" length="34.13" width="3.50" shape="-303.55,778.83 -304.38,782.54 -305.20,785.00 -306.29,787.37 -307.68,789.60 -308.53,790.68 -309.45,791.67 -310.46,792.58 -311.54,793.41 -312.70,794.13 -313.91,794.74 -315.16,795.24 -316.47,795.65 -319.03,796.16 -321.64,796.35 -324.22,796.28 -327.99,795.80"/>
    </edge>
    <edge id=":74_2" function="internal">
        <lane id=":74_2_0" index="0" disallow="pedestrian tram rail_urban rail rail_electric rail_fast ship" speed="11.11" length="28.50" width="3.50" shape="-327.37,792.36 -324.10,792.78 -321.91,792.84 -319.73,792.68 -317.58,792.25 -316.53,791.92 -315.51,791.51 -314.53,791.02 -313.60,790.44 -312.73,789.78 -311.91,789.05 -311.16,788.25 -310.48,787.38 -309.33,785.53 -308.41,783.53 -307.72,781.45 -307.00,778.25"/>
    </edge>
    <edge id=":74_3" function="internal">
        <lane id=":74_3_0" index="0" disallow="pedestrian tram rail_urban rail rail_electric rail_fast ship" speed="12.36" length="34.31" width="3.50" shape="-327.37,792.36 -323.51,793.26 -321.01,794.10 -318.61,795.19 -316.35,796.56 -314.31,798.22 -313.39,799.17 -312.55,800.19 -311.80,801.28 -311.15,802.42 -310.59,803.62 -309.77,806.12 -309.29,808.72 -309.11,811.35 -309.19,813.99 -309.48,816.62"/>
    </edge>
    <edge id=":74_4" function="internal">
        <lane id=":74_4_0" index="0" disallow="pedestrian tram rail_urban rail rail_electric rail_fast ship" speed="11.38" length="28.87" width="3.50" shape="-312.95,816.13 -312.69,813.83 -312.63,811.56 -312.77,809.32 -313.17,807.15 -313.87,805.07 -314.31,804.12 -314.84,803.20 -315.44,802.32 -316.12,801.50 -316.84,800.75 -318.55,799.36 -320.44,798.23 -322.48,797.31 -324.61,796.58 -327.99,795.80"/>
    </edge>
    <edge id=":74_5" function="internal">
        <lane id=":74_5_0" index="0" disallow="pedestrian tram rail_urban rail rail_electric rail_fast ship" speed="36.11" length="38.34" width="3.50" shape="-312.95,816.13 -309.02,790.51 -307.00,778.25"/>
    </edge>
    <edge id=":75_0" function="internal">
        <lane id=":75_0_0" index="0" disallow="pedestrian tram rail_urban rail rail_electric rail_fast ship" speed="36.11" length="37.48" width="3.50" shape="-328.84,910.38 -329.63,913.45 -333.76,928.51 -339.10,946.43"/>
        <lane id=":75_0_1" index="1" disallow="pedestrian tram rail_urban rail rail_electric rail_fast ship" speed="36.11" length="37.48" width="3.50" shape="-328.84,910.38 -329.63,913.45 -333.76,928.51 -339.10,946.43"/>
    </edge>
    <edge id=":75_2" function="internal">
        <lane id=":75_2_0" index="0" disallow="pedestrian tram rail_urban rail rail_electric rail_fast ship" speed="12.52" length="34.27" width="3.50" shape="-328.84,910.38 -329.59,912.94 -330.56,915.39 -331.78,917.73 -333.28,919.89 -334.14,920.89 -335.08,921.81 -336.09,922.66 -337.17,923.41 -338.31,924.08 -339.50,924.65 -341.99,925.50 -344.58,926.00 -347.20,926.19 -349.84,926.12 -353.76,925.63 -355.04,925.39"/>
    </edge>
    <edge id=":75_3" function="internal">
        <lane id=":75_3_0" index="0" disallow="pedestrian tram rail_urban rail rail_electric rail_fast ship" speed="11.54" length="28.95" width="3.50" shape="-354.43,921.94 -353.24,922.17 -349.77,922.61 -347.51,922.67 -345.28,922.51 -343.12,922.11 -341.03,921.41 -340.10,920.96 -339.17,920.43 -338.30,919.82 -337.47,919.14 -336.71,918.40 -336.01,917.61 -334.74,915.80 -333.71,913.83 -332.88,911.74 -332.23,909.53"/>
    </edge>
    <edge id=":75_4" function="internal">
        <lane id=":75_4_0" index="0" disallow="pedestrian tram rail_urban rail rail_electric rail_fast ship" speed="11.61" length="33.82" width="3.50" shape="-354.43,921.94 -350.60,922.93 -348.11,923.84 -345.71,925.01 -343.47,926.49 -342.39,927.41 -341.41,928.40 -340.53,929.49 -339.75,930.67 -339.10,931.93 -338.59,933.24 -338.20,934.59 -337.95,935.95 -337.81,937.32 -337.78,938.70 -337.97,941.34 -338.43,943.94 -339.10,946.43"/>
    </edge>
    <edge id=":75_5" function="internal">
        <lane id=":75_5_0" index="0" disallow="pedestrian tram rail_urban rail rail_electric rail_fast ship" speed="11.61" length="33.82" width="3.50" shape="-354.43,921.94 -350.60,922.93 -348.11,923.84 -345.71,925.01 -343.47,926.49 -342.39,927.41 -341.41,928.40 -340.53,929.49 -339.75,930.67 -339.10,931.93 -338.59,933.24 -338.20,934.59 -337.95,935.95 -337.81,937.32 -337.78,938.70 -337.97,941.34 -338.43,943.94 -339.10,946.43"/>
    </edge>
    <edge id=":75_6" function="internal">
        <lane id=":75_6_0" index="0" disallow="pedestrian tram rail_urban rail rail_electric rail_fast ship" speed="10.56" length="27.79" width="3.50" shape="-342.45,945.42 -341.88,943.27 -341.48,941.08 -341.33,938.86 -341.36,937.75 -341.47,936.64 -341.68,935.55 -341.99,934.48 -342.40,933.45 -342.92,932.47 -343.53,931.54 -344.24,930.68 -345.02,929.89 -345.87,929.17 -347.73,927.95 -349.73,926.98 -351.82,926.22 -355.04,925.39"/>
    </edge>
    <edge id=":75_7" function="internal">
        <lane id=":75_7_0" index="0" disallow="pedestrian tram rail_urban rail rail_electric rail_fast ship" speed="36.11" length="37.32" width="3.50" shape="-342.45,945.42 -337.12,927.55 -333.01,912.56 -332.23,909.53"/>
    </edge>
    <edge id=":76_0" function="internal">
        <lane id=":76_0_0" index="0" disallow="pedestrian tram rail_urban rail rail_electric rail_fast ship" speed="36.11" length="26.26" width="3.50" shape="-245.34,855.71 -250.22,855.81 -260.38,856.56 -267.50,857.00 -271.56,857.04"/>
    </edge>
    <edge id=":76_1" function="internal">
        <lane id=":76_1_0" index="0" disallow="pedestrian tram rail_urban rail rail_electric rail_fast ship" speed="36.11" length="30.11" width="3.49" shape="-271.53,853.55 -266.42,853.41 -260.32,852.84 -252.76,851.70 -243.74,849.94 -241.75,849.51"/>
    </edge>
    <edge id=":77_0" function="internal">
        <lane id=":77_0_0" index="0" disallow="pedestrian tram rail_urban rail rail_electric rail_fast ship" speed="36.11" length="18.70" width="3.50" shape="-290.03,706.60 -290.13,707.13 -293.68,724.94"/>
    </edge>
    <edge id=":77_1" function="internal">
        <lane id=":77_1_0" index="0" disallow="pedestrian tram rail_urban rail rail_electric rail_fast ship" speed="36.11" length="38.31" width="3.50" shape="-297.11,724.27 -293.57,706.45 -289.64,686.70"/>
    </edge>
    <edge id=":77_2" function="internal">
        <lane id=":77_2_0" index="0" disallow="pedestrian tram rail_urban rail rail_electric rail_fast ship" speed="13.19" length="14.35" width="3.50" shape="-297.11,724.26 -296.95,723.49 -296.77,722.73 -296.57,721.99 -296.36,721.25 -296.12,720.53 -295.85,719.83 -295.57,719.14 -295.26,718.46 -294.93,717.80 -294.58,717.15 -294.19,716.52 -293.79,715.91 -293.35,715.31 -292.89,714.73 -292.40,714.17 -291.88,713.62 -291.33,713.10 -290.75,712.59 -290.14,712.10"/>
    </edge>
    <edge id=":79_0" function="internal">
        <lane id=":79_0_0" index="0" disallow="pedestrian tram rail_urban rail rail_electric rail_fast ship" speed="36.11" length="3.37" width="3.50" shape="-342.86,967.37 -343.62,970.65"/>
    </edge>
    <edge id=":79_1" function="internal">
        <lane id=":79_1_0" index="0" disallow="pedestrian tram rail_urban rail rail_electric rail_fast ship" speed="36.11" length="3.19" width="3.50" shape="-346.22,966.66 -346.88,969.78"/>
    </edge>

    <edge id="2568" from="72" to="70" priority="3" type="highway.residential" spreadType="center" length="30.08" shape="-386.07,847.78 -316.82,852.16">
        <lane id="2568_0" index="0" disallow="pedestrian tram rail_urban rail rail_electric rail_fast ship" speed="36.11" length="30.08" width="3.50" customShape="1" shape="-365.68,844.69 -350.87,847.27 -336.05,849.85"/>
    </edge>
    <edge id="2569" from="70" to="72" priority="3" type="highway.residential" spreadType="center" length="30.08" shape="-317.04,855.65 -386.29,851.27">
        <lane id="2569_0" index="0" disallow="pedestrian tram rail_urban rail rail_electric rail_fast ship" speed="36.11" length="30.08" width="3.50" customShape="1" shape="-336.65,853.30 -351.47,850.72 -366.28,848.14"/>
    </edge>
    <edge id="2571" from="71" to="72" priority="3" type="highway.residential" spreadType="center" length="8.47" shape="-429.75,827.45 -385.35,847.97">
        <lane id="2571_0" index="0" disallow="pedestrian tram rail_urban rail rail_electric rail_fast ship" speed="36.11" length="8.47" width="3.50" customShape="1" shape="-412.10,836.95 -407.94,837.62 -403.74,838.30"/>
    </edge>
    <edge id="2572" from="72" to="71" priority="3" type="highway.residential" spreadType="center" length="8.47" shape="-386.82,851.14 -431.21,830.63">
        <lane id="2572_0" index="0" disallow="pedestrian tram rail_urban rail rail_electric rail_fast ship" speed="36.11" length="8.47" width="3.50" customShape="1" shape="-404.33,841.75 -408.50,841.08 -412.69,840.40"/>