<routes>
	<vehicle depart="0.1" departLane="0" departPos="12.587900369344633" departSpeed="1.738439" id="31" type="passenger">
		<route edges=":26_1 17245 17236 17619"/>
	</vehicle>
	<vehicle depart="0.1" departLane="0" departPos="71.09708397831558" departSpeed="0.041476463" id="32" type="passenger">
		<route edges="17667 17669"/>
	</vehicle>
	<vehicle depart="0.1" departLane="0" departPos="67.02110188063196" departSpeed="0.98386143" id="33" type="passenger">
		<route edges="17574 17246"/>
	</vehicle>
	<vehicle depart="0.1" departLane="0" departPos="54.50717866692561" departSpeed="3.0516094" id="36" type="passenger">
		<route edges="17574 17246"/>
	</vehicle>
	<vehicle depart="0.1" departLane="0" departPos="47.06418323208712" departSpeed="0.024427825" id="37" type="passenger">
		<route edges="17574 17246"/>
	</vehicle>
	<vehicle depart="0.1" departLane="0" departPos="6.207578113683557" departSpeed="1.5272824" id="39" type="passenger">
		<route edges=":25_0 17237 17576"/>
	</vehicle>
	<vehicle depart="0.1" departLane="0" departPos="2.5" departSpeed="1.617759" id="311" type="passenger">
		<route edges=":27_1 17246 17669"/>
	</vehicle>
	<vehicle depart="0.1" departLane="0" departPos="5.048677819252949" departSpeed="0.22736083" id="312" type="passenger">
		<route edges=":25_3 17237"/>
	</vehicle>
	<vehicle depart="0.1" departLane="0" departPos="51.762291282944965" departSpeed="1.4503033" id="322" type="passenger">
		<route edges="17620 17237"/>
	</vehicle>
	<vehicle depart="0.1" departLane="0" departPos="7.67073924303724" departSpeed="4.278153" id="30" type="truck">
		<route edges=":27_5 17236 17623"/>
	</vehicle>
</routes>
