<!-- generated on Tue Feb  9 22:07:26 2021 by Eclipse SUMO netconvert Version 1.8.0
<configuration xmlns:xsi="http://www.w3.org/2001/XMLSchema-instance" xsi:noNamespaceSchemaLocation="http://sumo.dlr.de/xsd/netconvertConfiguration.xsd">

    <input>
        <node-files value="./converted_scenarios/scenario-factory/DEU_Speyer-3_12_I-1-1/DEU_Speyer-3_12_I-1-1.nod.xml"/>
        <edge-files value="./converted_scenarios/scenario-factory/DEU_Speyer-3_12_I-1-1/DEU_Speyer-3_12_I-1-1.edg.xml"/>
        <connection-files value="./converted_scenarios/scenario-factory/DEU_Speyer-3_12_I-1-1/DEU_Speyer-3_12_I-1-1.con.xml"/>
        <tllogic-files value="./converted_scenarios/scenario-factory/DEU_Speyer-3_12_I-1-1/DEU_Speyer-3_12_I-1-1.tll.xml"/>
        <type-files value="/home/zen/commonroad-interactive-benchmarks/install/commonroad-map-tool/crmapconverter/sumo_map/templates/DEU.typ.xml"/>
    </input>

    <output>
        <output-file value="./converted_scenarios/scenario-factory/DEU_Speyer-3_12_I-1-1/DEU_Speyer-3_12_I-1-1.net.xml"/>
    </output>

    <processing>
        <geometry.remove.keep-edges.explicit value="true"/>
        <geometry.avoid-overlap value="true"/>
        <offset.disable-normalization value="true"/>
    </processing>

    <junctions>
        <no-turnarounds value="true"/>
        <junctions.internal-link-detail value="20"/>
    </junctions>

    <report>
        <aggregate-warnings value="5"/>
    </report>

    <random_number>
        <seed value="1234"/>
    </random_number>

</configuration>
--><net xmlns:xsi="http://www.w3.org/2001/XMLSchema-instance" version="1.6" junctionCornerDetail="5" junctionLinkDetail="20" limitTurnSpeed="5.50" xsi:noNamespaceSchemaLocation="http://sumo.dlr.de/xsd/net_file.xsd">

    <location netOffset="0.00,0.00" convBoundary="-749.99,716.50,-578.79,964.74" origBoundary="-749.99,716.50,-578.79,964.74" projParameter="!"/>

    <type id="highway.bridleway" priority="1" speed="2.78" allow="pedestrian" oneway="1" width="2.00"/>
    <type id="highway.bus_guideway" priority="1" speed="27.78" allow="bus" oneway="1"/>
    <type id="highway.cycleway" priority="1" speed="8.33" allow="bicycle" oneway="0" width="1.00"/>
    <type id="highway.footway" priority="1" speed="2.78" allow="pedestrian" oneway="1" width="2.00"/>
    <type id="highway.ford" priority="1" speed="2.78" allow="army" oneway="0"/>
    <type id="highway.living_street" priority="2" speed="2.78" disallow="tram rail_urban rail rail_electric rail_fast ship" oneway="0"/>
    <type id="highway.motorway" priority="14" speed="39.44" allow="private emergency authority army vip passenger hov taxi bus coach delivery truck trailer motorcycle evehicle custom1 custom2" oneway="1"/>
    <type id="highway.motorway_link" priority="9" speed="22.22" allow="private emergency authority army vip passenger hov taxi bus coach delivery truck trailer motorcycle evehicle custom1 custom2" oneway="1"/>
    <type id="highway.path" priority="1" speed="2.78" allow="pedestrian bicycle" oneway="0" width="2.00"/>
    <type id="highway.pedestrian" priority="1" speed="2.78" allow="pedestrian" oneway="1" width="2.00"/>
    <type id="highway.primary" priority="12" speed="27.78" disallow="pedestrian tram rail_urban rail rail_electric rail_fast ship" oneway="0"/>
    <type id="highway.primary_link" priority="7" speed="22.22" disallow="pedestrian tram rail_urban rail rail_electric rail_fast ship" oneway="0"/>
    <type id="highway.raceway" priority="15" speed="83.33" allow="vip" oneway="0"/>
    <type id="highway.residential" priority="3" speed="13.89" disallow="pedestrian tram rail_urban rail rail_electric rail_fast ship" oneway="0"/>
    <type id="highway.secondary" priority="11" speed="27.78" disallow="pedestrian tram rail_urban rail rail_electric rail_fast ship" oneway="0"/>
    <type id="highway.secondary_link" priority="6" speed="22.22" disallow="pedestrian tram rail_urban rail rail_electric rail_fast ship" oneway="0"/>
    <type id="highway.service" priority="1" speed="5.56" allow="pedestrian delivery bicycle" oneway="0"/>
    <type id="highway.stairs" priority="1" speed="1.39" allow="pedestrian" oneway="1" width="2.00"/>
    <type id="highway.step" priority="1" speed="1.39" allow="pedestrian" oneway="1" width="2.00"/>
    <type id="highway.steps" priority="1" speed="1.39" allow="pedestrian" oneway="1" width="2.00"/>
    <type id="highway.tertiary" priority="10" speed="22.22" disallow="pedestrian tram rail_urban rail rail_electric rail_fast ship" oneway="0"/>
    <type id="highway.tertiary_link" priority="5" speed="22.22" disallow="pedestrian tram rail_urban rail rail_electric rail_fast ship" oneway="0"/>
    <type id="highway.track" priority="1" speed="5.56" allow="pedestrian motorcycle moped bicycle" oneway="0"/>
    <type id="highway.trunk" priority="13" speed="27.78" disallow="pedestrian bicycle tram rail_urban rail rail_electric rail_fast ship" oneway="0"/>
    <type id="highway.trunk_link" priority="8" speed="22.22" disallow="pedestrian bicycle tram rail_urban rail rail_electric rail_fast ship" oneway="0"/>
    <type id="highway.unclassified" priority="4" speed="13.89" disallow="pedestrian tram rail_urban rail rail_electric rail_fast ship" oneway="0"/>
    <type id="highway.unsurfaced" priority="1" speed="8.33" disallow="tram rail_urban rail rail_electric rail_fast ship" oneway="0"/>
    <type id="railway.highspeed" priority="21" speed="69.44" allow="rail_fast" oneway="1"/>
    <type id="railway.light_rail" priority="19" speed="27.78" allow="rail_urban" oneway="1"/>
    <type id="railway.preserved" priority="16" speed="27.78" allow="rail" oneway="1"/>
    <type id="railway.rail" priority="20" speed="44.44" allow="rail" oneway="1"/>
    <type id="railway.subway" priority="18" speed="27.78" allow="rail_urban" oneway="1"/>
    <type id="railway.tram" priority="17" speed="13.89" allow="tram" oneway="1"/>

    <edge id=":17_0" function="internal">
        <lane id=":17_0_0" index="0" disallow="pedestrian tram rail_urban rail rail_electric rail_fast ship" speed="36.11" length="3.15" width="3.50" shape="-687.54,894.97 -689.32,897.57"/>
    </edge>
    <edge id=":23_0" function="internal">
        <lane id=":23_0_0" index="0" disallow="pedestrian tram rail_urban rail rail_electric rail_fast ship" speed="36.11" length="2.97" width="3.50" shape="-656.70,746.93 -659.09,745.16"/>
    </edge>
    <edge id=":25_0" function="internal">
        <lane id=":25_0_0" index="0" disallow="pedestrian tram rail_urban rail rail_electric rail_fast ship" speed="36.11" length="3.14" width="3.50" shape="-692.17,895.55 -690.39,892.96"/>
    </edge>
    <edge id=":26_0" function="internal">
        <lane id=":26_0_0" index="0" disallow="pedestrian tram rail_urban rail rail_electric rail_fast ship" speed="36.11" length="0.10" width="3.50" shape="-684.80,921.04 -684.80,921.04"/>
    </edge>
    <edge id=":30_0" function="internal">
        <lane id=":30_0_0" index="0" disallow="pedestrian tram rail_urban rail rail_electric rail_fast ship" speed="36.11" length="2.98" width="3.50" shape="-657.06,742.32 -654.66,744.09"/>
    </edge>
    <edge id=":31_0" function="internal">
        <lane id=":31_0_0" index="0" disallow="pedestrian tram rail_urban rail rail_electric rail_fast ship" speed="36.11" length="3.18" width="3.50" shape="-685.62,924.77 -688.13,922.82"/>
    </edge>
    <edge id=":35_0" function="internal">
        <lane id=":35_0_0" index="0" disallow="pedestrian tram rail_urban rail rail_electric rail_fast ship" speed="11.41" length="29.10" width="3.50" shape="-680.40,843.22 -681.31,842.56 -684.17,840.78 -686.13,839.84 -688.15,839.12 -690.21,838.65 -692.33,838.50 -693.33,838.54 -694.35,838.67 -695.37,838.88 -696.33,839.16 -698.30,839.98 -700.13,841.07 -701.84,842.38 -703.44,843.87 -705.67,846.40"/>
    </edge>
    <edge id=":35_1" function="internal">
        <lane id=":35_1_0" index="0" disallow="pedestrian tram rail_urban rail rail_electric rail_fast ship" speed="12.23" length="34.41" width="3.50" shape="-680.40,843.22 -683.48,840.67 -685.35,838.79 -687.01,836.74 -688.41,834.49 -688.99,833.31 -689.47,832.07 -689.85,830.81 -690.12,829.51 -690.28,828.20 -690.31,826.88 -690.24,825.56 -689.78,822.95 -688.96,820.44 -687.86,818.03 -686.54,815.75 -685.04,813.57"/>
    </edge>
    <edge id=":35_2" function="internal">
        <lane id=":35_2_0" index="0" disallow="pedestrian tram rail_urban rail rail_electric rail_fast ship" speed="11.24" length="28.86" width="3.50" shape="-682.21,815.63 -683.53,817.54 -684.67,819.51 -685.60,821.55 -686.29,823.64 -686.66,825.81 -686.72,826.84 -686.68,827.91 -686.56,828.96 -686.34,830.00 -686.04,831.02 -685.64,832.02 -685.18,832.96 -684.00,834.85 -682.60,836.58 -681.01,838.18 -678.31,840.41"/>
    </edge>
    <edge id=":35_3" function="internal">
        <lane id=":35_3_0" index="0" disallow="pedestrian tram rail_urban rail rail_electric rail_fast ship" speed="36.11" length="38.69" width="3.50" shape="-682.21,815.63 -694.76,832.36 -705.67,846.40"/>
    </edge>
    <edge id=":35_4" function="internal">
        <lane id=":35_4_0" index="0" disallow="pedestrian tram rail_urban rail rail_electric rail_fast ship" speed="36.11" length="38.54" width="3.50" shape="-708.41,844.22 -697.53,830.23 -685.04,813.57"/>
    </edge>
    <edge id=":35_5" function="internal">
        <lane id=":35_5_0" index="0" disallow="pedestrian tram rail_urban rail rail_electric rail_fast ship" speed="12.40" length="34.55" width="3.50" shape="-708.41,844.22 -705.86,841.33 -703.99,839.59 -701.96,838.03 -699.76,836.73 -697.40,835.74 -696.18,835.38 -694.93,835.12 -693.66,834.96 -692.38,834.91 -689.84,835.10 -687.34,835.66 -684.94,836.52 -682.63,837.63 -679.37,839.64 -678.31,840.41"/>
    </edge>
    <edge id=":36_0" function="internal">
        <lane id=":36_0_0" index="0" disallow="pedestrian tram rail_urban rail rail_electric rail_fast ship" speed="11.22" length="28.69" width="3.50" shape="-646.19,868.23 -648.98,866.44 -650.95,865.44 -653.01,864.64 -655.15,864.10 -656.24,863.94 -657.34,863.87 -658.45,863.89 -659.55,864.01 -660.63,864.22 -661.69,864.53 -662.72,864.92 -664.68,865.95 -666.47,867.23 -668.11,868.72 -669.60,870.35 -670.94,872.07"/>
    </edge>
    <edge id=":36_1" function="internal">
        <lane id=":36_1_0" index="0" disallow="pedestrian tram rail_urban rail rail_electric rail_fast ship" speed="36.11" length="38.64" width="3.50" shape="-646.19,868.23 -669.01,851.66 -677.40,845.45"/>
    </edge>
    <edge id=":36_2" function="internal">
        <lane id=":36_2_0" index="0" disallow="pedestrian tram rail_urban rail rail_electric rail_fast ship" speed="36.11" length="38.55" width="3.50" shape="-675.31,842.64 -666.94,848.84 -644.17,865.37"/>
    </edge>
    <edge id=":36_3" function="internal">
        <lane id=":36_3_0" index="0" disallow="pedestrian tram rail_urban rail rail_electric rail_fast ship" speed="12.20" length="33.93" width="3.50" shape="-675.31,842.64 -673.34,844.22 -671.47,845.97 -669.76,847.90 -668.26,850.05 -667.06,852.39 -666.58,853.68 -666.22,854.98 -665.97,856.31 -665.83,857.66 -665.82,859.01 -665.91,860.34 -666.11,861.69 -666.77,864.21 -667.72,866.63 -668.90,868.92 -670.94,872.07"/>
    </edge>
    <edge id=":36_4" function="internal">
        <lane id=":36_4_0" index="0" disallow="pedestrian tram rail_urban rail rail_electric rail_fast ship" speed="11.20" length="28.40" width="3.50" shape="-673.77,870.02 -672.00,867.29 -671.00,865.34 -670.20,863.31 -669.65,861.19 -669.49,860.11 -669.41,859.02 -669.42,857.93 -669.53,856.84 -669.73,855.76 -670.02,854.71 -670.40,853.68 -671.40,851.74 -672.65,849.94 -674.10,848.31 -675.70,846.81 -677.40,845.45"/>
    </edge>
    <edge id=":36_5" function="internal">
        <lane id=":36_5_0" index="0" disallow="pedestrian tram rail_urban rail rail_electric rail_fast ship" speed="12.22" length="34.23" width="3.50" shape="-673.77,870.02 -672.22,868.02 -670.48,866.12 -668.55,864.37 -666.40,862.83 -664.05,861.59 -662.76,861.09 -661.45,860.71 -660.11,860.45 -658.75,860.30 -657.39,860.28 -656.04,860.36 -654.67,860.56 -652.13,861.20 -649.68,862.15 -647.37,863.32 -644.17,865.37"/>
    </edge>
    <edge id=":37_0" function="internal">
        <lane id=":37_0_0" index="0" disallow="pedestrian tram rail_urban rail rail_electric rail_fast ship" speed="11.25" length="28.57" width="3.50" shape="-637.89,785.10 -640.79,783.25 -642.75,782.28 -644.80,781.52 -646.93,781.02 -648.01,780.89 -649.11,780.85 -650.20,780.89 -651.28,781.03 -652.35,781.26 -653.40,781.59 -654.41,781.99 -656.34,783.03 -658.11,784.31 -659.73,785.77 -661.21,787.38 -662.56,789.09"/>
    </edge>
    <edge id=":37_1" function="internal">
        <lane id=":37_1_0" index="0" disallow="pedestrian tram rail_urban rail rail_electric rail_fast ship" speed="22.28" length="29.94" width="3.48" shape="-637.89,785.10 -638.72,784.15 -639.74,782.19 -641.83,777.08 -645.13,767.70 -648.52,757.23"/>
    </edge>
    <edge id=":37_2" function="internal">
        <lane id=":37_2_0" index="0" disallow="pedestrian tram rail_urban rail rail_electric rail_fast ship" speed="21.42" length="27.91" width="3.48" shape="-645.26,756.01 -641.93,766.24 -638.83,775.25 -636.93,780.12 -636.11,781.84 -635.88,782.27"/>
    </edge>
    <edge id=":37_3" function="internal">
        <lane id=":37_3_0" index="0" disallow="pedestrian tram rail_urban rail rail_electric rail_fast ship" speed="17.08" length="38.05" width="3.50" shape="-645.26,756.01 -644.97,757.64 -645.05,759.05 -645.60,761.37 -646.40,763.54 -647.80,766.56 -649.90,770.39 -652.73,775.00 -656.93,781.26 -662.56,789.09"/>
    </edge>
    <edge id=":37_4" function="internal">
        <lane id=":37_4_0" index="0" disallow="pedestrian tram rail_urban rail rail_electric rail_fast ship" speed="16.28" length="34.65" width="3.48" shape="-665.38,787.01 -660.00,779.57 -655.99,773.66 -653.27,769.35 -651.24,765.81 -649.87,763.07 -649.10,761.18 -648.53,759.22 -648.42,758.21 -648.52,757.23"/>
    </edge>
    <edge id=":37_5" function="internal">
        <lane id=":37_5_0" index="0" disallow="pedestrian tram rail_urban rail rail_electric rail_fast ship" speed="12.26" length="34.09" width="3.48" shape="-665.38,787.01 -663.81,785.04 -662.08,783.16 -660.17,781.44 -658.05,779.91 -655.75,778.67 -654.48,778.16 -653.19,777.77 -651.87,777.48 -650.53,777.31 -649.18,777.25 -647.84,777.31 -646.49,777.48 -643.95,778.07 -641.51,778.98 -639.20,780.12 -635.88,782.27"/>
    </edge>

    <edge id="47673" from="35" to="6" priority="3" type="highway.residential" spreadType="center" length="70.00" shape="-688.66,835.02 -747.25,902.68">
        <lane id="47673_0" index="0" disallow="pedestrian tram rail_urban rail rail_electric rail_fast ship" speed="36.11" length="70.00" width="3.50" customShape="1" shape="-705.67,846.40 -711.29,853.46 -721.83,866.90 -730.26,878.17 -741.51,894.22 -747.25,902.68"/>
    </edge>
    <edge id="47674" from="24" to="35" priority="3" type="highway.residential" spreadType="center" length="70.00" shape="-749.99,900.47 -691.31,832.73">
        <lane id="47674_0" index="0" disallow="pedestrian tram rail_urban rail rail_electric rail_fast ship" speed="36.11" length="70.00" width="3.50" customShape="1" shape="-749.99,900.47 -744.44,892.30 -733.13,876.17 -724.65,864.82 -714.05,851.31 -708.39,844.20"/>
    </edge>
    <edge id="47676" from="37" to="35" priority="3" type="highway.residential" spreadType="center" length="33.04" shape="-647.80,777.11 -688.58,834.91">
        <lane id="47676_0" index="0" disallow="pedestrian tram rail_urban rail rail_electric rail_fast ship" speed="36.11" length="33.04" width="3.50" customShape="1" shape="-662.56,789.09 -672.40,802.37 -682.22,815.65"/>
    </edge>
    <edge id="47677" from="35" to="37" priority="3" type="highway.residential" spreadType="center" length="33.06" shape="-691.44,832.89 -650.66,775.09">
        <lane id="47677_0" index="0" disallow="pedestrian tram rail_urban rail rail_electric rail_fast ship" speed="36.11" length="33.06" width="3.50" customShape="1" shape="-685.04,813.57 -675.21,800.29 -665.37,787.00"/>
    </edge>
    <edge id="47679" from="30" to="37" priority="3" type="highway.residential" spreadType="center" length="15.45" shape="-655.87,743.22 -647.54,775.79">
        <lane id="47679_0" index="0" disallow="pedestrian tram rail_urban rail rail_electric rail_fast ship" speed="36.11" length="15.45" width="3.50" customShape="1" shape="-654.66,744.09 -653.57,744.90 -650.97,747.12 -649.03,749.20 -647.34,751.50 -646.00,754.01 -645.26,756.01"/>
    </edge>
    <edge id="47680" from="37" to="23" priority="3" type="highway.residential" spreadType="center" length="13.39" shape="-650.93,776.62 -657.91,746.06">
        <lane id="47680_0" index="0" disallow="pedestrian tram rail_urban rail rail_electric rail_fast ship" speed="36.11" length="13.39" width="3.48" customShape="1" shape="-648.52,757.23 -649.20,755.41 -650.35,753.29 -651.80,751.34 -653.49,749.56 -655.80,747.59 -656.70,746.93"/>
    </edge>
    <edge id="47728" from="36" to="16" priority="3" type="highway.residential" spreadType="center" length="67.87" shape="-663.75,859.12 -588.99,904.88">
        <lane id="47728_0" index="0" disallow="pedestrian tram rail_urban rail rail_electric rail_fast ship" speed="36.11" length="67.87" width="3.50" customShape="1" shape="-644.17,865.37 -616.57,885.13 -588.99,904.88"/>
    </edge>
    <edge id="47729" from="28" to="36" priority="3" type="highway.residential" spreadType="center" length="67.84" shape="-591.05,907.71 -665.57,862.10">
        <lane id="47729_0" index="0" disallow="pedestrian tram rail_urban rail rail_electric rail_fast ship" speed="36.11" length="67.84" width="3.50" customShape="1" shape="-591.05,907.71 -618.61,887.98 -646.21,868.21"/>
    </edge>
    <edge id="47731" from="35" to="36" priority="3" type="highway.residential" spreadType="center" length="3.75" shape="-688.74,832.70 -663.31,859.49">
        <lane id="47731_0" index="0" disallow="pedestrian tram rail_urban rail rail_electric rail_fast ship" speed="36.11" length="3.75" width="3.50" customShape="1" shape="-678.31,840.41 -676.83,841.51 -675.30,842.65"/>
    </edge>
    <edge id="47732" from="36" to="35" priority="3" type="highway.residential" spreadType="center" length="3.77" shape="-665.84,861.89 -691.28,835.11">
        <lane id="47732_0" index="0" disallow="pedestrian tram rail_urban rail rail_electric rail_fast ship" speed="36.11" length="3.77" width="3.50" customShape="1" shape="-677.40,845.45 -678.92,844.32 -680.42,843.20"/>
    </edge>
    <edge id="47743" from="25" to="36" priority="3" type="highway.residential" spreadType="center" length="28.34" shape="-691.32,894.23 -666.00,859.54">
        <lane id="47743_0" index="0" disallow="pedestrian tram rail_urban rail rail_electric rail_fast ship" speed="36.11" length="28.34" width="3.50" customShape="1" shape="-690.39,892.96 -682.54,882.11 -673.77,870.01"/>
    </edge>
    <edge id="47744" from="36" to="17" priority="3" type="highway.residential" spreadType="center" length="28.28" shape="-663.18,861.60 -688.46,896.25">
        <lane id="47744_0" index="0" disallow="pedestrian tram rail_urban rail rail_electric rail_fast ship" speed="36.11" length="28.28" width="3.50" customShape="1" shape="-670.94,872.07 -679.71,884.17 -687.54,894.97"/>
    </edge>
    <edge id="47746" from="34" to="31" priority="3" type="highway.residential" spreadType="center" length="67.48">
        <lane id="47746_0" index="0" disallow="pedestrian tram rail_urban rail rail_electric rail_fast ship" speed="36.11" length="67.48" width="3.50" customShape="1" shape="-631.25,964.74 -659.06,944.30 -685.62,924.77"/>
    </edge>
    <edge id="47747" from="26" to="32" priority="3" type="highway.residential" spreadType="center" length="69.00">
        <lane id="47747_0" index="0" disallow="pedestrian tram rail_urban rail rail_electric rail_fast ship" speed="36.11" length="69.00" width="3.50" customShape="1" shape="-684.80,921.04 -656.98,941.48 -629.20,961.90"/>
    </edge>
    <edge id="47803" from="27" to="37" priority="3" type="highway.residential" spreadType="center" length="69.85" shape="-580.94,825.54 -650.27,777.54">
        <lane id="47803_0" index="0" disallow="pedestrian tram rail_urban rail rail_electric rail_fast ship" speed="36.11" length="69.85" width="3.46" customShape="1" shape="-580.94,825.54 -637.89,785.10"/>
    </edge>
    <edge id="47804" from="37" to="21" priority="3" type="highway.residential" spreadType="center" length="70.00" shape="-648.29,774.69 -578.79,822.78">
        <lane id="47804_0" index="0" disallow="pedestrian tram rail_urban rail rail_electric rail_fast ship" speed="36.11" length="70.00" width="3.48" customShape="1" shape="-635.88,782.27 -578.79,822.78"/>
    </edge>
    <edge id="47936" from="33" to="30" priority="3" type="highway.residential" spreadType="center" length="27.76">
        <lane id="47936_0" index="0" disallow="pedestrian tram rail_urban rail rail_electric rail_fast ship" speed="36.11" length="27.76" width="3.50" customShape="1" shape="-660.01,718.77 -661.43,720.52 -662.69,722.38 -663.75,724.37 -664.17,725.41 -664.53,726.48 -664.79,727.57 -664.95,728.68 -665.00,729.81 -664.94,730.93 -664.77,732.04 -664.48,733.13 -664.10,734.19 -663.62,735.21 -663.06,736.18 -661.74,738.00 -660.22,739.66 -658.56,741.18 -657.06,742.32"/>
    </edge>
    <edge id="47954" from="17" to="26" priority="3" type="highway.residential" spreadType="center" length="27.12">
        <lane id="47954_0" index="0" disallow="pedestrian tram rail_urban rail rail_electric rail_fast ship" speed="36.11" length="27.12" width="3.50" customShape="1" shape="-689.32,897.57 -690.26,899.02 -691.28,900.98 -692.09,903.04 -692.65,905.17 -692.81,906.26 -692.89,907.37 -692.88,908.47 -692.78,909.57 -692.57,910.66 -692.28,911.72 -691.89,912.76 -691.43,913.76 -690.28,915.64 -688.90,917.37 -687.35,918.94 -684.80,921.04"/>
    </edge>
    <edge id="47965" from="23" to="29" priority="3" type="highway.residential" spreadType="center" length="33.68">
        <lane id="47965_0" index="0" disallow="pedestrian tram rail_urban rail rail_electric rail_fast ship" speed="36.11" length="33.68" width="3.50" customShape="1" shape="-659.09,745.16 -660.95,743.74 -662.91,741.96 -664.70,739.98 -666.26,737.81 -666.96,736.58 -667.54,735.32 -668.02,734.00 -668.36,732.62 -668.57,731.22 -668.64,729.80 -668.56,728.39 -668.35,727.00 -668.02,725.65 -667.58,724.34 -667.05,723.05 -665.79,720.71 -664.30,718.51 -662.67,716.50"/>
    </edge>
    <edge id="47976" from="31" to="25" priority="3" type="highway.residential" spreadType="center" length="31.01">
        <lane id="47976_0" index="0" disallow="pedestrian tram rail_urban rail rail_electric rail_fast ship" speed="36.11" length="31.01" width="3.50" customShape="1" shape="-688.13,922.82 -689.82,921.43 -691.65,919.58 -693.29,917.53 -694.66,915.28 -695.25,914.03 -695.72,912.76 -696.09,911.45 -696.34,910.10 -696.47,908.74 -696.49,907.38 -696.39,906.03 -696.18,904.67 -695.52,902.14 -694.56,899.70 -693.37,897.39 -692.17,895.55"/>
    </edge>

    <junction id="16" type="dead_end" x="-588.99" y="904.88" incLanes="47728_0" intLanes="" shape="-587.97,903.45 -590.01,906.30" rightOfWay="edgePriority"/>
    <junction id="17" type="priority" x="-688.46" y="896.25" incLanes="47744_0" intLanes=":17_0_0" shape="-690.78,896.61 -687.85,898.52 -686.12,896.00 -688.95,893.95" rightOfWay="edgePriority">
        <request index="0" response="0" foes="0" cont="0"/>
    </junction>
    <junction id="21" type="dead_end" x="-578.79" y="822.78" incLanes="47804_0" intLanes="" shape="-577.78,821.36 -579.80,824.20" rightOfWay="edgePriority"/>
    <junction id="23" type="priority" x="-657.91" y="746.06" incLanes="47680_0" intLanes=":23_0_0" shape="-657.73,748.34 -655.68,745.53 -658.03,743.77 -660.15,746.55" rightOfWay="edgePriority">
        <request index="0" response="0" foes="0" cont="0"/>
    </junction>
    <junction id="24" type="dead_end" x="-749.99" y="900.47" incLanes="" intLanes="" shape="-748.54,901.45 -751.44,899.49" rightOfWay="edgePriority"/>
    <junction id="25" type="priority" x="-691.32" y="894.23" incLanes="47976_0" intLanes=":25_0_0" shape="-693.64,894.60 -690.71,896.50 -688.98,893.98 -691.81,891.93" rightOfWay="edgePriority">
        <request index="0" response="0" foes="0" cont="0"/>
    </junction>
    <junction id="26" type="priority" x="-684.80" y="921.04" incLanes="47954_0" intLanes=":26_0_0" shape="-685.79,922.48 -683.72,919.66 -685.94,922.36" rightOfWay="edgePriority">
        <request index="0" response="0" foes="0" cont="0"/>
    </junction>
    <junction id="27" type="dead_end" x="-580.94" y="825.54" incLanes="" intLanes="" shape="-579.94,824.12 -581.95,826.95" rightOfWay="edgePriority"/>
    <junction id="28" type="dead_end" x="-591.05" y="907.71" incLanes="" intLanes="" shape="-590.03,906.29 -592.06,909.13" rightOfWay="edgePriority"/>
    <junction id="29" type="dead_end" x="-662.67" y="716.50" incLanes="47965_0" intLanes="" shape="-664.03,715.40 -661.31,717.60" rightOfWay="edgePriority"/>
    <junction id="30" type="priority" x="-655.87" y="743.22" incLanes="47936_0" intLanes=":30_0_0" shape="-655.70,745.51 -653.63,742.68 -656.00,740.92 -658.11,743.71" rightOfWay="edgePriority">
        <request index="0" response="0" foes="0" cont="0"/>
    </junction>
    <junction id="31" type="priority" x="-686.90" y="923.83" incLanes="47746_0" intLanes=":31_0_0" shape="-686.66,926.18 -684.59,923.36 -687.02,921.47 -689.25,924.17" rightOfWay="edgePriority">
        <request index="0" response="0" foes="0" cont="0"/>
    </junction>
    <junction id="32" type="dead_end" x="-629.20" y="961.90" incLanes="47747_0" intLanes="" shape="-628.17,960.49 -630.24,963.31" rightOfWay="edgePriority"/>
    <junction id="33" type="dead_end" x="-660.01" y="718.77" incLanes="" intLanes="" shape="-661.37,717.67 -658.65,719.87" rightOfWay="edgePriority"/>
    <junction id="34" type="dead_end" x="-631.25" y="964.74" incLanes="" intLanes="" shape="-630.22,963.33 -632.29,966.14" rightOfWay="edgePriority"/>
    <junction id="35" type="priority" x="-690.01" y="833.90" incLanes="47732_0 47676_0 47674_0" intLanes=":35_0_0 :35_1_0 :35_2_0 :35_3_0 :35_4_0 :35_5_0" shape="-681.44,844.62 -677.27,839.01 -680.96,835.71 -683.42,832.25 -684.63,828.61 -684.60,824.81 -683.33,820.83 -680.82,816.69 -686.44,812.53 -709.77,843.13 -704.30,847.49 -700.90,843.94 -697.34,841.62 -693.62,840.53 -689.72,840.67 -685.67,842.03">
        <request index="0" response="001000" foes="001000" cont="0"/>
        <request index="1" response="111000" foes="111000" cont="0"/>
        <request index="2" response="000000" foes="100000" cont="0"/>
        <request index="3" response="000000" foes="100011" cont="0"/>
        <request index="4" response="000000" foes="000010" cont="0"/>
        <request index="5" response="001100" foes="001110" cont="0"/>
    </junction>
    <junction id="36" type="priority" x="-664.63" y="860.63" incLanes="47729_0 47731_0 47743_0" intLanes=":36_0_0 :36_1_0 :36_2_0 :36_3_0 :36_4_0 :36_5_0" shape="-647.23,869.64 -643.16,863.94 -674.27,841.24 -678.45,846.85 -674.87,850.06 -672.51,853.46 -671.36,857.05 -671.43,860.84 -672.70,864.82 -675.19,868.99 -669.52,873.09 -666.33,869.45 -662.93,867.03 -659.32,865.84 -655.50,865.87 -651.47,867.14">
        <request index="0" response="000000" foes="001000" cont="0"/>
        <request index="1" response="000000" foes="111000" cont="0"/>
        <request index="2" response="000000" foes="100000" cont="0"/>
        <request index="3" response="000011" foes="100011" cont="0"/>
        <request index="4" response="000010" foes="000010" cont="0"/>
        <request index="5" response="001110" foes="001110" cont="0"/>
    </junction>
    <junction id="37" type="priority" x="-649.25" y="776.14" incLanes="47803_0 47679_0 47677_0" intLanes=":37_0_0 :37_1_0 :37_2_0 :37_3_0 :37_4_0 :37_5_0" shape="-638.89,786.51 -634.87,780.85 -639.01,777.14 -640.98,773.60 -641.61,769.94 -641.72,765.88 -642.11,761.13 -643.62,755.40 -650.16,757.84 -651.38,762.64 -653.61,766.75 -656.92,772.01 -661.31,778.42 -666.78,785.97 -661.16,790.13 -657.92,786.49 -654.49,784.07 -650.88,782.86 -647.07,782.86 -643.07,784.08">
        <request index="0" response="000000" foes="001000" cont="0"/>
        <request index="1" response="000000" foes="111000" cont="0"/>
        <request index="2" response="000000" foes="100000" cont="0"/>
        <request index="3" response="000011" foes="100011" cont="0"/>
        <request index="4" response="000010" foes="000010" cont="0"/>
        <request index="5" response="001110" foes="001110" cont="0"/>
    </junction>
    <junction id="6" type="dead_end" x="-747.25" y="902.68" incLanes="47673_0" intLanes="" shape="-745.81,903.66 -748.70,901.69" rightOfWay="edgePriority"/>

    <connection from="47674" to="47677" fromLane="0" toLane="0" contPos="-4.00" shape="-708.39,844.20 -697.53,830.23 -685.04,813.57" via=":35_4_0" dir="s" state="M"/>
    <connection from="47674" to="47731" fromLane="0" toLane="0" contPos="-4.00" shape="-708.39,844.20 -705.86,841.33 -703.99,839.59 -701.96,838.03 -699.76,836.73 -697.40,835.74 -696.18,835.38 -694.93,835.12 -693.66,834.96 -692.38,834.91 -689.84,835.10 -687.34,835.66 -684.94,836.52 -682.63,837.63 -679.37,839.64 -678.31,840.41" via=":35_5_0" dir="l" state="m"/>
    <connection from="47676" to="47731" fromLane="0" toLane="0" contPos="-4.00" shape="-682.21,815.63 -683.53,817.54 -684.67,819.51 -685.60,821.55 -686.29,823.64 -686.66,825.81 -686.72,826.84 -686.68,827.91 -686.56,828.96 -686.34,830.00 -686.04,831.02 -685.64,832.02 -685.18,832.96 -684.00,834.85 -682.60,836.58 -681.01,838.18 -678.31,840.41" via=":35_2_0" dir="r" state="M"/>
    <connection from="47676" to="47673" fromLane="0" toLane="0" contPos="-4.00" shape="-682.21,815.63 -694.76,832.36 -705.67,846.40" via=":35_3_0" dir="s" state="M"/>