<routes>
	<vehicle depart="0.1" departLane="0" departPos="1.0" departSpeed="5.141216" id="38" type="bicycle">
		<route edges=":36_2 47728"/>
	</vehicle>
	<vehicle depart="0.1" departLane="0" departPos="28.29245411577698" departSpeed="6.8932784" id="310" type="bicycle">
		<route edges=":35_3 47673"/>
	</vehicle>
	<vehicle depart="0.1" departLane="0" departPos="30.07370700899664" departSpeed="0.0" id="31" type="passenger">
		<route edges="47743 47732"/>
	</vehicle>
	<vehicle depart="0.1" departLane="0" departPos="2.5" departSpeed="1.0620422" id="311" type="passenger">
		<route edges="47732 47677"/>
	</vehicle>
	<vehicle depart="0.1" departLane="0" departPos="22.837090235678858" departSpeed="0.0" id="318" type="passenger">
		<route edges="47743 47732"/>
	</vehicle>
	<vehicle depart="0.1" departLane="0" departPos="16.29424593300454" departSpeed="3.1325543" id="321" type="passenger">
		<route edges=":36_1 47732"/>
	</vehicle>
	<vehicle depart="0.1" departLane="0" departPos="15.335053005778917" departSpeed="0.0" id="322" type="passenger">
		<route edges="47743 47732"/>
	</vehicle>
	<vehicle depart="0.1" departLane="0" departPos="4.553160903400934" departSpeed="8.3441643" id="329" type="passenger">
		<route edges=":35_2 47731 47728"/>
	</vehicle>
	<vehicle depart="0.1" departLane="0" departPos="73.74982287540168" departSpeed="0.84207011" id="30" type="truck">
		<route edges="47674 47731"/>
	</vehicle>
	<vehicle depart="0.1" departLane="0" departPos="67.47488109059039" departSpeed="0.0" id="324" type="truck">
		<route edges="47746 47976"/>
	</vehicle>
</routes>
