<!-- generated on Wed Feb 10 12:31:31 2021 by Eclipse SUMO netconvert Version 1.8.0
<configuration xmlns:xsi="http://www.w3.org/2001/XMLSchema-instance" xsi:noNamespaceSchemaLocation="http://sumo.dlr.de/xsd/netconvertConfiguration.xsd">

    <input>
        <node-files value="./converted_scenarios/SUMO/DEU_Lohmar-19_1_I-1-1/DEU_Lohmar-19_1_I-1-1.nod.xml"/>
        <edge-files value="./converted_scenarios/SUMO/DEU_Lohmar-19_1_I-1-1/DEU_Lohmar-19_1_I-1-1.edg.xml"/>
        <connection-files value="./converted_scenarios/SUMO/DEU_Lohmar-19_1_I-1-1/DEU_Lohmar-19_1_I-1-1.con.xml"/>
        <tllogic-files value="./converted_scenarios/SUMO/DEU_Lohmar-19_1_I-1-1/DEU_Lohmar-19_1_I-1-1.tll.xml"/>
        <type-files value="/home/zen/commonroad-interactive-benchmarks/install/commonroad-map-tool/crmapconverter/sumo_map/templates/DEU.typ.xml"/>
    </input>

    <output>
        <output-file value="./converted_scenarios/SUMO/DEU_Lohmar-19_1_I-1-1/DEU_Lohmar-19_1_I-1-1.net.xml"/>
    </output>

    <processing>
        <geometry.remove.keep-edges.explicit value="true"/>
        <geometry.avoid-overlap value="true"/>
        <offset.disable-normalization value="true"/>
    </processing>

    <junctions>
        <no-turnarounds value="true"/>
        <junctions.internal-link-detail value="20"/>
    </junctions>

    <report>
        <aggregate-warnings value="5"/>
    </report>

    <random_number>
        <seed value="1234"/>
    </random_number>

</configuration>
--><net xmlns:xsi="http://www.w3.org/2001/XMLSchema-instance" version="1.6" junctionCornerDetail="5" junctionLinkDetail="20" limitTurnSpeed="5.50" xsi:noNamespaceSchemaLocation="http://sumo.dlr.de/xsd/net_file.xsd">

    <location netOffset="0.00,0.00" convBoundary="-8.56,520.47,235.19,801.42" origBoundary="-8.56,520.47,235.19,801.42" projParameter="!"/>

    <type id="highway.bridleway" priority="1" speed="2.78" allow="pedestrian" oneway="1" width="2.00"/>
    <type id="highway.bus_guideway" priority="1" speed="27.78" allow="bus" oneway="1"/>
    <type id="highway.cycleway" priority="1" speed="8.33" allow="bicycle" oneway="0" width="1.00"/>
    <type id="highway.footway" priority="1" speed="2.78" allow="pedestrian" oneway="1" width="2.00"/>
    <type id="highway.ford" priority="1" speed="2.78" allow="army" oneway="0"/>
    <type id="highway.living_street" priority="2" speed="2.78" disallow="tram rail_urban rail rail_electric rail_fast ship" oneway="0"/>
    <type id="highway.motorway" priority="14" speed="39.44" allow="private emergency authority army vip passenger hov taxi bus coach delivery truck trailer motorcycle evehicle custom1 custom2" oneway="1"/>
    <type id="highway.motorway_link" priority="9" speed="22.22" allow="private emergency authority army vip passenger hov taxi bus coach delivery truck trailer motorcycle evehicle custom1 custom2" oneway="1"/>
    <type id="highway.path" priority="1" speed="2.78" allow="pedestrian bicycle" oneway="0" width="2.00"/>
    <type id="highway.pedestrian" priority="1" speed="2.78" allow="pedestrian" oneway="1" width="2.00"/>
    <type id="highway.primary" priority="12" speed="27.78" disallow="pedestrian tram rail_urban rail rail_electric rail_fast ship" oneway="0"/>
    <type id="highway.primary_link" priority="7" speed="22.22" disallow="pedestrian tram rail_urban rail rail_electric rail_fast ship" oneway="0"/>
    <type id="highway.raceway" priority="15" speed="83.33" allow="vip" oneway="0"/>
    <type id="highway.residential" priority="3" speed="13.89" disallow="pedestrian tram rail_urban rail rail_electric rail_fast ship" oneway="0"/>
    <type id="highway.secondary" priority="11" speed="27.78" disallow="pedestrian tram rail_urban rail rail_electric rail_fast ship" oneway="0"/>
    <type id="highway.secondary_link" priority="6" speed="22.22" disallow="pedestrian tram rail_urban rail rail_electric rail_fast ship" oneway="0"/>
    <type id="highway.service" priority="1" speed="5.56" allow="pedestrian delivery bicycle" oneway="0"/>
    <type id="highway.stairs" priority="1" speed="1.39" allow="pedestrian" oneway="1" width="2.00"/>
    <type id="highway.step" priority="1" speed="1.39" allow="pedestrian" oneway="1" width="2.00"/>
    <type id="highway.steps" priority="1" speed="1.39" allow="pedestrian" oneway="1" width="2.00"/>
    <type id="highway.tertiary" priority="10" speed="22.22" disallow="pedestrian tram rail_urban rail rail_electric rail_fast ship" oneway="0"/>
    <type id="highway.tertiary_link" priority="5" speed="22.22" disallow="pedestrian tram rail_urban rail rail_electric rail_fast ship" oneway="0"/>
    <type id="highway.track" priority="1" speed="5.56" allow="pedestrian motorcycle moped bicycle" oneway="0"/>
    <type id="highway.trunk" priority="13" speed="27.78" disallow="pedestrian bicycle tram rail_urban rail rail_electric rail_fast ship" oneway="0"/>
    <type id="highway.trunk_link" priority="8" speed="22.22" disallow="pedestrian bicycle tram rail_urban rail rail_electric rail_fast ship" oneway="0"/>
    <type id="highway.unclassified" priority="4" speed="13.89" disallow="pedestrian tram rail_urban rail rail_electric rail_fast ship" oneway="0"/>
    <type id="highway.unsurfaced" priority="1" speed="8.33" disallow="tram rail_urban rail rail_electric rail_fast ship" oneway="0"/>
    <type id="railway.highspeed" priority="21" speed="69.44" allow="rail_fast" oneway="1"/>
    <type id="railway.light_rail" priority="19" speed="27.78" allow="rail_urban" oneway="1"/>
    <type id="railway.preserved" priority="16" speed="27.78" allow="rail" oneway="1"/>
    <type id="railway.rail" priority="20" speed="44.44" allow="rail" oneway="1"/>
    <type id="railway.subway" priority="18" speed="27.78" allow="rail_urban" oneway="1"/>
    <type id="railway.tram" priority="17" speed="13.89" allow="tram" oneway="1"/>

    <edge id=":12_0" function="internal">
        <lane id=":12_0_0" index="0" disallow="pedestrian tram rail_urban rail rail_electric rail_fast ship" speed="22.24" length="5.82" width="3.50" shape="66.37,677.11 66.66,677.44 66.91,677.74 67.13,678.02 67.33,678.28 67.50,678.52 67.67,678.74 67.82,678.95 67.97,679.14 68.12,679.33 68.26,679.51 68.42,679.68 68.59,679.85 68.77,680.02 68.98,680.20 69.20,680.38 69.46,680.56 69.75,680.75 70.08,680.96 70.45,681.18"/>
    </edge>
    <edge id=":39_0" function="internal">
        <lane id=":39_0_0" index="0" disallow="pedestrian tram rail_urban rail rail_electric rail_fast ship" speed="36.11" length="0.10" width="3.50" shape="79.87,682.47 79.87,682.47"/>
    </edge>
    <edge id=":46_0" function="internal">
        <lane id=":46_0_0" index="0" disallow="pedestrian tram rail_urban rail rail_electric rail_fast ship" speed="36.11" length="2.93" width="3.50" shape="76.49,680.62 78.79,678.81"/>
    </edge>
    <edge id=":49_0" function="internal">
        <lane id=":49_0_0" index="0" disallow="pedestrian tram rail_urban rail rail_electric rail_fast ship" speed="7.19" length="11.59" width="3.50" shape="33.21,587.37 34.04,586.72 35.18,585.65 36.07,584.45 36.46,583.67 36.69,582.83 36.75,581.98 36.64,581.11 36.38,580.23 35.70,578.87 34.80,577.58"/>
    </edge>
    <edge id=":49_1" function="internal">
        <lane id=":49_1_0" index="0" disallow="pedestrian tram rail_urban rail rail_electric rail_fast ship" speed="36.11" length="17.08" width="3.50" shape="33.21,587.37 39.07,582.80 46.49,576.64"/>
    </edge>
    <edge id=":49_2" function="internal">
        <lane id=":49_2_0" index="0" disallow="pedestrian tram rail_urban rail rail_electric rail_fast ship" speed="8.55" length="16.34" width="3.50" shape="33.21,587.37 34.30,586.63 36.04,585.68 37.94,584.97 39.39,584.68 40.87,584.64 42.37,584.89 43.79,585.43 45.06,586.21 46.17,587.19 47.48,588.76"/>
    </edge>
    <edge id=":49_3" function="internal">
        <lane id=":49_3_0" index="0" disallow="pedestrian tram rail_urban rail rail_electric rail_fast ship" speed="7.04" length="10.73" width="3.50" shape="44.62,590.77 43.71,589.70 43.01,589.09 42.20,588.62 41.32,588.32 40.39,588.21 39.46,588.27 38.55,588.48 37.25,589.00 36.02,589.69 35.26,590.20"/>
    </edge>
    <edge id=":49_4" function="internal">
        <lane id=":49_4_0" index="0" disallow="pedestrian tram rail_urban rail rail_electric rail_fast ship" speed="36.11" length="16.45" width="3.50" shape="44.62,590.77 41.03,585.77 34.80,577.58"/>
    </edge>
    <edge id=":49_5" function="internal">
        <lane id=":49_5_0" index="0" disallow="pedestrian tram rail_urban rail rail_electric rail_fast ship" speed="8.78" length="16.02" width="3.50" shape="44.62,590.77 43.53,588.99 42.71,587.06 42.38,585.71 42.27,584.32 42.39,582.94 42.75,581.59 43.34,580.33 44.52,578.61 45.97,577.10 46.49,576.64"/>
    </edge>
    <edge id=":49_6" function="internal">
        <lane id=":49_6_0" index="0" disallow="pedestrian tram rail_urban rail rail_electric rail_fast ship" speed="7.31" length="10.78" width="3.50" shape="48.75,579.32 48.31,579.70 47.90,580.10 47.52,580.51 47.15,580.94 46.82,581.40 46.52,581.88 46.27,582.39 46.07,582.92 45.92,583.47 45.84,584.03 45.84,584.60 45.89,585.16 46.00,585.72 46.16,586.26 46.37,586.79 46.61,587.30 46.88,587.80 47.17,588.29 47.48,588.76"/>
    </edge>
    <edge id=":49_7" function="internal">
        <lane id=":49_7_0" index="0" disallow="pedestrian tram rail_urban rail rail_electric rail_fast ship" speed="36.11" length="17.33" width="3.50" shape="48.75,579.32 41.22,585.56 35.26,590.20"/>
    </edge>
    <edge id=":49_8" function="internal">
        <lane id=":49_8_0" index="0" disallow="pedestrian tram rail_urban rail rail_electric rail_fast ship" speed="8.42" length="16.11" width="3.50" shape="48.75,579.32 47.68,580.13 45.96,581.14 44.62,581.66 43.17,581.95 41.65,581.95 40.19,581.65 38.83,581.09 37.61,580.34 36.11,579.04 34.80,577.58"/>
    </edge>
    <edge id=":49_9" function="internal">
        <lane id=":49_9_0" index="0" disallow="pedestrian tram rail_urban rail rail_electric rail_fast ship" speed="6.89" length="10.41" width="3.50" shape="37.55,575.41 38.46,576.43 39.48,577.32 40.25,577.80 41.08,578.16 41.96,578.35 42.87,578.37 43.75,578.20 44.60,577.88 45.77,577.19 46.49,576.64"/>
    </edge>
    <edge id=":49_10" function="internal">
        <lane id=":49_10_0" index="0" disallow="pedestrian tram rail_urban rail rail_electric rail_fast ship" speed="36.11" length="16.64" width="3.50" shape="37.55,575.41 43.85,583.69 47.48,588.76"/>
    </edge>
    <edge id=":49_11" function="internal">
        <lane id=":49_11_0" index="0" disallow="pedestrian tram rail_urban rail rail_electric rail_fast ship" speed="8.65" length="17.33" width="3.50" shape="37.55,575.41 38.79,577.20 39.76,579.14 40.18,580.52 40.36,581.95 40.26,583.39 39.88,584.79 39.25,586.09 37.96,587.82 36.39,589.32 35.26,590.20"/>
    </edge>
    <edge id=":50_0" function="internal">
        <lane id=":50_0_0" index="0" disallow="pedestrian tram rail_urban rail rail_electric rail_fast ship" speed="6.59" length="9.34" width="3.50" shape="109.86,683.18 110.97,684.77 110.60,684.59 110.22,684.48 109.83,684.43 109.43,684.43 109.03,684.47 108.63,684.56 108.23,684.68 107.84,684.82 107.46,684.99 107.09,685.17 106.73,685.38 106.37,685.59 106.03,685.82 105.68,686.05 105.34,686.30 105.01,686.55 104.68,686.80 104.35,687.06"/>
    </edge>
    <edge id=":50_1" function="internal">
        <lane id=":50_1_0" index="0" disallow="pedestrian tram rail_urban rail rail_electric rail_fast ship" speed="36.11" length="10.89" width="3.50" shape="109.86,683.18 107.26,679.83 103.17,674.59"/>
    </edge>
    <edge id=":50_2" function="internal">
        <lane id=":50_2_0" index="0" disallow="pedestrian tram rail_urban rail rail_electric rail_fast ship" speed="36.11" length="14.67" width="3.51" shape="105.99,672.52 110.03,677.70 115.03,684.08"/>
    </edge>
    <edge id=":50_3" function="internal">
        <lane id=":50_3_0" index="0" disallow="pedestrian tram rail_urban rail rail_electric rail_fast ship" speed="8.80" length="16.60" width="3.50" shape="105.99,672.52 107.13,674.25 108.03,676.12 108.58,678.12 108.68,679.50 108.54,680.88 108.15,682.21 107.55,683.45 106.35,685.14 104.88,686.61 104.35,687.06"/>
    </edge>
    <edge id=":50_4" function="internal">
        <lane id=":50_4_0" index="0" disallow="pedestrian tram rail_urban rail rail_electric rail_fast ship" speed="7.34" length="11.23" width="3.50" shape="102.14,684.35 102.59,683.97 103.03,683.56 103.43,683.14 103.82,682.68 104.16,682.21 104.47,681.70 104.73,681.17 104.92,680.61 105.05,680.03 105.10,679.44 105.08,678.85 104.99,678.27 104.84,677.70 104.64,677.14 104.40,676.60 104.13,676.07 103.83,675.56 103.51,675.07 103.17,674.59"/>
    </edge>
    <edge id=":50_5" function="internal">
        <lane id=":50_5_0" index="0" disallow="pedestrian tram rail_urban rail rail_electric rail_fast ship" speed="8.23" length="14.99" width="3.51" shape="102.14,684.35 102.66,683.94 104.64,682.55 106.31,681.65 107.58,681.17 108.99,680.88 110.42,680.89 111.26,681.04 112.05,681.32 112.82,681.75 115.03,684.08"/>
    </edge>
    <edge id=":51_0" function="internal">
        <lane id=":51_0_0" index="0" disallow="pedestrian tram rail_urban rail rail_electric rail_fast ship" speed="7.18" length="11.90" width="3.48" shape="108.04,692.64 108.46,692.36 108.87,692.08 109.27,691.79 109.66,691.49 110.04,691.18 110.41,690.86 110.77,690.52 111.11,690.16 111.42,689.79 111.71,689.39 111.97,688.98 112.18,688.54 112.32,688.08 112.40,687.61 112.41,687.13 112.32,686.66 112.13,686.20 111.87,685.77 109.99,683.34"/>
    </edge>
    <edge id=":51_1" function="internal">
        <lane id=":51_1_0" index="0" disallow="pedestrian tram rail_urban rail rail_electric rail_fast ship" speed="8.83" length="16.23" width="3.50" shape="108.03,692.64 110.28,691.38 112.14,690.63 114.11,690.14 115.57,690.04 117.04,690.18 118.46,690.58 119.80,691.24 121.00,692.11 122.52,693.73"/>
    </edge>
    <edge id=":51_2" function="internal">
        <lane id=":51_2_0" index="0" disallow="pedestrian tram rail_urban rail rail_electric rail_fast ship" speed="7.37" length="11.01" width="3.50" shape="119.76,695.88 118.70,694.76 117.92,694.23 117.06,693.84 116.14,693.63 115.19,693.59 114.25,693.70 112.88,694.08 111.58,694.64 109.93,695.58"/>
    </edge>
    <edge id=":51_3" function="internal">
        <lane id=":51_3_0" index="0" disallow="pedestrian tram rail_urban rail rail_electric rail_fast ship" speed="36.11" length="15.90" width="3.48" shape="119.76,695.88 115.65,690.61 109.99,683.34"/>
    </edge>
    <edge id=":51_4" function="internal">
        <lane id=":51_4_0" index="0" disallow="pedestrian tram rail_urban rail rail_electric rail_fast ship" speed="36.11" length="12.02" width="3.50" shape="115.16,684.23 118.42,688.46 122.52,693.73"/>
    </edge>
    <edge id=":51_5" function="internal">
        <lane id=":51_5_0" index="0" disallow="pedestrian tram rail_urban rail rail_electric rail_fast ship" speed="7.69" length="13.99" width="3.50" shape="115.16,684.23 115.19,684.48 115.78,685.80 116.05,687.22 116.05,687.94 115.96,688.66 115.50,690.03 114.77,691.28 113.36,692.92 111.71,694.34 109.93,695.58"/>
    </edge>
    <edge id=":52_0" function="internal">
        <lane id=":52_0_0" index="0" disallow="pedestrian tram rail_urban rail rail_electric rail_fast ship" speed="7.91" length="14.43" width="3.50" shape="104.13,675.90 101.61,672.47 101.26,672.03 100.88,671.61 100.48,671.21 100.06,670.83 99.61,670.49 99.14,670.18 98.63,669.93 98.10,669.75 97.54,669.65 96.98,669.63 96.42,669.69 95.87,669.83 95.34,670.03 94.83,670.27 94.34,670.55 93.86,670.86 93.40,671.19 92.96,671.54"/>
    </edge>
    <edge id=":52_1" function="internal">
        <lane id=":52_1_0" index="0" disallow="pedestrian tram rail_urban rail rail_electric rail_fast ship" speed="36.11" length="20.47" width="3.49" shape="104.13,675.90 97.15,666.02 92.37,659.14"/>
    </edge>
    <edge id=":52_2" function="internal">
        <lane id=":52_2_0" index="0" disallow="pedestrian tram rail_urban rail rail_electric rail_fast ship" speed="36.11" length="20.39" width="3.50" shape="95.23,657.14 100.01,664.00 106.95,673.83"/>
    </edge>
    <edge id=":52_3" function="internal">
        <lane id=":52_3_0" index="0" disallow="pedestrian tram rail_urban rail rail_electric rail_fast ship" speed="8.84" length="16.32" width="3.50" shape="95.24,657.14 96.24,658.82 97.01,660.69 97.41,662.72 97.40,664.20 97.14,665.60 96.64,666.96 95.63,668.71 94.37,670.23 92.96,671.54"/>
    </edge>
    <edge id=":52_4" function="internal">
        <lane id=":52_4_0" index="0" disallow="pedestrian tram rail_urban rail rail_electric rail_fast ship" speed="7.39" length="11.07" width="3.49" shape="90.72,668.85 91.74,667.90 92.63,666.85 93.33,665.66 93.65,664.79 93.83,663.89 93.86,662.96 93.60,661.61 93.08,660.33 92.37,659.14"/>
    </edge>
    <edge id=":52_5" function="internal">
        <lane id=":52_5_0" index="0" disallow="pedestrian tram rail_urban rail rail_electric rail_fast ship" speed="9.26" length="20.22" width="3.50" shape="90.72,668.85 92.47,667.58 94.39,666.59 95.77,666.17 97.20,666.01 98.63,666.16 100.00,666.61 101.26,667.30 102.92,668.68 104.35,670.29 106.95,673.83"/>
    </edge>
    <edge id=":53_0" function="internal">
        <lane id=":53_0_0" index="0" disallow="pedestrian tram rail_urban rail rail_electric rail_fast ship" speed="36.11" length="17.94" width="3.50" shape="193.21,774.14 185.86,778.11 181.47,780.79 177.93,783.47"/>
    </edge>
    <edge id=":53_1" function="internal">
        <lane id=":53_1_0" index="0" disallow="pedestrian tram rail_urban rail rail_electric rail_fast ship" speed="9.61" length="18.12" width="3.50" shape="193.21,774.14 192.47,774.51 190.64,775.14 188.66,775.45 186.62,775.36 184.68,774.88 182.89,774.09 181.26,773.07 179.36,771.52 177.29,769.37"/>
    </edge>
    <edge id=":53_2" function="internal">
        <lane id=":53_2_0" index="0" disallow="pedestrian tram rail_urban rail rail_electric rail_fast ship" speed="8.30" length="13.26" width="3.50" shape="179.95,767.09 181.58,768.80 183.04,770.03 184.23,770.81 185.52,771.42 186.89,771.82 188.31,771.94 189.72,771.75 191.08,771.30 191.47,771.11"/>
    </edge>
    <edge id=":53_3" function="internal">
        <lane id=":53_3_0" index="0" disallow="pedestrian tram rail_urban rail rail_electric rail_fast ship" speed="9.65" length="20.10" width="3.50" shape="179.95,767.09 181.71,769.35 182.84,771.19 183.70,773.17 184.03,774.56 184.10,776.00 183.85,777.41 183.26,778.72 182.39,779.86 181.34,780.84 177.93,783.47"/>
    </edge>
    <edge id=":53_4" function="internal">
        <lane id=":53_4_0" index="0" disallow="pedestrian tram rail_urban rail rail_electric rail_fast ship" speed="8.22" length="14.24" width="3.50" shape="175.83,780.66 179.18,778.08 179.60,777.71 179.95,777.28 180.21,776.79 180.37,776.27 180.45,775.72 180.45,775.17 180.36,774.62 180.22,774.09 180.03,773.56 179.81,773.05 179.56,772.55 179.28,772.06 178.98,771.59 178.67,771.13 178.34,770.68 178.00,770.23 177.65,769.80 177.29,769.37"/>
    </edge>
    <edge id=":53_5" function="internal">
        <lane id=":53_5_0" index="0" disallow="pedestrian tram rail_urban rail rail_electric rail_fast ship" speed="36.11" length="18.36" width="3.50" shape="175.83,780.66 179.60,777.84 184.11,775.08 191.47,771.11"/>
    </edge>
    <edge id=":6_0" function="internal">
        <lane id=":6_0_0" index="0" disallow="pedestrian tram rail_urban rail rail_electric rail_fast ship" speed="36.11" length="5.72" width="3.50" shape="67.76,683.57 67.43,683.30 67.14,683.05 66.87,682.82 66.64,682.61 66.42,682.42 66.23,682.23 66.05,682.06 65.89,681.89 65.73,681.73 65.58,681.56 65.42,681.39 65.27,681.21 65.10,681.02 64.93,680.82 64.74,680.60 64.54,680.36 64.31,680.10 64.05,679.81 63.77,679.49"/>
    </edge>

    <edge id="10" from="49" to="36" priority="3" type="highway.residential" spreadType="center" length="70.00" shape="39.66,584.37 -8.56,522.63">
        <lane id="10_0" index="0" disallow="pedestrian tram rail_urban rail rail_electric rail_fast ship" speed="36.11" length="70.00" width="3.50" customShape="1" shape="34.80,577.58 -8.56,522.63"/>
    </edge>
    <edge id="11" from="45" to="49" priority="3" type="highway.residential" spreadType="center" length="70.00" shape="-5.81,520.47 42.42,582.21">
        <lane id="11_0" index="0" disallow="pedestrian tram rail_urban rail rail_electric rail_fast ship" speed="36.11" length="70.00" width="3.50" customShape="1" shape="-5.81,520.47 37.55,575.42"/>
    </edge>
    <edge id="118" from="31" to="53" priority="3" type="highway.residential" spreadType="center" length="24.93" shape="179.22,801.42 181.82,773.31">
        <lane id="118_0" index="0" disallow="pedestrian tram rail_urban rail rail_electric rail_fast ship" speed="36.11" length="24.93" width="3.50" customShape="1" shape="179.22,801.42 177.24,799.73 174.90,797.39 173.49,795.57 172.60,794.02 171.92,792.32 171.53,790.51 171.46,788.66 171.71,786.78 172.35,784.98 173.29,783.36 174.44,781.96 175.83,780.66"/>
    </edge>
    <edge id="119" from="53" to="26" priority="3" type="highway.residential" spreadType="center" length="18.68" shape="185.30,773.72 181.50,798.77">
        <lane id="119_0" index="0" disallow="pedestrian tram rail_urban rail rail_electric rail_fast ship" speed="36.11" length="18.68" width="3.50" customShape="1" shape="177.93,783.47 177.01,784.33 176.17,785.34 175.53,786.42 175.12,787.57 174.95,788.78 174.99,790.03 175.26,791.27 175.73,792.46 176.38,793.60 177.51,795.06 179.60,797.14 181.50,798.77"/>
    </edge>
    <edge id="142" from="49" to="12" priority="3" type="highway.residential" spreadType="center" length="115.52" shape="42.70,582.78 68.28,679.29">
        <lane id="142_0" index="0" disallow="pedestrian tram rail_urban rail rail_electric rail_fast ship" speed="36.11" length="115.52" width="3.50" customShape="1" shape="35.26,590.20 30.16,593.81 25.13,597.52 20.38,601.58 16.15,606.17 13.44,611.56 16.19,617.04 19.68,622.23 23.29,627.33 27.07,632.31 30.96,637.20 34.95,642.01 39.03,646.75 43.17,651.43 47.36,656.07 51.57,660.69 55.79,665.31 59.99,669.93 64.16,674.59 66.37,677.11"/>
    </edge>
    <edge id="143" from="6" to="49" priority="3" type="highway.residential" spreadType="center" length="121.78" shape="65.67,681.62 39.32,583.68">
        <lane id="143_0" index="0" disallow="pedestrian tram rail_urban rail rail_electric rail_fast ship" speed="36.11" length="121.78" width="3.50" customShape="1" shape="63.77,679.49 55.00,669.64 38.14,651.04 30.25,641.86 23.62,633.58 17.91,625.85 12.83,618.31 10.83,615.15 10.26,614.00 9.88,612.69 9.78,611.25 9.97,609.86 10.41,608.56 11.30,606.92 13.49,603.89 16.27,600.73 19.29,597.82 23.30,594.52 30.32,589.42 33.24,587.34"/>
    </edge>
    <edge id="145" from="34" to="49" priority="3" type="highway.residential" spreadType="center" length="41.84" shape="80.75,552.38 42.09,584.64">
        <lane id="145_0" index="0" disallow="pedestrian tram rail_urban rail rail_electric rail_fast ship" speed="36.11" length="41.84" width="3.50" customShape="1" shape="80.75,552.38 64.76,565.84 48.74,579.33"/>
    </edge>
    <edge id="146" from="49" to="30" priority="3" type="highway.residential" spreadType="center" length="41.82" shape="39.85,581.95 78.48,549.71">
        <lane id="146_0" index="0" disallow="pedestrian tram rail_urban rail rail_electric rail_fast ship" speed="36.11" length="41.82" width="3.50" customShape="1" shape="46.49,576.64 62.50,563.17 78.48,549.71"/>
    </edge>
    <edge id="160" from="50" to="2" priority="3" type="highway.residential" spreadType="center" length="24.08" shape="108.07,682.29 85.67,702.26">
        <lane id="160_0" index="0" disallow="pedestrian tram rail_urban rail rail_electric rail_fast ship" speed="36.11" length="24.08" width="3.50" customShape="1" shape="104.35,687.06 95.01,694.66 85.67,702.26"/>
    </edge>
    <edge id="161" from="37" to="50" priority="3" type="highway.residential" spreadType="center" length="24.08" shape="83.47,699.54 105.74,679.68">
        <lane id="161_0" index="0" disallow="pedestrian tram rail_urban rail rail_electric rail_fast ship" speed="36.11" length="24.08" width="3.50" customShape="1" shape="83.47,699.54 92.81,691.94 102.15,684.34"/>
    </edge>
    <edge id="163" from="51" to="43" priority="3" type="highway.residential" spreadType="center" length="70.00" shape="116.06,690.78 122.82,749.79">
        <lane id="163_0" index="0" disallow="pedestrian tram rail_urban rail rail_electric rail_fast ship" speed="36.11" length="70.00" width="3.50" customShape="1" shape="109.93,695.58 106.53,697.78 102.90,700.35 100.33,702.55 98.39,704.63 97.02,706.53 95.90,708.55 95.57,709.69 95.49,710.87 95.67,712.07 96.72,715.23 98.41,719.33 100.42,723.29 102.98,727.52 105.85,731.57 109.61,736.21 114.35,741.39 121.14,748.16 122.82,749.79"/>
    </edge>
    <edge id="164" from="47" to="51" priority="3" type="highway.residential" spreadType="center" length="70.00" shape="115.90,747.88 112.58,691.07">
        <lane id="164_0" index="0" disallow="pedestrian tram rail_urban rail rail_electric rail_fast ship" speed="36.11" length="70.00" width="3.50" customShape="1" shape="115.90,747.88 111.82,743.81 106.96,738.50 103.05,733.68 100.05,729.43 97.36,724.98 95.23,720.78 93.43,716.43 92.25,712.80 92.01,710.92 92.15,708.99 92.71,707.14 94.08,704.63 95.70,702.40 97.92,700.02 100.76,697.58 104.59,694.87 108.05,692.63"/>
    </edge>
    <edge id="242" from="39" to="6" priority="3" type="highway.residential" spreadType="center" length="13.36">
        <lane id="242_0" index="0" disallow="pedestrian tram rail_urban rail rail_electric rail_fast ship" speed="36.11" length="13.36" width="3.50" customShape="1" shape="79.87,682.47 78.16,683.73 76.31,684.74 74.98,685.22 73.59,685.48 72.18,685.49 70.80,685.23 69.48,684.71 68.27,683.99 67.76,683.57"/>
    </edge>
    <edge id="383" from="12" to="46" priority="3" type="highway.residential" spreadType="center" length="6.47">
        <lane id="383_0" index="0" disallow="pedestrian tram rail_urban rail rail_electric rail_fast ship" speed="36.11" length="6.47" width="3.50" customShape="1" shape="70.45,681.18 70.91,681.44 71.71,681.76 72.53,681.91 73.38,681.90 74.23,681.73 75.08,681.42 76.40,680.70 76.49,680.62"/>
    </edge>
    <edge id="61" from="52" to="49" priority="3" type="highway.residential" spreadType="center" length="83.41" shape="94.90,667.74 39.56,584.22">
        <lane id="61_0" index="0" disallow="pedestrian tram rail_urban rail rail_electric rail_fast ship" speed="36.11" length="83.41" width="3.49" customShape="1" shape="92.37,659.14 68.49,624.96 44.61,590.76"/>
    </edge>
    <edge id="62" from="49" to="52" priority="3" type="highway.residential" spreadType="center" length="83.44" shape="42.48,582.29 97.82,665.81">
        <lane id="62_0" index="0" disallow="pedestrian tram rail_urban rail rail_electric rail_fast ship" speed="36.11" length="83.44" width="3.50" customShape="1" shape="47.48,588.76 71.36,622.95 95.26,657.17"/>
    </edge>
    <edge id="64" from="50" to="52" priority="3" type="highway.residential" spreadType="center" length="0.20" shape="105.42,682.09 94.83,667.64">
        <lane id="64_0" index="0" disallow="pedestrian tram rail_urban rail rail_electric rail_fast ship" speed="36.11" length="0.20" width="3.50" customShape="1" shape="104.25,676.06 104.13,675.90"/>
    </edge>
    <edge id="65" from="52" to="50" priority="3" type="highway.residential" spreadType="center" length="0.20" shape="97.64,665.58 108.24,680.02">
        <lane id="65_0" index="0" disallow="pedestrian tram rail_urban rail rail_electric rail_fast ship" speed="36.11" length="0.20" width="3.50" customShape="1" shape="106.95,673.83 107.07,673.99"/>
    </edge>
    <edge id="67" from="51" to="50" priority="3" type="highway.residential" spreadType="center" length="0.21" shape="113.10,692.25 105.44,682.10">
        <lane id="67_0" index="0" disallow="pedestrian tram rail_urban rail rail_electric rail_fast ship" speed="36.11" length="0.21" width="3.48" customShape="1" shape="109.99,683.34 109.86,683.18"/>
    </edge>
    <edge id="68" from="50" to="51" priority="3" type="highway.residential" spreadType="center" length="0.20" shape="108.23,680.00 115.87,690.18">
        <lane id="68_0" index="0" disallow="pedestrian tram rail_urban rail rail_electric rail_fast ship" speed="36.11" length="0.20" width="3.51" customShape="1" shape="115.03,684.08 115.16,684.23"/>
    </edge>
    <edge id="7" from="46" to="52" priority="3" type="highway.residential" spreadType="center" length="15.55" shape="77.67,679.75 95.34,665.31">
        <lane id="7_0" index="0" disallow="pedestrian tram rail_urban rail rail_electric rail_fast ship" speed="36.11" length="15.55" width="3.50" customShape="1" shape="78.79,678.81 84.18,674.32 90.73,668.85"/>
    </edge>
    <edge id="70" from="53" to="51" priority="3" type="highway.residential" spreadType="center" length="93.33" shape="182.23,774.72 112.99,692.15">
        <lane id="70_0" index="0" disallow="pedestrian tram rail_urban rail rail_electric rail_fast ship" speed="36.11" length="93.33" width="3.50" customShape="1" shape="177.29,769.37 172.78,763.91 119.76,695.88"/>
    </edge>
    <edge id="71" from="51" to="53" priority="3" type="highway.residential" spreadType="center" length="93.23" shape="115.67,689.90 184.91,772.48">
        <lane id="71_0" index="0" disallow="pedestrian tram rail_urban rail rail_electric rail_fast ship" speed="36.11" length="93.23" width="3.50" customShape="1" shape="122.52,693.73 175.51,761.72 179.99,767.14"/>
    </edge>
    <edge id="73" from="48" to="53" priority="3" type="highway.residential" spreadType="center" length="51.12" shape="235.19,745.02 184.40,775.11">
        <lane id="73_0" index="0" disallow="pedestrian tram rail_urban rail rail_electric rail_fast ship" speed="36.11" length="51.12" width="3.50" customShape="1" shape="235.19,745.02 221.78,753.95 210.21,761.95 200.25,769.62 195.96,772.57 193.21,774.14"/>
    </edge>