<routes>
	<vehicle depart="0.1" departLane="0" departPos="36.754768408287916" departSpeed="0.0" id="38" type="bicycle">
		<route edges="145 10"/>
	</vehicle>
	<vehicle depart="0.1" departLane="0" departPos="9.036741268477336" departSpeed="0.32344834" id="358" type="bicycle">
		<route edges="164 71"/>
	</vehicle>
	<vehicle depart="0.1" departLane="0" departPos="35.67789703773859" departSpeed="13.282931" id="31" type="passenger">
		<route edges="142 383 7"/>
	</vehicle>
	<vehicle depart="0.1" departLane="0" departPos="2.5" departSpeed="6.0268055" id="32" type="passenger">
		<route edges="67 64 61 146"/>
	</vehicle>
	<vehicle depart="0.1" departLane="0" departPos="17.20581302115518" departSpeed="0.0" id="35" type="passenger">
		<route edges="7 65"/>
	</vehicle>
	<vehicle depart="0.1" departLane="0" departPos="69.45521012185306" departSpeed="5.3679237" id="39" type="passenger">
		<route edges="164 67 160"/>
	</vehicle>
	<vehicle depart="0.1" departLane="0" departPos="56.759311845161015" departSpeed="13.095674" id="316" type="passenger">
		<route edges="142 383 7"/>
	</vehicle>
	<vehicle depart="0.1" departLane="0" departPos="29.07680339567236" departSpeed="16.059724" id="317" type="passenger">
		<route edges="61 146"/>
	</vehicle>
	<vehicle depart="0.1" departLane="0" departPos="42.14075725436143" departSpeed="0.0" id="321" type="passenger">
		<route edges="145 10"/>
	</vehicle>
	<vehicle depart="0.1" departLane="0" departPos="31.154065592230882" departSpeed="0.0" id="328" type="passenger">
		<route edges="145 10"/>
	</vehicle>
	<vehicle depart="0.1" departLane="0" departPos="58.43063273804204" departSpeed="4.5846969" id="332" type="passenger">
		<route edges="164 67 64 61"/>
	</vehicle>
	<vehicle depart="0.1" departLane="0" departPos="54.837832646027266" departSpeed="16.09397" id="334" type="passenger">
		<route edges="61 146"/>
	</vehicle>
	<vehicle depart="0.1" departLane="0" departPos="7.787383959706135" departSpeed="5.1146189" id="335" type="passenger">
		<route edges=":49_11 142 383"/>
	</vehicle>
	<vehicle depart="0.1" departLane="0" departPos="67.92039324305027" departSpeed="4.0293217" id="337" type="passenger">
		<route edges="11 62 8"/>
	</vehicle>
	<vehicle depart="0.1" departLane="0" departPos="48.39399918420025" departSpeed="3.718047" id="338" type="passenger">
		<route edges="164 67 64"/>
	</vehicle>
	<vehicle depart="0.1" departLane="0" departPos="19.769322390362085" departSpeed="0.0" id="340" type="passenger">
		<route edges="145 10"/>
	</vehicle>
	<vehicle depart="0.1" departLane="0" departPos="58.56761426999701" departSpeed="2.6463293" id="342" type="passenger">
		<route edges="11 146"/>
	</vehicle>
	<vehicle depart="0.1" departLane="0" departPos="39.267584110995024" departSpeed="2.8334522" id="343" type="passenger">
		<route edges="164 71"/>
	</vehicle>
	<vehicle depart="0.1" departLane="0" departPos="12.735762620831057" departSpeed="7.4477625e-05" id="346" type="passenger">
		<route edges="145 10"/>
	</vehicle>
	<vehicle depart="0.1" departLane="0" departPos="50.01483492917896" departSpeed="1.5734446" id="347" type="passenger">
		<route edges="11 62 8"/>
	</vehicle>
	<vehicle depart="0.1" departLane="0" departPos="30.85053593392669" departSpeed="1.8664978" id="348" type="passenger">
		<route edges="164 71"/>
	</vehicle>
	<vehicle depart="0.1" departLane="0" departPos="14.784103842021462" departSpeed="0.022675405" id="349" type="passenger">
		<route edges="161 68"/>
	</vehicle>
	<vehicle depart="0.1" departLane="0" departPos="42.134320296037124" departSpeed="0.74661677" id="350" type="passenger">
		<route edges="11 146"/>
	</vehicle>
	<vehicle depart="0.1" departLane="0" departPos="23.078039866941065" departSpeed="1.171229" id="353" type="passenger">
		<route edges="164 71"/>
	</vehicle>
	<vehicle depart="0.1" departLane="0" departPos="34.9706967393229" departSpeed="0.34041183" id="354" type="passenger">
		<route edges="11 62 8"/>
	</vehicle>
	<vehicle depart="0.1" departLane="0" departPos="27.939257069762853" departSpeed="0.25402863" id="355" type="passenger">
		<route edges="11 62"/>
	</vehicle>
	<vehicle depart="0.1" departLane="0" departPos="15.370197118967113" departSpeed="0.5923347" id="356" type="passenger">
		<route edges="164 71"/>
	</vehicle>
	<vehicle depart="0.1" departLane="0" departPos="5.737550405069561" departSpeed="0.00035927322" id="357" type="passenger">
		<route edges="145 10"/>
	</vehicle>
	<vehicle depart="0.1" departLane="0" departPos="20.34577655046398" departSpeed="0.43954687" id="359" type="passenger">
		<route edges="11 142"/>
	</vehicle>
	<vehicle depart="0.1" departLane="0" departPos="12.103496416553797" departSpeed="0.71392618" id="360" type="passenger">
		<route edges="11 142"/>
	</vehicle>
	<vehicle depart="0.1" departLane="0" departPos="35.397307977628245" departSpeed="0.0" id="33" type="motorcycle">
		<route edges="145 10"/>
	</vehicle>
	<vehicle depart="0.1" departLane="0" departPos="24.243465426582308" departSpeed="0.0" id="333" type="motorcycle">
		<route edges="145 10"/>
	</vehicle>
	<vehicle depart="0.1" departLane="0" departPos="77.84066729042097" departSpeed="13.663146" id="324" type="truck">
		<route edges="142 383 7 65"/>
	</vehicle>
	<vehicle depart="0.1" departLane="0" departPos="24.203102326720845" departSpeed="0.0" id="341" type="truck">
		<route edges="161 68"/>
	</vehicle>
</routes>
