<!-- generated on Tue Feb  9 22:11:38 2021 by Eclipse SUMO netconvert Version 1.8.0
<configuration xmlns:xsi="http://www.w3.org/2001/XMLSchema-instance" xsi:noNamespaceSchemaLocation="http://sumo.dlr.de/xsd/netconvertConfiguration.xsd">

    <input>
        <node-files value="./converted_scenarios/scenario-factory/ITA_Empoli-18_1_I-1-1/ITA_Empoli-18_1_I-1-1.nod.xml"/>
        <edge-files value="./converted_scenarios/scenario-factory/ITA_Empoli-18_1_I-1-1/ITA_Empoli-18_1_I-1-1.edg.xml"/>
        <connection-files value="./converted_scenarios/scenario-factory/ITA_Empoli-18_1_I-1-1/ITA_Empoli-18_1_I-1-1.con.xml"/>
        <tllogic-files value="./converted_scenarios/scenario-factory/ITA_Empoli-18_1_I-1-1/ITA_Empoli-18_1_I-1-1.tll.xml"/>
        <type-files value="/home/zen/commonroad-interactive-benchmarks/install/commonroad-map-tool/crmapconverter/sumo_map/templates/DEU.typ.xml"/>
    </input>

    <output>
        <output-file value="./converted_scenarios/scenario-factory/ITA_Empoli-18_1_I-1-1/ITA_Empoli-18_1_I-1-1.net.xml"/>
    </output>

    <processing>
        <geometry.remove.keep-edges.explicit value="true"/>
        <geometry.avoid-overlap value="true"/>
        <offset.disable-normalization value="true"/>
    </processing>

    <junctions>
        <no-turnarounds value="true"/>
        <junctions.internal-link-detail value="20"/>
    </junctions>

    <report>
        <aggregate-warnings value="5"/>
    </report>

    <random_number>
        <seed value="1234"/>
    </random_number>

</configuration>
--><net xmlns:xsi="http://www.w3.org/2001/XMLSchema-instance" version="1.6" junctionCornerDetail="5" junctionLinkDetail="20" limitTurnSpeed="5.50" xsi:noNamespaceSchemaLocation="http://sumo.dlr.de/xsd/net_file.xsd">

    <location netOffset="0.00,0.00" convBoundary="-878.59,-282.49,-682.49,-173.01" origBoundary="-878.59,-282.49,-682.49,-173.01" projParameter="!"/>

    <type id="highway.bridleway" priority="1" speed="2.78" allow="pedestrian" oneway="1" width="2.00"/>
    <type id="highway.bus_guideway" priority="1" speed="27.78" allow="bus" oneway="1"/>
    <type id="highway.cycleway" priority="1" speed="8.33" allow="bicycle" oneway="0" width="1.00"/>
    <type id="highway.footway" priority="1" speed="2.78" allow="pedestrian" oneway="1" width="2.00"/>
    <type id="highway.ford" priority="1" speed="2.78" allow="army" oneway="0"/>
    <type id="highway.living_street" priority="2" speed="2.78" disallow="tram rail_urban rail rail_electric rail_fast ship" oneway="0"/>
    <type id="highway.motorway" priority="14" speed="39.44" allow="private emergency authority army vip passenger hov taxi bus coach delivery truck trailer motorcycle evehicle custom1 custom2" oneway="1"/>
    <type id="highway.motorway_link" priority="9" speed="22.22" allow="private emergency authority army vip passenger hov taxi bus coach delivery truck trailer motorcycle evehicle custom1 custom2" oneway="1"/>
    <type id="highway.path" priority="1" speed="2.78" allow="pedestrian bicycle" oneway="0" width="2.00"/>
    <type id="highway.pedestrian" priority="1" speed="2.78" allow="pedestrian" oneway="1" width="2.00"/>
    <type id="highway.primary" priority="12" speed="27.78" disallow="pedestrian tram rail_urban rail rail_electric rail_fast ship" oneway="0"/>
    <type id="highway.primary_link" priority="7" speed="22.22" disallow="pedestrian tram rail_urban rail rail_electric rail_fast ship" oneway="0"/>
    <type id="highway.raceway" priority="15" speed="83.33" allow="vip" oneway="0"/>
    <type id="highway.residential" priority="3" speed="13.89" disallow="pedestrian tram rail_urban rail rail_electric rail_fast ship" oneway="0"/>
    <type id="highway.secondary" priority="11" speed="27.78" disallow="pedestrian tram rail_urban rail rail_electric rail_fast ship" oneway="0"/>
    <type id="highway.secondary_link" priority="6" speed="22.22" disallow="pedestrian tram rail_urban rail rail_electric rail_fast ship" oneway="0"/>
    <type id="highway.service" priority="1" speed="5.56" allow="pedestrian delivery bicycle" oneway="0"/>
    <type id="highway.stairs" priority="1" speed="1.39" allow="pedestrian" oneway="1" width="2.00"/>
    <type id="highway.step" priority="1" speed="1.39" allow="pedestrian" oneway="1" width="2.00"/>
    <type id="highway.steps" priority="1" speed="1.39" allow="pedestrian" oneway="1" width="2.00"/>
    <type id="highway.tertiary" priority="10" speed="22.22" disallow="pedestrian tram rail_urban rail rail_electric rail_fast ship" oneway="0"/>
    <type id="highway.tertiary_link" priority="5" speed="22.22" disallow="pedestrian tram rail_urban rail rail_electric rail_fast ship" oneway="0"/>
    <type id="highway.track" priority="1" speed="5.56" allow="pedestrian motorcycle moped bicycle" oneway="0"/>
    <type id="highway.trunk" priority="13" speed="27.78" disallow="pedestrian bicycle tram rail_urban rail rail_electric rail_fast ship" oneway="0"/>
    <type id="highway.trunk_link" priority="8" speed="22.22" disallow="pedestrian bicycle tram rail_urban rail rail_electric rail_fast ship" oneway="0"/>
    <type id="highway.unclassified" priority="4" speed="13.89" disallow="pedestrian tram rail_urban rail rail_electric rail_fast ship" oneway="0"/>
    <type id="highway.unsurfaced" priority="1" speed="8.33" disallow="tram rail_urban rail rail_electric rail_fast ship" oneway="0"/>
    <type id="railway.highspeed" priority="21" speed="69.44" allow="rail_fast" oneway="1"/>
    <type id="railway.light_rail" priority="19" speed="27.78" allow="rail_urban" oneway="1"/>
    <type id="railway.preserved" priority="16" speed="27.78" allow="rail" oneway="1"/>
    <type id="railway.rail" priority="20" speed="44.44" allow="rail" oneway="1"/>
    <type id="railway.subway" priority="18" speed="27.78" allow="rail_urban" oneway="1"/>
    <type id="railway.tram" priority="17" speed="13.89" allow="tram" oneway="1"/>

    <edge id=":37_0" function="internal">
        <lane id=":37_0_0" index="0" disallow="pedestrian tram rail_urban rail rail_electric rail_fast ship" speed="6.42" length="11.81" width="3.48" shape="-720.10,-224.82 -722.87,-221.58 -724.24,-219.56 -724.75,-218.46 -724.89,-217.87 -724.86,-217.27 -724.53,-216.77 -722.56,-216.08"/>
    </edge>
    <edge id=":37_1" function="internal">
        <lane id=":37_1_0" index="0" disallow="pedestrian tram rail_urban rail rail_electric rail_fast ship" speed="10.20" length="14.92" width="3.50" shape="-735.80,-220.98 -735.03,-220.99 -732.34,-221.40 -730.25,-222.02 -728.25,-222.89 -725.93,-224.30 -723.83,-226.03 -722.68,-227.19"/>
    </edge>
    <edge id=":37_2" function="internal">
        <lane id=":37_2_0" index="0" disallow="pedestrian tram rail_urban rail rail_electric rail_fast ship" speed="36.11" length="14.06" width="3.48" shape="-736.11,-219.82 -733.83,-219.19 -722.56,-216.08"/>
    </edge>
    <edge id=":38_0" function="internal">
        <lane id=":38_0_0" index="0" disallow="pedestrian tram rail_urban rail rail_electric rail_fast ship" speed="36.11" length="39.69" width="3.50" shape="-715.14,-179.51 -726.30,-182.54 -743.33,-187.38 -752.42,-189.66 -753.44,-189.89"/>
    </edge>
    <edge id=":38_1" function="internal">
        <lane id=":38_1_0" index="0" disallow="pedestrian tram rail_urban rail rail_electric rail_fast ship" speed="11.09" length="35.98" width="3.50" shape="-715.15,-179.51 -719.54,-180.82 -722.32,-181.92 -724.98,-183.29 -726.23,-184.09 -727.42,-185.00 -728.52,-186.01 -729.50,-187.14 -730.32,-188.39 -730.95,-189.74 -731.37,-191.17 -731.58,-192.65 -731.58,-194.15 -731.40,-195.63 -731.07,-197.09 -730.62,-198.51 -729.42,-201.25 -727.94,-203.85 -727.11,-205.12"/>
    </edge>
    <edge id=":38_2" function="internal">
        <lane id=":38_2_0" index="0" disallow="pedestrian tram rail_urban rail rail_electric rail_fast ship" speed="9.98" length="28.91" width="3.50" shape="-724.21,-203.16 -724.91,-202.08 -726.17,-199.88 -727.16,-197.59 -727.51,-196.47 -727.76,-195.32 -727.89,-194.19 -727.87,-193.08 -727.71,-192.00 -727.39,-190.97 -726.91,-189.99 -726.28,-189.08 -725.53,-188.23 -724.66,-187.45 -723.71,-186.74 -722.70,-186.10 -720.45,-184.96 -718.10,-184.04 -714.36,-182.93"/>
    </edge>
    <edge id=":38_3" function="internal">
        <lane id=":38_3_0" index="0" disallow="pedestrian tram rail_urban rail rail_electric rail_fast ship" speed="14.28" length="34.40" width="3.50" shape="-724.21,-203.16 -726.33,-200.27 -728.66,-197.58 -731.25,-195.14 -733.12,-193.69 -735.11,-192.40 -737.21,-191.30 -739.40,-190.42 -741.68,-189.77 -744.01,-189.35 -746.38,-189.17 -748.75,-189.21 -752.27,-189.65 -753.44,-189.89"/>
    </edge>
    <edge id=":38_4" function="internal">
        <lane id=":38_4_0" index="0" disallow="pedestrian tram rail_urban rail rail_electric rail_fast ship" speed="13.37" length="30.19" width="3.50" shape="-752.67,-193.30 -751.68,-193.10 -748.53,-192.71 -746.49,-192.68 -744.44,-192.84 -742.43,-193.21 -740.47,-193.79 -738.57,-194.56 -736.75,-195.52 -735.02,-196.65 -733.39,-197.93 -731.10,-200.11 -729.02,-202.52 -727.11,-205.12"/>
    </edge>
    <edge id=":38_5" function="internal">
        <lane id=":38_5_0" index="0" disallow="pedestrian tram rail_urban rail rail_electric rail_fast ship" speed="36.11" length="39.69" width="3.50" shape="-752.67,-193.30 -751.63,-193.07 -742.48,-190.78 -725.41,-185.93 -714.36,-182.93"/>
    </edge>
    <edge id=":39_0" function="internal">
        <lane id=":39_0_0" index="0" disallow="pedestrian tram rail_urban rail rail_electric rail_fast ship" speed="11.33" length="42.85" width="3.50" shape="-796.62,-260.36 -798.94,-258.11 -800.67,-256.01 -801.76,-254.29 -802.59,-252.43 -803.05,-250.44 -803.10,-249.08 -802.92,-247.73 -802.52,-246.43 -801.58,-244.63 -800.33,-243.01 -798.88,-241.57 -796.75,-239.89 -793.87,-238.08 -790.24,-236.21 -785.22,-234.09 -780.56,-232.48"/>
    </edge>
    <edge id=":39_1" function="internal">
        <lane id=":39_1_0" index="0" disallow="pedestrian tram rail_urban rail rail_electric rail_fast ship" speed="15.60" length="32.90" width="3.50" shape="-823.89,-248.95 -816.90,-246.51 -815.28,-246.49 -813.70,-246.88 -812.25,-247.62 -810.54,-248.94 -808.65,-250.88 -805.98,-254.30 -801.77,-259.95 -799.60,-262.37 -798.78,-263.13"/>
    </edge>
    <edge id=":39_2" function="internal">
        <lane id=":39_2_0" index="0" disallow="pedestrian tram rail_urban rail rail_electric rail_fast ship" speed="36.11" length="46.36" width="3.50" shape="-823.89,-248.95 -789.78,-235.74 -780.56,-232.48"/>
    </edge>
    <edge id=":40_0" function="internal">
        <lane id=":40_0_0" index="0" disallow="pedestrian tram rail_urban rail rail_electric rail_fast ship" speed="14.51" length="29.31" width="3.50" shape="-694.03,-235.88 -695.21,-236.07 -698.34,-236.20 -701.45,-235.93 -704.51,-235.27 -707.45,-234.23 -710.26,-232.85 -712.91,-231.20 -715.41,-229.31 -717.74,-227.23 -719.91,-225.02"/>
    </edge>
    <edge id=":40_1" function="internal">
        <lane id=":40_1_0" index="0" disallow="pedestrian tram rail_urban rail rail_electric rail_fast ship" speed="36.11" length="39.82" width="3.50" shape="-694.00,-236.02 -702.29,-237.98 -711.34,-240.50 -718.29,-242.76 -725.13,-245.33 -730.85,-247.87 -731.78,-248.33"/>
    </edge>
    <edge id=":40_2" function="internal">
        <lane id=":40_2_0" index="0" disallow="pedestrian tram rail_urban rail rail_electric rail_fast ship" speed="34.96" length="36.51" width="3.50" shape="-698.06,-254.05 -698.46,-252.95 -699.42,-250.90 -701.08,-248.05 -703.51,-244.47 -707.40,-239.38 -712.86,-232.88 -719.91,-225.02"/>
    </edge>
    <edge id=":40_3" function="internal">
        <lane id=":40_3_0" index="0" disallow="pedestrian tram rail_urban rail rail_electric rail_fast ship" speed="12.44" length="40.00" width="3.50" shape="-698.06,-254.05 -699.00,-251.58 -700.29,-249.21 -701.12,-248.05 -702.05,-246.99 -703.08,-246.02 -704.22,-245.16 -705.44,-244.44 -706.73,-243.85 -708.06,-243.39 -709.42,-243.07 -710.78,-242.87 -712.16,-242.77 -714.81,-242.84 -717.42,-243.19 -719.97,-243.74 -723.64,-244.85 -727.21,-246.23 -731.78,-248.33"/>
    </edge>
    <edge id=":40_4" function="internal">
        <lane id=":40_4_0" index="0" disallow="pedestrian tram rail_urban rail rail_electric rail_fast ship" speed="12.18" length="24.02" width="3.50" shape="-730.19,-251.44 -728.62,-250.67 -727.09,-249.97 -725.60,-249.35 -724.16,-248.81 -722.76,-248.35 -721.40,-247.97 -720.09,-247.66 -718.81,-247.44 -717.58,-247.29 -716.39,-247.22 -715.25,-247.23 -714.14,-247.32 -713.08,-247.48 -712.06,-247.73 -711.08,-248.05 -710.15,-248.45 -709.25,-248.93 -708.40,-249.49 -707.60,-250.12"/>
    </edge>
    <edge id=":40_5" function="internal">
        <lane id=":40_5_0" index="0" disallow="pedestrian tram rail_urban rail rail_electric rail_fast ship" speed="36.11" length="24.83" width="3.50" shape="-730.19,-251.44 -729.41,-251.06 -728.49,-250.63 -727.44,-250.16 -726.29,-249.67 -725.05,-249.14 -723.73,-248.60 -722.35,-248.05 -720.92,-247.49 -719.47,-246.92 -718.01,-246.37 -716.55,-245.83 -715.11,-245.30 -713.71,-244.81 -712.36,-244.34 -711.08,-243.91 -709.89,-243.52 -708.80,-243.19 -707.82,-242.91 -706.98,-242.69"/>
    </edge>
    <edge id=":40_6" function="internal">
        <lane id=":40_6_0" index="0" disallow="pedestrian tram rail_urban rail rail_electric rail_fast ship" speed="11.21" length="34.65" width="3.50" shape="-730.22,-251.46 -726.66,-249.54 -723.22,-247.33 -721.02,-245.61 -719.01,-243.67 -718.05,-242.55 -717.20,-241.34 -716.46,-240.04 -715.87,-238.63 -715.47,-237.14 -715.28,-235.59 -715.32,-234.03 -715.57,-232.51 -716.02,-231.05 -716.61,-229.68 -717.33,-228.39 -718.15,-227.17 -719.91,-225.02"/>
    </edge>
    <edge id=":40_7" function="internal">
        <lane id=":40_7_0" index="0" disallow="pedestrian tram rail_urban rail rail_electric rail_fast ship" speed="10.10" length="27.98" width="3.50" shape="-722.49,-227.39 -721.03,-229.18 -720.39,-230.16 -719.84,-231.19 -719.40,-232.27 -719.09,-233.39 -718.95,-234.55 -718.98,-235.72 -719.18,-236.87 -719.55,-237.97 -720.06,-239.03 -720.68,-240.02 -721.39,-240.94 -722.17,-241.81 -723.88,-243.39 -725.74,-244.81 -728.70,-246.68 -731.78,-248.33"/>
    </edge>
    <edge id=":40_8" function="internal">
        <lane id=":40_8_0" index="0" disallow="pedestrian tram rail_urban rail rail_electric rail_fast ship" speed="18.38" length="21.37" width="3.50" shape="-722.49,-227.39 -721.91,-227.99 -721.23,-228.64 -720.47,-229.32 -719.63,-230.03 -718.73,-230.76 -717.78,-231.50 -716.78,-232.25 -715.74,-233.00 -714.67,-233.73 -713.59,-234.45 -712.51,-235.14 -711.42,-235.80 -710.34,-236.41 -709.29,-236.98 -708.26,-237.49 -707.28,-237.94 -706.34,-238.32 -705.47,-238.61 -704.66,-238.82"/>
    </edge>
    <edge id=":40_9" function="internal">
        <lane id=":40_9_0" index="0" disallow="pedestrian tram rail_urban rail rail_electric rail_fast ship" speed="36.11" length="16.75" width="3.50" shape="-722.49,-227.39 -721.95,-227.98 -721.38,-228.58 -720.80,-229.21 -720.21,-229.85 -719.60,-230.50 -718.99,-231.16 -718.37,-231.84 -717.75,-232.52 -717.13,-233.20 -716.51,-233.89 -715.89,-234.58 -715.28,-235.27 -714.68,-235.96 -714.09,-236.64 -713.51,-237.32 -712.95,-237.99 -712.41,-238.65 -711.89,-239.29 -711.40,-239.93"/>
    </edge>
    <edge id=":42_0" function="internal">
        <lane id=":42_0_0" index="0" disallow="pedestrian tram rail_urban rail rail_electric rail_fast ship" speed="36.11" length="7.92" width="3.50" shape="-722.37,-216.03 -714.75,-213.88"/>
    </edge>
    <edge id=":42_1" function="internal">
        <lane id=":42_1_0" index="0" disallow="pedestrian tram rail_urban rail rail_electric rail_fast ship" speed="7.38" length="14.68" width="3.50" shape="-722.37,-216.03 -722.57,-215.98 -721.52,-215.29 -721.09,-214.84 -720.73,-214.32 -720.48,-213.74 -720.26,-212.51 -720.34,-211.25 -720.81,-209.43 -721.82,-207.12 -723.40,-204.39 -724.09,-203.33"/>
    </edge>
    <edge id=":42_2" function="internal">
        <lane id=":42_2_0" index="0" disallow="pedestrian tram rail_urban rail rail_electric rail_fast ship" speed="10.93" length="13.72" width="3.50" shape="-726.98,-205.31 -726.51,-205.97 -726.04,-206.58 -725.54,-207.17 -725.03,-207.72 -724.51,-208.24 -723.97,-208.72 -723.42,-209.17 -722.85,-209.59 -722.27,-209.98 -721.67,-210.33 -721.06,-210.65 -720.43,-210.94 -719.78,-211.19 -719.13,-211.41 -718.45,-211.60 -717.76,-211.75 -717.06,-211.88 -716.34,-211.96 -715.61,-212.02"/>
    </edge>

    <edge id="7536" from="40" to="39" priority="3" type="highway.residential" spreadType="center" length="70.34" shape="-715.95,-238.56 -799.32,-249.19">
        <lane id="7536_0" index="0" disallow="pedestrian tram rail_urban rail rail_electric rail_fast ship" speed="36.11" length="70.34" width="3.50" customShape="1" shape="-731.78,-248.33 -746.49,-255.85 -754.37,-259.71 -760.04,-262.20 -764.86,-264.02 -769.30,-265.38 -773.33,-266.27 -776.91,-266.73 -780.01,-266.83 -783.09,-266.61 -786.13,-266.03 -788.59,-265.26 -791.41,-263.99 -794.06,-262.38 -796.64,-260.38"/>
    </edge>
    <edge id="7537" from="39" to="40" priority="3" type="highway.residential" spreadType="center" length="74.30" shape="-798.88,-252.66 -715.51,-242.03">
        <lane id="7537_0" index="0" disallow="pedestrian tram rail_urban rail rail_electric rail_fast ship" speed="36.11" length="74.30" width="3.50" customShape="1" shape="-798.78,-263.13 -796.14,-265.19 -793.26,-266.97 -790.19,-268.39 -787.48,-269.29 -784.17,-269.99 -780.80,-270.30 -777.44,-270.26 -773.58,-269.85 -769.27,-268.97 -764.55,-267.61 -759.46,-265.74 -753.53,-263.18 -745.36,-259.20 -730.19,-251.44"/>
    </edge>
    <edge id="7539" from="31" to="40" priority="3" type="highway.residential" spreadType="center" length="7.17">
        <lane id="7539_0" index="0" disallow="pedestrian tram rail_urban rail rail_electric rail_fast ship" speed="36.11" length="7.17" width="3.50" customShape="1" shape="-687.00,-234.45 -691.88,-235.52 -692.01,-235.55 -694.00,-235.98"/>
    </edge>
    <edge id="7796" from="40" to="37" priority="3" type="highway.residential" spreadType="center" length="0.28" shape="-714.24,-239.45 -726.15,-221.62">
        <lane id="7796_0" index="0" disallow="pedestrian tram rail_urban rail rail_electric rail_fast ship" speed="36.11" length="0.28" width="3.50" customShape="1" shape="-719.91,-225.03 -720.02,-224.91 -720.10,-224.82"/>
    </edge>
    <edge id="7797" from="37" to="40" priority="3" type="highway.residential" spreadType="center" length="0.28" shape="-729.06,-223.57 -717.14,-241.39">
        <lane id="7797_0" index="0" disallow="pedestrian tram rail_urban rail rail_electric rail_fast ship" speed="36.11" length="0.28" width="3.50" customShape="1" shape="-722.68,-227.19 -722.59,-227.28 -722.49,-227.39"/>
    </edge>
    <edge id="7799" from="32" to="40" priority="3" type="highway.residential" spreadType="center" length="12.54">
        <lane id="7799_0" index="0" disallow="pedestrian tram rail_urban rail rail_electric rail_fast ship" speed="36.11" length="12.54" width="3.49" customShape="1" shape="-696.48,-259.09 -697.97,-254.32 -698.01,-254.20 -700.30,-247.15"/>
    </edge>
    <edge id="7818" from="42" to="38" priority="3" type="highway.residential" spreadType="center" length="0.23" shape="-723.25,-207.89 -729.54,-191.69">
        <lane id="7818_0" index="0" disallow="pedestrian tram rail_urban rail rail_electric rail_fast ship" speed="36.11" length="0.23" width="3.50" customShape="1" shape="-724.09,-203.33 -724.16,-203.24 -724.22,-203.14"/>
    </edge>
    <edge id="7819" from="38" to="42" priority="3" type="highway.residential" spreadType="center" length="0.23" shape="-732.80,-192.95 -726.50,-209.15">
        <lane id="7819_0" index="0" disallow="pedestrian tram rail_urban rail rail_electric rail_fast ship" speed="36.11" length="0.23" width="3.50" customShape="1" shape="-727.11,-205.12 -727.05,-205.20 -726.98,-205.31"/>
    </edge>
    <edge id="7824" from="17" to="39" priority="3" type="highway.residential" spreadType="center" length="64.22">
        <lane id="7824_0" index="0" disallow="pedestrian tram rail_urban rail rail_electric rail_fast ship" speed="36.11" length="64.22" width="3.50" customShape="1" shape="-878.59,-282.49 -870.27,-277.23 -852.49,-265.62 -836.20,-255.44 -829.60,-251.70 -824.62,-249.22 -823.89,-248.95"/>
    </edge>
    <edge id="7826" from="39" to="37" priority="3" type="highway.residential" spreadType="center" length="46.22">
        <lane id="7826_0" index="0" disallow="pedestrian tram rail_urban rail rail_electric rail_fast ship" speed="36.11" length="46.22" width="3.50" customShape="1" shape="-780.56,-232.48 -772.52,-229.89 -759.35,-226.09 -736.10,-219.86"/>
    </edge>
    <edge id="7828" from="37" to="42" priority="3" type="highway.residential" spreadType="center" length="0.20">
        <lane id="7828_0" index="0" disallow="pedestrian tram rail_urban rail rail_electric rail_fast ship" speed="36.11" length="0.20" width="3.48" customShape="1" shape="-722.56,-216.08 -722.37,-216.03"/>
    </edge>
    <edge id="7832" from="38" to="12" priority="3" type="highway.residential" spreadType="center" length="43.15" shape="-731.55,-190.61 -793.11,-206.16">
        <lane id="7832_0" index="0" disallow="pedestrian tram rail_urban rail rail_electric rail_fast ship" speed="36.11" length="43.15" width="3.50" customShape="1" shape="-753.44,-189.89 -761.42,-191.82 -768.33,-193.84 -773.16,-195.58 -778.34,-197.85 -783.38,-200.40 -793.11,-206.16"/>
    </edge>
    <edge id="7833" from="7" to="38" priority="3" type="highway.residential" spreadType="center" length="42.14" shape="-791.34,-209.18 -730.70,-194.01">
        <lane id="7833_0" index="0" disallow="pedestrian tram rail_urban rail rail_electric rail_fast ship" speed="36.11" length="42.14" width="3.50" customShape="1" shape="-791.34,-209.18 -781.78,-203.52 -776.90,-201.04 -771.89,-198.84 -767.22,-197.16 -760.49,-195.19 -752.61,-193.29"/>
    </edge>
    <edge id="7835" from="30" to="38" priority="3" type="highway.residential" spreadType="center" length="32.73" shape="-683.17,-173.01 -731.83,-190.70">
        <lane id="7835_0" index="0" disallow="pedestrian tram rail_urban rail rail_electric rail_fast ship" speed="36.11" length="32.73" width="3.50" customShape="1" shape="-683.17,-173.01 -688.70,-174.09 -706.27,-177.47 -715.24,-179.54"/>
    </edge>
    <edge id="7836" from="38" to="21" priority="3" type="highway.residential" spreadType="center" length="32.53" shape="-730.63,-193.98 -682.49,-176.45">
        <lane id="7836_0" index="0" disallow="pedestrian tram rail_urban rail rail_electric rail_fast ship" speed="36.11" length="32.53" width="3.50" customShape="1" shape="-714.36,-182.93 -705.50,-180.89 -688.00,-177.52 -682.49,-176.45"/>
    </edge>
    <edge id="8382" from="40" to="41" priority="3" type="highway.residential" spreadType="center" length="0.20">
        <lane id="8382_0" index="0" disallow="pedestrian tram rail_urban rail rail_electric rail_fast ship" speed="36.11" length="0.20" width="3.50" customShape="1" shape="-711.40,-239.93 -711.27,-240.08"/>
    </edge>
    <edge id="8384" from="40" to="41" priority="3" type="highway.residential" spreadType="center" length="0.21">
        <lane id="8384_0" index="0" disallow="pedestrian tram rail_urban rail rail_electric rail_fast ship" speed="36.11" length="0.21" width="3.50" customShape="1" shape="-704.66,-238.82 -704.46,-238.87"/>
    </edge>
    <edge id="8393" from="42" to="43" priority="3" type="highway.residential" spreadType="center" length="12.56">
        <lane id="8393_0" index="0" disallow="pedestrian tram rail_urban rail rail_electric rail_fast ship" speed="36.11" length="12.56" width="3.50" customShape="1" shape="-715.61,-212.02 -712.88,-212.16 -709.61,-211.95 -705.85,-211.30 -703.20,-210.63"/>
    </edge>
    <edge id="8399" from="40" to="41" priority="3" type="highway.residential" spreadType="center" length="0.20">
        <lane id="8399_0" index="0" disallow="pedestrian tram rail_urban rail rail_electric rail_fast ship" speed="36.11" length="0.20" width="3.50" customShape="1" shape="-707.60,-250.12 -707.45,-250.25"/>
    </edge>
    <edge id="8401" from="40" to="41" priority="3" type="highway.residential" spreadType="center" length="0.19">
        <lane id="8401_0" index="0" disallow="pedestrian tram rail_urban rail rail_electric rail_fast ship" speed="36.11" length="0.19" width="3.50" customShape="1" shape="-706.98,-242.69 -706.79,-242.65"/>
    </edge>
    <edge id="8468" from="42" to="43" priority="3" type="highway.residential" spreadType="center" length="12.00">
        <lane id="8468_0" index="0" disallow="pedestrian tram rail_urban rail rail_electric rail_fast ship" speed="36.11" length="12.00" width="3.50" customShape="1" shape="-714.75,-213.88 -713.48,-213.52 -703.20,-210.63"/>
    </edge>

    <junction id="12" type="dead_end" x="-793.11" y="-206.16" incLanes="7832_0" intLanes="" shape="-794.00,-204.65 -792.21,-207.67" rightOfWay="edgePriority"/>
    <junction id="17" type="dead_end" x="-878.59" y="-282.49" incLanes="" intLanes="" shape="-879.52,-281.01 -877.65,-283.97" rightOfWay="edgePriority"/>
    <junction id="21" type="dead_end" x="-682.49" y="-176.45" incLanes="7836_0" intLanes="" shape="-682.16,-178.16 -682.83,-174.73" rightOfWay="edgePriority"/>
    <junction id="30" type="dead_end" x="-683.17" y="-173.01" incLanes="" intLanes="" shape="-682.84,-174.73 -683.51,-171.30" rightOfWay="edgePriority"/>
    <junction id="31" type="dead_end" x="-687.00" y="-234.45" incLanes="" intLanes="" shape="-686.62,-236.16 -687.37,-232.74" rightOfWay="edgePriority"/>
    <junction id="32" type="dead_end" x="-696.48" y="-259.09" incLanes="" intLanes="" shape="-698.15,-259.62 -694.81,-258.57" rightOfWay="edgePriority"/>
    <junction id="37" type="priority" x="-727.61" y="-222.60" incLanes="7796_0 7826_0" intLanes=":37_0_0 :37_1_0 :37_2_0" shape="-721.65,-214.02 -720.70,-217.37 -718.81,-223.64 -723.96,-228.37 -726.33,-225.97 -728.52,-224.07 -730.55,-222.68 -732.42,-221.79 -734.11,-221.42 -735.65,-221.55 -736.55,-218.17">
        <request index="0" response="000" foes="100" cont="0"/>
        <request index="1" response="000" foes="000" cont="0"/>
        <request index="2" response="001" foes="001" cont="0"/>
    </junction>
    <junction id="38" type="priority" x="-731.17" y="-192.32" incLanes="7835_0 7818_0 7833_0" intLanes=":38_0_0 :38_1_0 :38_2_0 :38_3_0 :38_4_0 :38_5_0" shape="-715.54,-177.81 -713.97,-184.63 -719.16,-186.26 -722.87,-188.41 -725.08,-191.08 -725.80,-194.26 -725.02,-197.96 -722.76,-202.19 -728.56,-206.09 -731.92,-201.77 -735.51,-198.43 -739.34,-196.09 -743.39,-194.73 -747.68,-194.37 -752.20,-194.99 -753.85,-188.19">
        <request index="0" response="000000" foes="001000" cont="0"/>
        <request index="1" response="110000" foes="111000" cont="0"/>
        <request index="2" response="100000" foes="100000" cont="0"/>
        <request index="3" response="100011" foes="100011" cont="0"/>
        <request index="4" response="000000" foes="000010" cont="0"/>
        <request index="5" response="000000" foes="001110" cont="0"/>
    </junction>
    <junction id="39" type="priority" x="-799.10" y="-250.93" incLanes="7536_0 7824_0" intLanes=":39_0_0 :39_1_0 :39_2_0" shape="-781.09,-230.81 -780.02,-234.14 -787.45,-237.03 -793.80,-240.59 -798.43,-244.70 -800.69,-249.23 -799.95,-254.04 -795.56,-259.00 -799.86,-264.51 -805.97,-259.87 -811.20,-256.15 -815.55,-253.36 -819.01,-251.51 -821.58,-250.58 -823.27,-250.58 -824.50,-247.31">
        <request index="0" response="100" foes="100" cont="0"/>
        <request index="1" response="000" foes="000" cont="0"/>
        <request index="2" response="000" foes="001" cont="0"/>
    </junction>
    <junction id="40" type="priority" x="-715.77" y="-240.30" incLanes="7539_0 7799_0 7537_0 7797_0" intLanes=":40_0_0 :40_1_0 :40_2_0 :40_3_0 :40_4_0 :40_5_0 :40_6_0 :40_7_0 :40_8_0 :40_9_0" shape="-694.38,-234.28 -693.63,-237.69 -697.11,-238.64 -697.83,-242.06 -701.36,-239.56 -700.55,-242.97 -702.30,-248.87 -700.49,-252.21 -701.92,-252.69 -704.20,-255.35 -729.39,-253.00 -732.58,-246.77 -727.50,-243.79 -723.87,-240.79 -721.68,-237.77 -720.94,-234.72 -721.64,-231.66 -723.79,-228.57 -718.62,-223.84 -714.62,-227.78 -710.60,-230.83 -706.57,-233.01 -702.52,-234.31 -698.45,-234.73">
        <request index="0" response="0000000000" foes="0001000100" cont="0"/>
        <request index="1" response="0000000000" foes="1111001100" cont="0"/>
        <request index="2" response="0001100011" foes="1101100011" cont="0"/>
        <request index="3" response="0011100010" foes="0011100010" cont="0"/>
        <request index="4" response="0000000000" foes="0000000000" cont="0"/>
        <request index="5" response="0000000000" foes="1000001100" cont="0"/>
        <request index="6" response="0000000011" foes="1100001111" cont="0"/>
        <request index="7" response="0000000010" foes="0000001010" cont="0"/>
        <request index="8" response="0001000110" foes="0001000110" cont="0"/>
        <request index="9" response="0001100110" foes="0001100110" cont="0"/>
    </junction>
    <junction id="41" type="dead_end" x="-696.38" y="-247.06" incLanes="8382_0 8384_0 8399_0 8401_0" intLanes="" shape="-714.67,-238.88 -711.20,-237.56 -710.82,-238.13 -710.82,-238.26 -710.94,-238.29 -711.20,-238.22 -711.59,-238.06 -711.93,-233.87 -706.18,-237.87 -702.88,-241.22 -702.03,-243.92 -703.65,-245.97 -707.72,-247.38 -714.25,-248.14 -710.05,-244.84 -709.64,-245.13 -709.87,-245.36 -710.38,-245.63 -711.19,-245.95 -712.28,-246.33 -713.09,-242.91 -712.63,-242.26 -712.77,-241.67 -713.15,-240.91 -713.79,-239.98"/>
    <junction id="42" type="priority" x="-724.94" y="-208.36" incLanes="7828_0 7819_0" intLanes=":42_0_0 :42_1_0 :42_2_0" shape="-715.23,-212.20 -714.28,-215.57 -725.58,-218.75 -726.53,-215.39 -728.45,-206.26 -722.64,-202.36 -720.94,-204.75 -719.34,-206.72 -717.84,-208.26 -716.44,-209.38 -715.14,-210.08 -713.94,-210.35 -717.11,-213.52 -717.65,-213.23 -717.48,-213.03 -717.02,-212.79 -716.27,-212.52">