<routes>
	<vehicle depart="0.1" departLane="0" departPos="15.112002661822277" departSpeed="0.0" id="30" type="passenger">
		<route edges=":42_1 7818"/>
	</vehicle>
	<vehicle depart="0.1" departLane="0" departPos="7.702783433991068" departSpeed="0.0" id="39" type="passenger">
		<route edges=":42_1 7818"/>
	</vehicle>
	<vehicle depart="0.1" departLane="0" departPos="6.788066988993121" departSpeed="0.76322979" id="329" type="passenger">
		<route edges=":38_0 7832"/>
	</vehicle>
	<vehicle depart="0.1" departLane="0" departPos="15.803878256226332" departSpeed="0.52168159" id="332" type="passenger">
		<route edges="7835 7832"/>
	</vehicle>
	<vehicle depart="0.1" departLane="0" departPos="3.75" departSpeed="0.64953288" id="338" type="truck">
		<route edges="7835 7832"/>
	</vehicle>
</routes>
