<routes>
	<vehicle depart="0.1" departLane="0" departPos="22.500049187881103" departSpeed="5.8486639" id="315" type="bicycle">
		<route edges="13089"/>
	</vehicle>
	<vehicle depart="0.1" departLane="0" departPos="11.211550140144428" departSpeed="8.0541429" id="317" type="bicycle">
		<route edges=":5_0 13089"/>
	</vehicle>
	<vehicle depart="0.1" departLane="0" departPos="25.074575080738597" departSpeed="11.425364" id="319" type="passenger">
		<route edges=":5_0 13089"/>
	</vehicle>
	<vehicle depart="0.1" departLane="0" departPos="60.52298430023833" departSpeed="12.981783" id="321" type="passenger">
		<route edges="13130 13089"/>
	</vehicle>
</routes>
