<routes>
	<vehicle depart="0.1" departLane="0" departPos="66.61882277167012" departSpeed="0.49225491" id="36" type="passenger">
		<route edges="13269 13357"/>
	</vehicle>
	<vehicle depart="0.1" departLane="0" departPos="62.45905400951766" departSpeed="2.236867" id="39" type="passenger">
		<route edges="13358 13272"/>
	</vehicle>
	<vehicle depart="0.1" departLane="0" departPos="54.54914019451769" departSpeed="1.3517881" id="310" type="passenger">
		<route edges="13269 13357"/>
	</vehicle>
	<vehicle depart="0.1" departLane="0" departPos="45.88310887556345" departSpeed="0.49444891" id="311" type="passenger">
		<route edges="13269 13357"/>
	</vehicle>
	<vehicle depart="0.1" departLane="0" departPos="46.5648934945545" departSpeed="14.265382" id="332" type="passenger">
		<route edges=":17_2 13268"/>
	</vehicle>
	<vehicle depart="0.1" departLane="0" departPos="24.780149110693635" departSpeed="9.9469864" id="333" type="passenger">
		<route edges=":17_3 13357"/>
	</vehicle>
	<vehicle depart="0.1" departLane="0" departPos="61.10630848803113" departSpeed="11.545217" id="336" type="passenger">
		<route edges="13271 13268"/>
	</vehicle>
	<vehicle depart="0.1" departLane="0" departPos="27.554988179382452" departSpeed="8.0813646" id="338" type="passenger">
		<route edges="13271 13357"/>
	</vehicle>
	<vehicle depart="0.1" departLane="0" departPos="22.122494037279072" departSpeed="0.50513964" id="30" type="truck">
		<route edges=":17_7 13357"/>
	</vehicle>
</routes>
