<routes>
	<vehicle depart="0.1" departLane="0" departPos="29.88971941007299" departSpeed="0.094880045" id="32" type="passenger">
		<route edges=":52_2 40398"/>
	</vehicle>
	<vehicle depart="0.1" departLane="0" departPos="19.087620423279862" departSpeed="0.052883891" id="37" type="passenger">
		<route edges=":49_11 40101"/>
	</vehicle>
	<vehicle depart="0.1" departLane="0" departPos="29.864188390497024" departSpeed="4.1107039e-05" id="313" type="passenger">
		<route edges="40398 40353"/>
	</vehicle>
	<vehicle depart="0.1" departLane="0" departPos="36.773857504049815" departSpeed="0.0" id="320" type="passenger">
		<route edges="40398 40353"/>
	</vehicle>
	<vehicle depart="0.1" departLane="0" departPos="22.954052962341112" departSpeed="0.00061537122" id="330" type="passenger">
		<route edges="40398 40353"/>
	</vehicle>
	<vehicle depart="0.1" departLane="0" departPos="15.448311570172125" departSpeed="0.0048816954" id="334" type="passenger">
		<route edges="40398 40353"/>
	</vehicle>
	<vehicle depart="0.1" departLane="0" departPos="8.118802869578396" departSpeed="0.024464303" id="341" type="passenger">
		<route edges="40398 40353"/>
	</vehicle>
	<vehicle depart="0.1" departLane="0" departPos="38.13206255988518" departSpeed="13.766779" id="349" type="passenger">
		<route edges=":49_1 40397 40308"/>
	</vehicle>
	<vehicle depart="0.1" departLane="0" departPos="69.92234827853662" departSpeed="0.0" id="325" type="truck">
		<route edges="40352 40397"/>
	</vehicle>
	<vehicle depart="0.1" departLane="0" departPos="58.62308023541897" departSpeed="7.586709" id="356" type="truck">
		<route edges="40100 40353"/>
	</vehicle>
</routes>
