<routes>
	<vehicle depart="0.1" departLane="0" departPos="2.5" departSpeed="0.25015735" id="39" type="passenger">
		<route edges=":107_8 44887"/>
	</vehicle>
	<vehicle depart="0.1" departLane="0" departPos="9.424061165564577" departSpeed="10.619405" id="320" type="passenger">
		<route edges=":109_7 45048"/>
	</vehicle>
	<vehicle depart="0.1" departLane="0" departPos="15.924192283376033" departSpeed="1.1020231" id="323" type="passenger">
		<route edges=":111_2 45247"/>
	</vehicle>
	<vehicle depart="0.1" departLane="0" departPos="2.5" departSpeed="2.7044909" id="325" type="passenger">
		<route edges=":111_1 44795"/>
	</vehicle>
	<vehicle depart="0.1" departLane="0" departPos="7.889123025009657" departSpeed="1.5262986" id="332" type="passenger">
		<route edges="44886 45173 45000"/>
	</vehicle>
	<vehicle depart="0.1" departLane="0" departPos="5.249118696126581" departSpeed="4.0122395" id="345" type="passenger">
		<route edges=":107_5 45173"/>
	</vehicle>
	<vehicle depart="0.1" departLane="0" departPos="16.701445300921904" departSpeed="1.1843227" id="357" type="passenger">
		<route edges=":109_6 45245"/>
	</vehicle>
	<vehicle depart="0.1" departLane="0" departPos="56.107092544364214" departSpeed="0.044986795" id="371" type="passenger">
		<route edges="45047 45245"/>
	</vehicle>
	<vehicle depart="0.1" departLane="0" departPos="34.30821314165581" departSpeed="1.954389" id="390" type="passenger">
		<route edges="45047 45241"/>
	</vehicle>
	<vehicle depart="0.1" departLane="0" departPos="30.054987421277534" departSpeed="0.47546634" id="310" type="motorcycle">
		<route edges=":111_2 45247 44887"/>
	</vehicle>
</routes>
