<!-- generated on Tue Feb  9 22:09:47 2021 by Eclipse SUMO netconvert Version 1.8.0
<configuration xmlns:xsi="http://www.w3.org/2001/XMLSchema-instance" xsi:noNamespaceSchemaLocation="http://sumo.dlr.de/xsd/netconvertConfiguration.xsd">

    <input>
        <node-files value="./converted_scenarios/scenario-factory/DEU_Backnang-2_4_I-1-1/DEU_Backnang-2_4_I-1-1.nod.xml"/>
        <edge-files value="./converted_scenarios/scenario-factory/DEU_Backnang-2_4_I-1-1/DEU_Backnang-2_4_I-1-1.edg.xml"/>
        <connection-files value="./converted_scenarios/scenario-factory/DEU_Backnang-2_4_I-1-1/DEU_Backnang-2_4_I-1-1.con.xml"/>
        <tllogic-files value="./converted_scenarios/scenario-factory/DEU_Backnang-2_4_I-1-1/DEU_Backnang-2_4_I-1-1.tll.xml"/>
        <type-files value="/home/zen/commonroad-interactive-benchmarks/install/commonroad-map-tool/crmapconverter/sumo_map/templates/DEU.typ.xml"/>
    </input>

    <output>
        <output-file value="./converted_scenarios/scenario-factory/DEU_Backnang-2_4_I-1-1/DEU_Backnang-2_4_I-1-1.net.xml"/>
    </output>

    <processing>
        <geometry.remove.keep-edges.explicit value="true"/>
        <geometry.avoid-overlap value="true"/>
        <offset.disable-normalization value="true"/>
    </processing>

    <junctions>
        <no-turnarounds value="true"/>
        <junctions.internal-link-detail value="20"/>
    </junctions>

    <report>
        <aggregate-warnings value="5"/>
    </report>

    <random_number>
        <seed value="1234"/>
    </random_number>

</configuration>
--><net xmlns:xsi="http://www.w3.org/2001/XMLSchema-instance" version="1.6" junctionCornerDetail="5" junctionLinkDetail="20" limitTurnSpeed="5.50" xsi:noNamespaceSchemaLocation="http://sumo.dlr.de/xsd/net_file.xsd">

    <location netOffset="0.00,0.00" convBoundary="187.99,-44.36,567.27,324.29" origBoundary="187.99,-44.36,567.27,324.29" projParameter="!"/>

    <type id="highway.bridleway" priority="1" speed="2.78" allow="pedestrian" oneway="1" width="2.00"/>
    <type id="highway.bus_guideway" priority="1" speed="27.78" allow="bus" oneway="1"/>
    <type id="highway.cycleway" priority="1" speed="8.33" allow="bicycle" oneway="0" width="1.00"/>
    <type id="highway.footway" priority="1" speed="2.78" allow="pedestrian" oneway="1" width="2.00"/>
    <type id="highway.ford" priority="1" speed="2.78" allow="army" oneway="0"/>
    <type id="highway.living_street" priority="2" speed="2.78" disallow="tram rail_urban rail rail_electric rail_fast ship" oneway="0"/>
    <type id="highway.motorway" priority="14" speed="39.44" allow="private emergency authority army vip passenger hov taxi bus coach delivery truck trailer motorcycle evehicle custom1 custom2" oneway="1"/>
    <type id="highway.motorway_link" priority="9" speed="22.22" allow="private emergency authority army vip passenger hov taxi bus coach delivery truck trailer motorcycle evehicle custom1 custom2" oneway="1"/>
    <type id="highway.path" priority="1" speed="2.78" allow="pedestrian bicycle" oneway="0" width="2.00"/>
    <type id="highway.pedestrian" priority="1" speed="2.78" allow="pedestrian" oneway="1" width="2.00"/>
    <type id="highway.primary" priority="12" speed="27.78" disallow="pedestrian tram rail_urban rail rail_electric rail_fast ship" oneway="0"/>
    <type id="highway.primary_link" priority="7" speed="22.22" disallow="pedestrian tram rail_urban rail rail_electric rail_fast ship" oneway="0"/>
    <type id="highway.raceway" priority="15" speed="83.33" allow="vip" oneway="0"/>
    <type id="highway.residential" priority="3" speed="13.89" disallow="pedestrian tram rail_urban rail rail_electric rail_fast ship" oneway="0"/>
    <type id="highway.secondary" priority="11" speed="27.78" disallow="pedestrian tram rail_urban rail rail_electric rail_fast ship" oneway="0"/>
    <type id="highway.secondary_link" priority="6" speed="22.22" disallow="pedestrian tram rail_urban rail rail_electric rail_fast ship" oneway="0"/>
    <type id="highway.service" priority="1" speed="5.56" allow="pedestrian delivery bicycle" oneway="0"/>
    <type id="highway.stairs" priority="1" speed="1.39" allow="pedestrian" oneway="1" width="2.00"/>
    <type id="highway.step" priority="1" speed="1.39" allow="pedestrian" oneway="1" width="2.00"/>
    <type id="highway.steps" priority="1" speed="1.39" allow="pedestrian" oneway="1" width="2.00"/>
    <type id="highway.tertiary" priority="10" speed="22.22" disallow="pedestrian tram rail_urban rail rail_electric rail_fast ship" oneway="0"/>
    <type id="highway.tertiary_link" priority="5" speed="22.22" disallow="pedestrian tram rail_urban rail rail_electric rail_fast ship" oneway="0"/>
    <type id="highway.track" priority="1" speed="5.56" allow="pedestrian motorcycle moped bicycle" oneway="0"/>
    <type id="highway.trunk" priority="13" speed="27.78" disallow="pedestrian bicycle tram rail_urban rail rail_electric rail_fast ship" oneway="0"/>
    <type id="highway.trunk_link" priority="8" speed="22.22" disallow="pedestrian bicycle tram rail_urban rail rail_electric rail_fast ship" oneway="0"/>
    <type id="highway.unclassified" priority="4" speed="13.89" disallow="pedestrian tram rail_urban rail rail_electric rail_fast ship" oneway="0"/>
    <type id="highway.unsurfaced" priority="1" speed="8.33" disallow="tram rail_urban rail rail_electric rail_fast ship" oneway="0"/>
    <type id="railway.highspeed" priority="21" speed="69.44" allow="rail_fast" oneway="1"/>
    <type id="railway.light_rail" priority="19" speed="27.78" allow="rail_urban" oneway="1"/>
    <type id="railway.preserved" priority="16" speed="27.78" allow="rail" oneway="1"/>
    <type id="railway.rail" priority="20" speed="44.44" allow="rail" oneway="1"/>
    <type id="railway.subway" priority="18" speed="27.78" allow="rail_urban" oneway="1"/>
    <type id="railway.tram" priority="17" speed="13.89" allow="tram" oneway="1"/>

    <edge id=":104_0" function="internal">
        <lane id=":104_0_0" index="0" disallow="pedestrian tram rail_urban rail rail_electric rail_fast ship" speed="11.19" length="29.09" width="3.50" shape="385.71,181.87 384.00,180.25 382.21,178.79 380.33,177.51 378.36,176.45 376.27,175.66 375.25,175.41 374.19,175.23 373.12,175.15 372.06,175.17 371.00,175.28 369.95,175.49 368.91,175.78 367.92,176.15 365.91,177.16 364.04,178.42 362.27,179.87 360.58,181.51"/>
    </edge>
    <edge id=":104_1" function="internal">
        <lane id=":104_1_0" index="0" disallow="pedestrian tram rail_urban rail rail_electric rail_fast ship" speed="11.94" length="34.93" width="3.50" shape="385.71,181.87 383.87,179.89 382.21,177.78 380.76,175.52 379.61,173.09 379.17,171.82 378.84,170.52 378.63,169.20 378.54,167.86 378.59,166.52 378.76,165.18 379.06,163.88 379.47,162.60 379.99,161.36 381.28,159.01 382.85,156.83 384.63,154.82 387.57,152.06"/>
    </edge>
    <edge id=":104_2" function="internal">
        <lane id=":104_2_0" index="0" disallow="pedestrian tram rail_urban rail rail_electric rail_fast ship" speed="10.93" length="29.07" width="3.50" shape="389.86,154.71 387.27,157.13 385.75,158.85 384.43,160.68 383.33,162.65 382.93,163.63 382.59,164.65 382.35,165.69 382.21,166.74 382.17,167.80 382.24,168.86 382.40,169.91 382.66,170.95 383.00,171.95 383.96,173.98 385.17,175.88 386.60,177.68 388.19,179.40"/>
    </edge>
    <edge id=":104_3" function="internal">
        <lane id=":104_3_0" index="0" disallow="pedestrian tram rail_urban rail rail_electric rail_fast ship" speed="36.11" length="39.71" width="3.50" shape="389.86,154.71 387.46,156.76 375.67,167.10 367.25,174.89 360.58,181.51"/>
    </edge>
    <edge id=":104_4" function="internal">
        <lane id=":104_4_0" index="0" disallow="pedestrian tram rail_urban rail rail_electric rail_fast ship" speed="36.11" length="40.02" width="3.50" shape="358.07,179.08 364.80,172.38 373.30,164.52 385.17,154.12 387.57,152.06"/>
    </edge>
    <edge id=":104_5" function="internal">
        <lane id=":104_5_0" index="0" disallow="pedestrian tram rail_urban rail rail_electric rail_fast ship" speed="12.19" length="34.75" width="3.50" shape="358.07,179.08 360.00,177.20 362.06,175.50 364.28,174.02 366.66,172.81 367.91,172.34 369.19,171.97 370.50,171.71 371.83,171.56 373.16,171.54 374.49,171.64 375.81,171.85 377.10,172.17 379.60,173.11 381.96,174.36 384.17,175.87 386.23,177.55 388.19,179.40"/>
    </edge>
    <edge id=":105_0" function="internal">
        <lane id=":105_0_0" index="0" disallow="pedestrian tram rail_urban rail rail_electric rail_fast ship" speed="14.23" length="41.06" width="3.50" shape="446.02,147.13 444.41,145.60 441.02,142.70 438.36,140.74 435.58,138.98 432.69,137.48 429.66,136.30 427.62,135.73 425.53,135.34 423.42,135.15 421.31,135.17 419.22,135.40 417.15,135.84 415.14,136.48 412.19,137.79 409.40,139.45"/>
    </edge>
    <edge id=":105_1" function="internal">
        <lane id=":105_1_0" index="0" disallow="pedestrian tram rail_urban rail rail_electric rail_fast ship" speed="36.11" length="48.48" width="3.50" shape="446.02,147.13 442.34,143.50 428.56,129.55 412.22,112.38"/>
    </edge>
    <edge id=":105_2" function="internal">
        <lane id=":105_2_0" index="0" disallow="pedestrian tram rail_urban rail rail_electric rail_fast ship" speed="11.43" length="40.18" width="3.50" shape="446.02,147.13 442.84,143.75 440.92,141.33 439.24,138.73 438.53,137.36 437.94,135.94 437.49,134.46 437.21,132.94 437.15,131.40 437.32,129.86 437.75,128.38 438.40,126.98 439.24,125.69 440.25,124.51 441.36,123.44 442.57,122.48 445.17,120.80 447.92,119.40 452.23,117.66"/>
    </edge>
    <edge id=":105_3" function="internal">
        <lane id=":105_3_0" index="0" disallow="pedestrian tram rail_urban rail rail_electric rail_fast ship" speed="10.36" length="32.70" width="3.50" shape="453.40,120.96 449.65,122.47 447.32,123.66 445.13,125.07 444.17,125.84 443.29,126.69 442.51,127.60 441.88,128.56 441.40,129.58 441.10,130.65 440.98,131.76 441.03,132.90 441.24,134.04 441.60,135.20 442.08,136.33 442.65,137.44 444.07,139.63 445.70,141.69 448.48,144.64"/>
    </edge>
    <edge id=":105_4" function="internal">
        <lane id=":105_4_0" index="0" disallow="pedestrian tram rail_urban rail rail_electric rail_fast ship" speed="36.11" length="47.80" width="3.50" shape="453.40,120.96 452.43,121.30 437.06,126.94 425.67,131.47 418.22,134.73 412.81,137.43 409.40,139.45"/>
    </edge>
    <edge id=":105_5" function="internal">
        <lane id=":105_5_0" index="0" disallow="pedestrian tram rail_urban rail rail_electric rail_fast ship" speed="16.79" length="44.84" width="3.50" shape="453.40,120.96 451.22,121.68 446.86,122.85 443.48,123.47 440.06,123.83 436.61,123.88 433.15,123.61 429.73,122.98 426.39,121.98 423.18,120.63 420.14,118.95 417.29,116.99 414.65,114.77 412.22,112.38"/>
    </edge>
    <edge id=":105_6" function="internal">
        <lane id=":105_6_0" index="0" disallow="pedestrian tram rail_urban rail rail_electric rail_fast ship" speed="16.03" length="40.78" width="3.50" shape="414.77,109.98 416.99,112.17 419.40,114.18 421.98,115.96 424.73,117.47 427.63,118.68 430.64,119.57 433.72,120.13 436.85,120.37 439.99,120.31 443.11,119.98 446.20,119.41 450.24,118.33 452.23,117.66"/>
    </edge>
    <edge id=":105_7" function="internal">
        <lane id=":105_7_0" index="0" disallow="pedestrian tram rail_urban rail rail_electric rail_fast ship" speed="36.11" length="48.35" width="3.50" shape="414.77,109.98 431.07,127.11 444.80,141.02 448.48,144.64"/>
    </edge>
    <edge id=":105_8" function="internal">
        <lane id=":105_8_0" index="0" disallow="pedestrian tram rail_urban rail rail_electric rail_fast ship" speed="11.85" length="35.65" width="3.50" shape="414.77,109.98 416.49,111.97 418.06,114.16 419.38,116.52 419.94,117.82 420.38,119.16 420.70,120.55 420.88,121.97 420.91,123.42 420.78,124.86 420.50,126.27 420.08,127.64 419.53,128.94 418.87,130.18 418.12,131.37 416.45,133.49 414.58,135.40 412.57,137.14 409.40,139.45"/>
    </edge>
    <edge id=":105_9" function="internal">
        <lane id=":105_9_0" index="0" disallow="pedestrian tram rail_urban rail rail_electric rail_fast ship" speed="10.82" length="29.52" width="3.50" shape="407.38,136.60 410.22,134.53 411.94,133.06 413.53,131.44 414.94,129.67 415.55,128.72 416.09,127.73 416.54,126.69 416.89,125.61 417.13,124.51 417.25,123.38 417.24,122.25 417.11,121.13 416.87,120.02 416.53,118.94 416.09,117.90 415.00,115.91 413.68,114.07 412.22,112.38"/>
    </edge>
    <edge id=":105_10" function="internal">
        <lane id=":105_10_0" index="0" disallow="pedestrian tram rail_urban rail rail_electric rail_fast ship" speed="36.11" length="48.76" width="3.50" shape="407.38,136.60 411.03,134.41 416.58,131.64 424.16,128.31 435.70,123.72 451.25,118.01 452.23,117.66"/>
    </edge>
    <edge id=":105_11" function="internal">
        <lane id=":105_11_0" index="0" disallow="pedestrian tram rail_urban rail rail_electric rail_fast ship" speed="15.04" length="45.98" width="3.50" shape="407.38,136.60 410.58,134.68 413.88,133.20 416.18,132.45 418.53,131.93 420.93,131.64 423.34,131.59 425.75,131.79 428.12,132.21 430.45,132.84 433.83,134.13 437.06,135.77 440.13,137.69 443.04,139.83 446.72,142.97 448.48,144.64"/>
    </edge>
    <edge id=":106_0" function="internal">
        <lane id=":106_0_0" index="0" disallow="pedestrian tram rail_urban rail rail_electric rail_fast ship" speed="11.06" length="28.67" width="3.50" shape="482.40,191.71 480.01,189.18 478.32,187.72 476.50,186.45 474.54,185.43 473.57,185.06 472.55,184.76 471.52,184.55 470.48,184.44 469.43,184.42 468.38,184.50 467.33,184.67 466.32,184.91 464.25,185.68 462.29,186.71 460.42,187.94 457.75,190.14"/>
    </edge>
    <edge id=":106_1" function="internal">
        <lane id=":106_1_0" index="0" disallow="pedestrian tram rail_urban rail rail_electric rail_fast ship" speed="36.11" length="37.76" width="3.50" shape="482.40,191.71 481.68,190.86 477.09,185.06 470.33,175.69 464.21,167.24 459.68,161.57"/>
    </edge>
    <edge id=":106_2" function="internal">
        <lane id=":106_2_0" index="0" disallow="pedestrian tram rail_urban rail rail_electric rail_fast ship" speed="36.11" length="37.73" width="3.50" shape="462.34,159.29 466.94,165.05 473.08,173.53 479.82,182.87 484.37,188.61 485.04,189.42"/>
    </edge>
    <edge id=":106_3" function="internal">
        <lane id=":106_3_0" index="0" disallow="pedestrian tram rail_urban rail rail_electric rail_fast ship" speed="12.53" length="35.34" width="3.50" shape="462.34,159.29 463.94,161.36 465.32,163.57 466.44,165.96 467.23,168.48 467.48,169.84 467.62,171.18 467.64,172.54 467.56,173.89 467.35,175.25 466.67,177.80 465.65,180.23 464.37,182.49 462.90,184.61 460.45,187.49 457.75,190.14"/>
    </edge>
    <edge id=":106_4" function="internal">
        <lane id=":106_4_0" index="0" disallow="pedestrian tram rail_urban rail rail_electric rail_fast ship" speed="11.55" length="29.87" width="3.50" shape="455.40,187.55 457.77,185.22 459.93,182.70 461.20,180.90 462.31,178.98 463.19,176.95 463.79,174.82 463.96,173.73 464.05,172.63 464.05,171.53 463.95,170.42 463.76,169.33 463.13,167.22 462.21,165.21 461.04,163.33 459.68,161.57"/>
    </edge>
    <edge id=":106_5" function="internal">
        <lane id=":106_5_0" index="0" disallow="pedestrian tram rail_urban rail rail_electric rail_fast ship" speed="12.07" length="34.34" width="3.50" shape="455.40,187.55 458.47,185.03 460.67,183.57 463.01,182.35 465.48,181.43 466.76,181.11 468.07,180.90 469.39,180.81 470.71,180.83 472.02,180.97 473.31,181.23 474.58,181.61 475.81,182.08 478.15,183.30 480.32,184.81 482.32,186.54 485.04,189.42"/>
    </edge>
    <edge id=":107_0" function="internal">
        <lane id=":107_0_0" index="0" disallow="pedestrian tram rail_urban rail rail_electric rail_fast ship" speed="11.24" length="29.20" width="3.50" shape="405.68,105.40 403.35,103.13 401.67,101.78 399.87,100.57 397.95,99.58 395.91,98.85 394.86,98.61 393.79,98.45 392.71,98.38 391.63,98.40 390.55,98.52 389.49,98.73 387.43,99.38 385.48,100.31 383.64,101.45 381.92,102.76 380.31,104.20"/>
    </edge>
    <edge id=":107_1" function="internal">
        <lane id=":107_1_0" index="0" disallow="pedestrian tram rail_urban rail rail_electric rail_fast ship" speed="36.11" length="28.41" width="3.50" shape="405.68,105.40 402.01,101.19 397.37,95.15 391.59,87.43 388.00,83.18"/>
    </edge>
    <edge id=":107_2" function="internal">
        <lane id=":107_2_0" index="0" disallow="pedestrian tram rail_urban rail rail_electric rail_fast ship" speed="11.72" length="36.35" width="3.50" shape="405.68,105.40 402.95,102.21 401.34,99.93 399.95,97.50 398.88,94.92 398.50,93.57 398.24,92.20 398.12,90.81 398.15,89.41 398.33,88.03 398.67,86.67 399.16,85.36 399.77,84.11 400.50,82.91 401.33,81.79 403.21,79.72 405.31,77.88 407.57,76.23 408.75,75.47"/>
    </edge>
    <edge id=":107_3" function="internal">
        <lane id=":107_3_0" index="0" disallow="pedestrian tram rail_urban rail rail_electric rail_fast ship" speed="10.68" length="30.01" width="3.50" shape="410.61,78.43 409.60,79.09 407.64,80.51 405.86,82.07 404.29,83.81 403.64,84.70 403.06,85.66 402.57,86.65 402.20,87.67 401.94,88.72 401.81,89.78 401.79,90.86 401.89,91.95 402.10,93.04 402.41,94.09 403.30,96.24 404.48,98.28 405.85,100.22 408.23,103.01"/>
    </edge>
    <edge id=":107_4" function="internal">
        <lane id=":107_4_0" index="0" disallow="pedestrian tram rail_urban rail rail_electric rail_fast ship" speed="36.11" length="39.83" width="3.50" shape="410.61,78.43 408.94,79.52 404.85,82.50 398.51,87.64 390.82,94.40 380.31,104.20"/>
    </edge>
    <edge id=":107_5" function="internal">
        <lane id=":107_5_0" index="0" disallow="pedestrian tram rail_urban rail rail_electric rail_fast ship" speed="11.76" length="22.26" width="3.50" shape="410.61,78.43 407.72,80.05 404.68,81.34 402.04,82.12 399.32,82.59 396.57,82.71 393.83,82.47 391.14,81.90 389.36,81.30"/>
    </edge>
    <edge id=":107_6" function="internal">
        <lane id=":107_6_0" index="0" disallow="pedestrian tram rail_urban rail rail_electric rail_fast ship" speed="8.73" length="19.35" width="3.50" shape="377.89,101.68 380.86,98.60 383.15,95.75 384.77,93.17 385.80,90.96 386.35,89.22 386.66,87.42 386.66,85.59 386.58,85.15"/>
    </edge>
    <edge id=":107_7" function="internal">
        <lane id=":107_7_0" index="0" disallow="pedestrian tram rail_urban rail rail_electric rail_fast ship" speed="36.11" length="40.54" width="3.50" shape="377.89,101.68 388.53,91.75 396.34,84.89 402.80,79.66 407.00,76.61 408.75,75.47"/>
    </edge>
    <edge id=":107_8" function="internal">
        <lane id=":107_8_0" index="0" disallow="pedestrian tram rail_urban rail rail_electric rail_fast ship" speed="12.24" length="34.83" width="3.50" shape="377.89,101.68 379.76,100.01 381.77,98.48 383.93,97.12 386.27,96.01 388.74,95.22 390.08,94.95 391.40,94.81 392.74,94.77 394.07,94.85 395.39,95.04 396.72,95.35 399.16,96.22 401.46,97.40 403.59,98.82 405.56,100.41 408.23,103.01"/>
    </edge>
    <edge id=":108_0" function="internal">
        <lane id=":108_0_0" index="0" disallow="pedestrian tram rail_urban rail rail_electric rail_fast ship" speed="11.20" length="28.67" width="3.50" shape="436.87,233.33 434.43,231.10 432.66,229.78 430.77,228.64 428.75,227.74 427.70,227.40 426.63,227.15 425.54,226.98 424.44,226.91 423.33,226.94 422.24,227.06 421.16,227.27 420.09,227.57 418.05,228.41 416.13,229.49 414.34,230.78 411.87,232.96"/>
    </edge>
    <edge id=":108_1" function="internal">
        <lane id=":108_1_0" index="0" disallow="pedestrian tram rail_urban rail rail_electric rail_fast ship" speed="36.11" length="39.04" width="3.50" shape="436.87,233.33 423.11,219.47 409.37,205.62"/>
    </edge>
    <edge id=":108_2" function="internal">
        <lane id=":108_2_0" index="0" disallow="pedestrian tram rail_urban rail rail_electric rail_fast ship" speed="12.06" length="34.48" width="3.50" shape="436.87,233.33 434.22,230.36 432.67,228.20 431.36,225.90 430.36,223.44 430.00,222.17 429.75,220.87 429.61,219.55 429.60,218.22 429.71,216.90 429.94,215.59 430.28,214.31 431.26,211.85 432.58,209.55 434.15,207.41 435.91,205.42 437.81,203.57"/>
    </edge>
    <edge id=":108_3" function="internal">
        <lane id=":108_3_0" index="0" disallow="pedestrian tram rail_urban rail rail_electric rail_fast ship" speed="11.04" length="28.76" width="3.50" shape="440.18,206.15 438.52,207.77 437.00,209.47 435.67,211.29 434.57,213.20 433.75,215.24 433.49,216.24 433.30,217.28 433.21,218.33 433.22,219.39 433.33,220.44 433.53,221.48 433.81,222.48 434.64,224.53 435.75,226.46 437.06,228.29 439.36,230.87"/>
    </edge>
    <edge id=":108_4" function="internal">
        <lane id=":108_4_0" index="0" disallow="pedestrian tram rail_urban rail rail_electric rail_fast ship" speed="36.11" length="38.99" width="3.50" shape="440.18,206.15 425.88,219.43 411.87,232.96"/>
    </edge>
    <edge id=":108_5" function="internal">
        <lane id=":108_5_0" index="0" disallow="pedestrian tram rail_urban rail rail_electric rail_fast ship" speed="12.52" length="34.91" width="3.50" shape="440.18,206.15 439.21,207.01 436.24,209.28 434.05,210.62 431.72,211.74 429.24,212.57 426.67,213.05 425.31,213.15 423.97,213.13 422.64,213.01 421.30,212.77 418.80,212.04 416.42,210.97 414.20,209.65 412.14,208.13 409.37,205.62"/>
    </edge>
    <edge id=":108_6" function="internal">
        <lane id=":108_6_0" index="0" disallow="pedestrian tram rail_urban rail rail_electric rail_fast ship" speed="11.54" length="29.49" width="3.50" shape="411.85,203.14 414.26,205.33 416.02,206.63 417.90,207.75 419.89,208.65 421.99,209.26 423.07,209.44 424.16,209.54 425.25,209.56 426.34,209.48 428.49,209.08 430.56,208.38 432.53,207.43 434.39,206.29 436.99,204.29 437.81,203.57"/>
    </edge>
    <edge id=":108_7" function="internal">
        <lane id=":108_7_0" index="0" disallow="pedestrian tram rail_urban rail rail_electric rail_fast ship" speed="36.11" length="39.06" width="3.50" shape="411.85,203.14 425.60,217.00 439.36,230.87"/>
    </edge>
    <edge id=":108_8" function="internal">
        <lane id=":108_8_0" index="0" disallow="pedestrian tram rail_urban rail rail_electric rail_fast ship" speed="12.15" length="34.15" width="3.50" shape="411.85,203.14 413.57,204.99 415.17,206.99 416.60,209.16 417.80,211.50 418.67,213.98 418.98,215.33 419.17,216.68 419.24,218.04 419.18,219.40 419.01,220.75 418.73,222.08 418.33,223.39 417.30,225.81 415.97,228.07 414.43,230.16 411.87,232.96"/>
    </edge>
    <edge id=":108_9" function="internal">
        <lane id=":108_9_0" index="0" disallow="pedestrian tram rail_urban rail rail_electric rail_fast ship" speed="11.14" length="28.52" width="3.50" shape="409.42,230.46 411.63,228.04 412.93,226.27 414.04,224.38 414.90,222.36 415.22,221.31 415.45,220.23 415.59,219.14 415.63,218.04 415.57,216.94 415.42,215.86 415.18,214.78 414.45,212.71 413.44,210.76 412.23,208.93 410.85,207.21 409.37,205.62"/>
    </edge>
    <edge id=":108_10" function="internal">
        <lane id=":108_10_0" index="0" disallow="pedestrian tram rail_urban rail rail_electric rail_fast ship" speed="36.11" length="39.10" width="3.50" shape="409.42,230.46 423.48,216.89 437.81,203.57"/>
    </edge>
    <edge id=":108_11" function="internal">
        <lane id=":108_11_0" index="0" disallow="pedestrian tram rail_urban rail rail_electric rail_fast ship" speed="12.20" length="34.24" width="3.50" shape="409.42,230.46 412.27,227.95 414.39,226.43 416.67,225.14 419.11,224.14 420.43,223.76 421.76,223.49 423.12,223.34 424.48,223.31 425.85,223.39 427.19,223.60 428.51,223.91 429.82,224.33 432.21,225.40 434.46,226.74 436.54,228.30 439.36,230.87"/>
    </edge>
    <edge id=":109_0" function="internal">
        <lane id=":109_0_0" index="0" disallow="pedestrian tram rail_urban rail rail_electric rail_fast ship" speed="36.11" length="63.97" width="3.47" shape="493.05,69.49 455.48,69.11 438.21,69.12 431.11,69.30 429.10,69.51"/>
    </edge>
    <edge id=":109_1" function="internal">
        <lane id=":109_1_0" index="0" disallow="pedestrian tram rail_urban rail rail_electric rail_fast ship" speed="25.78" length="67.63" width="3.50" shape="493.05,69.49 489.85,69.40 484.52,69.02 479.21,68.33 473.94,67.32 468.75,65.97 463.65,64.26 458.69,62.18 453.89,59.74 449.29,56.95 444.91,53.83 440.77,50.39 436.89,46.68 433.28,42.73"/>
    </edge>
    <edge id=":109_2" function="internal">
        <lane id=":109_2_0" index="0" disallow="pedestrian tram rail_urban rail rail_electric rail_fast ship" speed="36.11" length="68.08" width="3.47" shape="491.49,42.26 450.61,60.38 432.86,67.98 429.10,69.51"/>
    </edge>
    <edge id=":109_3" function="internal">
        <lane id=":109_3_0" index="0" disallow="pedestrian tram rail_urban rail rail_electric rail_fast ship" speed="18.59" length="62.32" width="3.50" shape="491.49,42.26 485.39,44.85 479.17,47.18 473.88,48.87 468.49,50.26 464.09,51.12 459.63,51.67 456.23,51.85 452.81,51.78 449.39,51.40 446.00,50.68 442.71,49.56 440.57,48.56 438.54,47.37 436.64,45.99 434.88,44.43 433.28,42.73"/>
    </edge>
    <edge id=":109_4" function="internal">
        <lane id=":109_4_0" index="0" disallow="pedestrian tram rail_urban rail rail_electric rail_fast ship" speed="17.93" length="57.89" width="3.50" shape="435.90,40.42 437.37,41.97 438.95,43.35 440.67,44.57 442.50,45.61 444.42,46.47 447.42,47.44 450.52,48.04 453.66,48.33 456.81,48.35 459.96,48.14 464.13,47.58 468.26,46.74 473.34,45.39 478.35,43.76 484.25,41.54 490.06,39.06"/>
    </edge>
    <edge id=":109_5" function="internal">
        <lane id=":109_5_0" index="0" disallow="pedestrian tram rail_urban rail rail_electric rail_fast ship" speed="25.24" length="64.72" width="3.50" shape="435.90,40.42 439.39,44.23 443.10,47.78 447.05,51.06 451.23,54.04 455.62,56.70 460.20,59.02 464.94,61.00 469.80,62.63 474.77,63.92 479.81,64.88 484.91,65.54 490.03,65.90 493.11,65.99"/>
    </edge>
    <edge id=":109_6" function="internal">
        <lane id=":109_6_0" index="0" disallow="pedestrian tram rail_urban rail rail_electric rail_fast ship" speed="11.49" length="37.84" width="3.47" shape="435.90,40.42 438.61,43.88 440.19,46.32 441.52,48.91 442.05,50.27 442.48,51.66 442.78,53.08 442.92,54.53 442.89,55.98 442.68,57.42 442.27,58.82 441.68,60.14 440.92,61.39 440.03,62.54 439.04,63.60 437.95,64.57 435.60,66.27 433.07,67.72 429.10,69.51"/>
    </edge>
    <edge id=":109_7" function="internal">
        <lane id=":109_7_0" index="0" disallow="pedestrian tram rail_urban rail rail_electric rail_fast ship" speed="10.42" length="30.93" width="3.50" shape="427.76,66.30 431.25,64.71 433.38,63.49 435.36,62.05 436.22,61.28 437.01,60.44 437.70,59.54 438.27,58.60 438.71,57.60 439.02,56.56 439.17,55.49 439.19,54.39 439.08,53.28 438.84,52.16 438.49,51.05 438.06,49.96 436.94,47.77 435.60,45.70 433.28,42.73"/>
    </edge>
    <edge id=":109_8" function="internal">
        <lane id=":109_8_0" index="0" disallow="pedestrian tram rail_urban rail rail_electric rail_fast ship" speed="36.11" length="68.00" width="3.50" shape="427.76,66.30 431.54,64.74 449.24,57.16 490.06,39.06"/>
    </edge>
    <edge id=":109_9" function="internal">
        <lane id=":109_9_0" index="0" disallow="pedestrian tram rail_urban rail rail_electric rail_fast ship" speed="36.11" length="65.39" width="3.50" shape="427.76,66.30 430.36,65.89 437.64,65.67 455.12,65.62 493.11,65.99"/>
    </edge>
    <edge id=":110_0" function="internal">
        <lane id=":110_0_0" index="0" disallow="pedestrian tram rail_urban rail rail_electric rail_fast ship" speed="23.93" length="9.88" width="3.50" shape="306.78,38.78 302.49,37.69 297.13,36.66"/>
    </edge>
    <edge id=":110_1" function="internal">
        <lane id=":110_1_0" index="0" disallow="pedestrian tram rail_urban rail rail_electric rail_fast ship" speed="5.11" length="4.06" width="3.50" shape="308.27,35.72 307.80,35.19 306.28,32.85 306.05,32.34"/>
    </edge>
    <edge id=":111_0" function="internal">
        <lane id=":111_0_0" index="0" disallow="pedestrian tram rail_urban rail rail_electric rail_fast ship" speed="36.11" length="39.41" width="3.50" shape="370.87,113.25 356.73,126.97 342.59,140.70"/>
    </edge>
    <edge id=":111_1" function="internal">
        <lane id=":111_1_0" index="0" disallow="pedestrian tram rail_urban rail rail_electric rail_fast ship" speed="14.22" length="35.53" width="3.50" shape="370.87,113.25 369.97,114.07 368.10,115.54 366.05,116.82 363.86,117.87 361.56,118.64 359.18,119.13 356.78,119.35 354.38,119.31 352.00,119.05 348.57,118.32 345.25,117.25 342.04,115.91 337.98,113.84"/>
    </edge>
    <edge id=":111_2" function="internal">
        <lane id=":111_2_0" index="0" disallow="pedestrian tram rail_urban rail rail_electric rail_fast ship" speed="13.33" length="31.12" width="3.50" shape="339.62,110.75 343.36,112.67 346.23,113.87 349.18,114.84 352.21,115.52 354.27,115.77 356.34,115.83 358.40,115.67 360.43,115.29 362.41,114.65 364.29,113.79 366.05,112.70 367.68,111.42 368.44,110.73"/>
    </edge>
    <edge id=":111_3" function="internal">
        <lane id=":111_3_0" index="0" disallow="pedestrian tram rail_urban rail rail_electric rail_fast ship" speed="11.50" length="37.51" width="3.50" shape="339.62,110.75 342.14,112.27 344.49,113.94 346.66,115.83 347.65,116.88 348.55,118.00 349.35,119.20 350.03,120.47 350.56,121.81 350.92,123.20 351.10,124.63 351.09,126.07 350.92,127.50 350.59,128.90 350.13,130.26 349.55,131.59 348.14,134.09 346.46,136.43 343.61,139.68 342.59,140.70"/>
    </edge>
    <edge id=":111_4" function="internal">
        <lane id=":111_4_0" index="0" disallow="pedestrian tram rail_urban rail rail_electric rail_fast ship" speed="10.45" length="30.70" width="3.50" shape="340.14,138.21 341.01,137.33 343.51,134.49 344.93,132.52 346.13,130.41 346.59,129.36 346.96,128.27 347.23,127.17 347.37,126.08 347.38,124.98 347.25,123.91 346.99,122.86 346.59,121.83 346.08,120.85 345.45,119.90 344.72,119.00 343.93,118.15 342.10,116.54 340.10,115.12 337.98,113.84"/>
    </edge>
    <edge id=":111_5" function="internal">