<routes>
	<vehicle depart="0.1" departLane="0" departPos="9.690001075847315" departSpeed="1.2093372" id="314" type="bicycle">
		<route edges=":63_4 70868"/>
	</vehicle>
	<vehicle depart="0.1" departLane="0" departPos="28.293732874471203" departSpeed="11.581878" id="31" type="passenger">
		<route edges=":63_5 70722 70556"/>
	</vehicle>
	<vehicle depart="0.1" departLane="0" departPos="11.126715579005193" departSpeed="0.0" id="320" type="passenger">
		<route edges=":65_1 70871"/>
	</vehicle>
	<vehicle depart="0.1" departLane="0" departPos="2.5" departSpeed="0.0011225961" id="326" type="passenger">
		<route edges=":65_1 70871"/>
	</vehicle>
	<vehicle depart="0.1" departLane="0" departPos="66.27395959188533" departSpeed="0.012630021" id="342" type="passenger">
		<route edges="70885 70875"/>
	</vehicle>
	<vehicle depart="0.1" departLane="0" departPos="58.70065543922545" departSpeed="0.073260109" id="343" type="passenger">
		<route edges="70885 70875"/>
	</vehicle>
	<vehicle depart="0.1" departLane="0" departPos="19.26955444184649" departSpeed="12.32071" id="345" type="passenger">
		<route edges=":63_4 70868 70831"/>
	</vehicle>
	<vehicle depart="0.1" departLane="0" departPos="19.947133825747958" departSpeed="13.834368" id="348" type="passenger">
		<route edges="70871 70868 70831"/>
	</vehicle>
	<vehicle depart="0.1" departLane="0" departPos="5.48585484394833" departSpeed="0.0" id="350" type="passenger">
		<route edges="71049 70831"/>
	</vehicle>
	<vehicle depart="0.1" departLane="0" departPos="34.91458222080646" departSpeed="10.345019" id="355" type="passenger">
		<route edges=":65_3 70871 70868 70831 70755"/>
	</vehicle>
</routes>
