<!-- generated on Tue Feb  9 22:07:31 2021 by Eclipse SUMO netconvert Version 1.8.0
<configuration xmlns:xsi="http://www.w3.org/2001/XMLSchema-instance" xsi:noNamespaceSchemaLocation="http://sumo.dlr.de/xsd/netconvertConfiguration.xsd">

    <input>
        <node-files value="./converted_scenarios/scenario-factory/FRA_MoissyCramayel-2_2_I-1-1/FRA_MoissyCramayel-2_2_I-1-1.nod.xml"/>
        <edge-files value="./converted_scenarios/scenario-factory/FRA_MoissyCramayel-2_2_I-1-1/FRA_MoissyCramayel-2_2_I-1-1.edg.xml"/>
        <connection-files value="./converted_scenarios/scenario-factory/FRA_MoissyCramayel-2_2_I-1-1/FRA_MoissyCramayel-2_2_I-1-1.con.xml"/>
        <tllogic-files value="./converted_scenarios/scenario-factory/FRA_MoissyCramayel-2_2_I-1-1/FRA_MoissyCramayel-2_2_I-1-1.tll.xml"/>
        <type-files value="/home/zen/commonroad-interactive-benchmarks/install/commonroad-map-tool/crmapconverter/sumo_map/templates/DEU.typ.xml"/>
    </input>

    <output>
        <output-file value="./converted_scenarios/scenario-factory/FRA_MoissyCramayel-2_2_I-1-1/FRA_MoissyCramayel-2_2_I-1-1.net.xml"/>
    </output>

    <processing>
        <geometry.remove.keep-edges.explicit value="true"/>
        <geometry.avoid-overlap value="true"/>
        <offset.disable-normalization value="true"/>
    </processing>

    <junctions>
        <no-turnarounds value="true"/>
        <junctions.internal-link-detail value="20"/>
    </junctions>

    <report>
        <aggregate-warnings value="5"/>
    </report>

    <random_number>
        <seed value="1234"/>
    </random_number>

</configuration>
--><net xmlns:xsi="http://www.w3.org/2001/XMLSchema-instance" version="1.6" junctionCornerDetail="5" junctionLinkDetail="20" limitTurnSpeed="5.50" xsi:noNamespaceSchemaLocation="http://sumo.dlr.de/xsd/net_file.xsd">

    <location netOffset="0.00,0.00" convBoundary="-291.50,-556.27,-76.11,-274.58" origBoundary="-291.50,-556.27,-76.11,-274.58" projParameter="!"/>

    <type id="highway.bridleway" priority="1" speed="2.78" allow="pedestrian" oneway="1" width="2.00"/>
    <type id="highway.bus_guideway" priority="1" speed="27.78" allow="bus" oneway="1"/>
    <type id="highway.cycleway" priority="1" speed="8.33" allow="bicycle" oneway="0" width="1.00"/>
    <type id="highway.footway" priority="1" speed="2.78" allow="pedestrian" oneway="1" width="2.00"/>
    <type id="highway.ford" priority="1" speed="2.78" allow="army" oneway="0"/>
    <type id="highway.living_street" priority="2" speed="2.78" disallow="tram rail_urban rail rail_electric rail_fast ship" oneway="0"/>
    <type id="highway.motorway" priority="14" speed="39.44" allow="private emergency authority army vip passenger hov taxi bus coach delivery truck trailer motorcycle evehicle custom1 custom2" oneway="1"/>
    <type id="highway.motorway_link" priority="9" speed="22.22" allow="private emergency authority army vip passenger hov taxi bus coach delivery truck trailer motorcycle evehicle custom1 custom2" oneway="1"/>
    <type id="highway.path" priority="1" speed="2.78" allow="pedestrian bicycle" oneway="0" width="2.00"/>
    <type id="highway.pedestrian" priority="1" speed="2.78" allow="pedestrian" oneway="1" width="2.00"/>
    <type id="highway.primary" priority="12" speed="27.78" disallow="pedestrian tram rail_urban rail rail_electric rail_fast ship" oneway="0"/>
    <type id="highway.primary_link" priority="7" speed="22.22" disallow="pedestrian tram rail_urban rail rail_electric rail_fast ship" oneway="0"/>
    <type id="highway.raceway" priority="15" speed="83.33" allow="vip" oneway="0"/>
    <type id="highway.residential" priority="3" speed="13.89" disallow="pedestrian tram rail_urban rail rail_electric rail_fast ship" oneway="0"/>
    <type id="highway.secondary" priority="11" speed="27.78" disallow="pedestrian tram rail_urban rail rail_electric rail_fast ship" oneway="0"/>
    <type id="highway.secondary_link" priority="6" speed="22.22" disallow="pedestrian tram rail_urban rail rail_electric rail_fast ship" oneway="0"/>
    <type id="highway.service" priority="1" speed="5.56" allow="pedestrian delivery bicycle" oneway="0"/>
    <type id="highway.stairs" priority="1" speed="1.39" allow="pedestrian" oneway="1" width="2.00"/>
    <type id="highway.step" priority="1" speed="1.39" allow="pedestrian" oneway="1" width="2.00"/>
    <type id="highway.steps" priority="1" speed="1.39" allow="pedestrian" oneway="1" width="2.00"/>
    <type id="highway.tertiary" priority="10" speed="22.22" disallow="pedestrian tram rail_urban rail rail_electric rail_fast ship" oneway="0"/>
    <type id="highway.tertiary_link" priority="5" speed="22.22" disallow="pedestrian tram rail_urban rail rail_electric rail_fast ship" oneway="0"/>
    <type id="highway.track" priority="1" speed="5.56" allow="pedestrian motorcycle moped bicycle" oneway="0"/>
    <type id="highway.trunk" priority="13" speed="27.78" disallow="pedestrian bicycle tram rail_urban rail rail_electric rail_fast ship" oneway="0"/>
    <type id="highway.trunk_link" priority="8" speed="22.22" disallow="pedestrian bicycle tram rail_urban rail rail_electric rail_fast ship" oneway="0"/>
    <type id="highway.unclassified" priority="4" speed="13.89" disallow="pedestrian tram rail_urban rail rail_electric rail_fast ship" oneway="0"/>
    <type id="highway.unsurfaced" priority="1" speed="8.33" disallow="tram rail_urban rail rail_electric rail_fast ship" oneway="0"/>
    <type id="railway.highspeed" priority="21" speed="69.44" allow="rail_fast" oneway="1"/>
    <type id="railway.light_rail" priority="19" speed="27.78" allow="rail_urban" oneway="1"/>
    <type id="railway.preserved" priority="16" speed="27.78" allow="rail" oneway="1"/>
    <type id="railway.rail" priority="20" speed="44.44" allow="rail" oneway="1"/>
    <type id="railway.subway" priority="18" speed="27.78" allow="rail_urban" oneway="1"/>
    <type id="railway.tram" priority="17" speed="13.89" allow="tram" oneway="1"/>

    <edge id=":31_0" function="internal">
        <lane id=":31_0_0" index="0" disallow="pedestrian tram rail_urban rail rail_electric rail_fast ship" speed="36.11" length="2.99" width="3.50" shape="-224.00,-415.34 -226.84,-414.40"/>
    </edge>
    <edge id=":63_0" function="internal">
        <lane id=":63_0_0" index="0" disallow="pedestrian tram rail_urban rail rail_electric rail_fast ship" speed="10.91" length="29.06" width="3.50" shape="-177.92,-377.89 -181.08,-378.99 -183.25,-379.50 -185.47,-379.78 -187.71,-379.76 -188.81,-379.62 -189.91,-379.39 -190.97,-379.06 -192.00,-378.62 -192.99,-378.09 -193.92,-377.46 -194.78,-376.76 -195.59,-375.98 -197.01,-374.26 -198.21,-372.37 -199.20,-370.37 -200.40,-367.23"/>
    </edge>
    <edge id=":63_1" function="internal">
        <lane id=":63_1_0" index="0" disallow="pedestrian tram rail_urban rail rail_electric rail_fast ship" speed="12.27" length="32.80" width="3.50" shape="-177.92,-377.89 -181.49,-379.53 -183.77,-380.82 -185.94,-382.30 -187.95,-383.99 -189.73,-385.91 -190.51,-386.97 -191.21,-388.08 -191.81,-389.25 -192.30,-390.47 -192.69,-391.72 -192.97,-393.00 -193.14,-394.30 -193.17,-396.93 -192.85,-399.53 -192.23,-402.08 -191.83,-403.34"/>
    </edge>
    <edge id=":63_2" function="internal">
        <lane id=":63_2_0" index="0" disallow="pedestrian tram rail_urban rail rail_electric rail_fast ship" speed="11.25" length="27.45" width="3.50" shape="-188.52,-402.21 -188.86,-401.15 -189.38,-398.97 -189.64,-396.81 -189.60,-394.63 -189.45,-393.61 -189.22,-392.58 -188.90,-391.58 -188.49,-390.61 -187.99,-389.68 -187.42,-388.78 -186.79,-387.95 -185.28,-386.34 -183.58,-384.93 -181.71,-383.67 -179.74,-382.57 -176.59,-381.13"/>
    </edge>
    <edge id=":63_3" function="internal">
        <lane id=":63_3_0" index="0" disallow="pedestrian tram rail_urban rail rail_electric rail_fast ship" speed="36.11" length="36.94" width="3.50" shape="-188.52,-402.21 -194.18,-385.69 -200.40,-367.23"/>
    </edge>
    <edge id=":63_4" function="internal">
        <lane id=":63_4_0" index="0" disallow="pedestrian tram rail_urban rail rail_electric rail_fast ship" speed="36.11" length="37.00" width="3.50" shape="-203.73,-368.31 -197.49,-386.81 -191.83,-403.34"/>
    </edge>
    <edge id=":63_5" function="internal">
        <lane id=":63_5_0" index="0" disallow="pedestrian tram rail_urban rail rail_electric rail_fast ship" speed="11.93" length="34.94" width="3.50" shape="-203.73,-368.31 -202.35,-371.93 -201.17,-374.30 -199.74,-376.55 -198.03,-378.61 -197.02,-379.59 -195.95,-380.46 -194.79,-381.24 -193.55,-381.90 -192.26,-382.45 -190.93,-382.86 -189.57,-383.15 -188.17,-383.33 -185.48,-383.34 -182.83,-383.01 -180.25,-382.40 -176.59,-381.13"/>
    </edge>
    <edge id=":64_0" function="internal">
        <lane id=":64_0_0" index="0" disallow="pedestrian tram rail_urban rail rail_electric rail_fast ship" speed="36.11" length="43.57" width="3.50" shape="-191.75,-403.56 -187.52,-416.32 -181.67,-434.04 -177.73,-444.81"/>
    </edge>
    <edge id=":64_1" function="internal">
        <lane id=":64_1_0" index="0" disallow="pedestrian tram rail_urban rail rail_electric rail_fast ship" speed="36.11" length="43.40" width="3.50" shape="-174.48,-443.52 -178.38,-432.85 -184.21,-415.19 -188.44,-402.43"/>
    </edge>
    <edge id=":64_2" function="internal">
        <lane id=":64_2_0" index="0" disallow="pedestrian tram rail_urban rail rail_electric rail_fast ship" speed="19.14" length="40.10" width="3.50" shape="-174.48,-443.52 -175.86,-440.48 -177.59,-437.62 -179.62,-434.97 -181.92,-432.54 -184.42,-430.33 -187.10,-428.33 -190.87,-425.96 -194.82,-423.89 -199.94,-421.68 -205.19,-419.82"/>
    </edge>
    <edge id=":64_3" function="internal">
        <lane id=":64_3_0" index="0" disallow="pedestrian tram rail_urban rail rail_electric rail_fast ship" speed="18.40" length="37.05" width="3.50" shape="-206.29,-423.14 -201.31,-424.90 -196.50,-426.97 -192.81,-428.88 -189.29,-431.06 -186.82,-432.89 -184.51,-434.90 -182.41,-437.10 -180.56,-439.48 -178.99,-442.05 -177.73,-444.81"/>
    </edge>
    <edge id=":65_0" function="internal">
        <lane id=":65_0_0" index="0" disallow="pedestrian tram rail_urban rail rail_electric rail_fast ship" speed="8.42" length="16.37" width="3.50" shape="-209.82,-319.89 -210.68,-319.60 -212.25,-318.76 -213.68,-317.69 -215.34,-315.99 -216.74,-314.07 -218.18,-311.47 -219.53,-308.16 -219.72,-307.59"/>
    </edge>
    <edge id=":65_1" function="internal">
        <lane id=":65_1_0" index="0" disallow="pedestrian tram rail_urban rail rail_electric rail_fast ship" speed="9.73" length="20.07" width="3.50" shape="-207.76,-324.87 -208.94,-326.03 -210.36,-327.84 -211.50,-329.84 -212.33,-331.98 -212.82,-334.23 -212.98,-336.53 -212.83,-338.83 -212.29,-341.65 -211.81,-343.31"/>
    </edge>
    <edge id=":65_2" function="internal">
        <lane id=":65_2_0" index="0" disallow="pedestrian tram rail_urban rail rail_electric rail_fast ship" speed="36.11" length="36.43" width="3.50" shape="-208.48,-342.24 -214.10,-324.92 -219.72,-307.59"/>
    </edge>
    <edge id=":65_3" function="internal">
        <lane id=":65_3_0" index="0" disallow="pedestrian tram rail_urban rail rail_electric rail_fast ship" speed="36.11" length="36.38" width="3.50" shape="-223.04,-308.71 -217.43,-326.00 -211.81,-343.31"/>
    </edge>
    <edge id=":66_0" function="internal">
        <lane id=":66_0_0" index="0" disallow="pedestrian tram rail_urban rail rail_electric rail_fast ship" speed="36.11" length="39.07" width="3.50" shape="-128.88,-357.62 -129.82,-357.98 -148.93,-365.60 -165.04,-372.41"/>
    </edge>
    <edge id=":66_1" function="internal">
        <lane id=":66_1_0" index="0" disallow="pedestrian tram rail_urban rail rail_electric rail_fast ship" speed="12.27" length="34.79" width="3.50" shape="-128.88,-357.62 -132.26,-359.14 -134.48,-360.41 -136.56,-361.91 -138.48,-363.68 -140.12,-365.70 -140.86,-366.85 -141.47,-368.04 -141.98,-369.27 -142.39,-370.54 -142.69,-371.87 -142.98,-374.45 -142.92,-377.04 -142.57,-379.57 -141.98,-382.05 -140.79,-385.58"/>
    </edge>
    <edge id=":66_2" function="internal">
        <lane id=":66_2_0" index="0" disallow="pedestrian tram rail_urban rail rail_electric rail_fast ship" speed="11.28" length="29.22" width="3.50" shape="-137.53,-384.30 -138.57,-381.22 -139.07,-379.12 -139.37,-376.97 -139.43,-374.81 -139.19,-372.66 -138.95,-371.60 -138.62,-370.57 -138.21,-369.57 -137.71,-368.61 -137.13,-367.69 -135.77,-366.01 -134.18,-364.54 -132.42,-363.28 -130.55,-362.20 -127.59,-360.87"/>
    </edge>
    <edge id=":66_3" function="internal">
        <lane id=":66_3_0" index="0" disallow="pedestrian tram rail_urban rail rail_electric rail_fast ship" speed="12.18" length="34.69" width="3.50" shape="-137.53,-384.30 -139.18,-380.65 -140.50,-378.33 -142.05,-376.16 -143.85,-374.19 -144.85,-373.31 -145.92,-372.51 -147.06,-371.80 -148.25,-371.20 -149.49,-370.71 -150.77,-370.34 -152.08,-370.09 -153.41,-369.94 -156.08,-369.97 -158.72,-370.35 -161.30,-371.01 -163.82,-371.90 -165.04,-372.41"/>
    </edge>
    <edge id=":66_4" function="internal">
        <lane id=":66_4_0" index="0" disallow="pedestrian tram rail_urban rail rail_electric rail_fast ship" speed="11.17" length="28.99" width="3.50" shape="-163.67,-375.63 -162.60,-375.18 -160.41,-374.41 -158.21,-373.84 -156.00,-373.53 -153.78,-373.51 -152.74,-373.63 -151.69,-373.83 -150.67,-374.13 -149.68,-374.52 -148.73,-375.00 -147.83,-375.57 -146.97,-376.22 -146.17,-376.92 -144.66,-378.58 -143.35,-380.42 -142.22,-382.39 -140.79,-385.58"/>
    </edge>
    <edge id=":66_5" function="internal">
        <lane id=":66_5_0" index="0" disallow="pedestrian tram rail_urban rail rail_electric rail_fast ship" speed="36.11" length="38.98" width="3.50" shape="-163.67,-375.63 -147.59,-368.84 -128.54,-361.24 -127.59,-360.87"/>
    </edge>
    <edge id=":67_0" function="internal">
        <lane id=":67_0_0" index="0" disallow="pedestrian tram rail_urban rail rail_electric rail_fast ship" speed="36.11" length="38.28" width="3.50" shape="-85.46,-446.15 -87.70,-443.85 -92.98,-438.82 -107.68,-425.84 -113.62,-420.24"/>
    </edge>
    <edge id=":67_1" function="internal">
        <lane id=":67_1_0" index="0" disallow="pedestrian tram rail_urban rail rail_electric rail_fast ship" speed="12.16" length="35.27" width="3.50" shape="-85.46,-446.15 -87.37,-444.28 -89.39,-442.63 -91.57,-441.20 -93.92,-440.07 -95.15,-439.63 -96.41,-439.30 -97.70,-439.08 -99.00,-438.97 -100.30,-438.98 -101.60,-439.10 -102.88,-439.34 -105.38,-440.09 -107.75,-441.18 -109.98,-442.52 -112.09,-444.06 -115.02,-446.65 -115.95,-447.56"/>
    </edge>
    <edge id=":67_2" function="internal">
        <lane id=":67_2_0" index="0" disallow="pedestrian tram rail_urban rail rail_electric rail_fast ship" speed="11.17" length="29.53" width="3.50" shape="-113.46,-450.02 -112.66,-449.23 -110.06,-446.94 -108.26,-445.61 -106.36,-444.46 -104.38,-443.54 -102.31,-442.89 -101.30,-442.70 -100.26,-442.60 -99.22,-442.58 -98.18,-442.66 -97.15,-442.82 -96.14,-443.08 -95.17,-443.41 -93.20,-444.35 -91.37,-445.54 -89.65,-446.95 -88.02,-448.53"/>
    </edge>
    <edge id=":67_3" function="internal">
        <lane id=":67_3_0" index="0" disallow="pedestrian tram rail_urban rail rail_electric rail_fast ship" speed="12.18" length="34.03" width="3.50" shape="-113.46,-450.02 -111.74,-448.15 -110.16,-446.14 -108.76,-443.97 -107.59,-441.61 -106.75,-439.12 -106.46,-437.78 -106.29,-436.43 -106.24,-435.08 -106.31,-433.72 -106.49,-432.38 -106.79,-431.07 -107.19,-429.76 -108.23,-427.36 -109.55,-425.12 -111.09,-423.03 -113.62,-420.24"/>
    </edge>
    <edge id=":67_4" function="internal">
        <lane id=":67_4_0" index="0" disallow="pedestrian tram rail_urban rail rail_electric rail_fast ship" speed="11.18" length="28.48" width="3.50" shape="-116.10,-422.71 -113.89,-425.14 -112.59,-426.90 -111.48,-428.79 -110.61,-430.80 -110.29,-431.85 -110.05,-432.92 -109.90,-434.00 -109.84,-435.10 -109.89,-436.19 -110.02,-437.28 -110.25,-438.35 -110.95,-440.43 -111.92,-442.39 -113.11,-444.23 -114.47,-445.95 -115.95,-447.56"/>
    </edge>
    <edge id=":67_5" function="internal">
        <lane id=":67_5_0" index="0" disallow="pedestrian tram rail_urban rail rail_electric rail_fast ship" speed="36.11" length="38.16" width="3.50" shape="-116.10,-422.71 -110.10,-428.37 -95.42,-441.32 -90.20,-446.30 -88.02,-448.53"/>
    </edge>
    <edge id=":68_0" function="internal">
        <lane id=":68_0_0" index="0" disallow="pedestrian tram rail_urban rail rail_electric rail_fast ship" speed="36.11" length="48.18" width="3.50" shape="-144.02,-486.70 -147.78,-483.19 -152.81,-478.04 -156.87,-473.42 -160.68,-468.60 -164.22,-463.58 -167.46,-458.36 -170.37,-452.95 -172.53,-448.32"/>
    </edge>
    <edge id=":68_1" function="internal">
        <lane id=":68_1_0" index="0" disallow="pedestrian tram rail_urban rail rail_electric rail_fast ship" speed="31.43" length="39.14" width="3.50" shape="-144.02,-486.70 -147.27,-483.98 -150.69,-481.49 -155.18,-478.69 -159.86,-476.24 -164.69,-474.10 -169.65,-472.25 -175.71,-470.39 -178.79,-469.59"/>
    </edge>
    <edge id=":68_2" function="internal">
        <lane id=":68_2_0" index="0" disallow="pedestrian tram rail_urban rail rail_electric rail_fast ship" speed="30.69" length="37.44" width="3.50" shape="-179.63,-472.99 -176.68,-473.76 -170.83,-475.55 -166.08,-477.31 -161.45,-479.36 -156.97,-481.70 -152.69,-484.36 -149.45,-486.72 -146.35,-489.31"/>
    </edge>
    <edge id=":68_3" function="internal">
        <lane id=":68_3_0" index="0" disallow="pedestrian tram rail_urban rail rail_electric rail_fast ship" speed="36.11" length="49.77" width="3.50" shape="-175.77,-449.64 -173.50,-454.51 -170.50,-460.09 -167.16,-465.48 -163.51,-470.66 -159.58,-475.64 -155.40,-480.40 -150.23,-485.69 -146.35,-489.31"/>
    </edge>
    <edge id=":69_0" function="internal">
        <lane id=":69_0_0" index="0" disallow="pedestrian tram rail_urban rail rail_electric rail_fast ship" speed="36.11" length="9.28" width="3.48" shape="-229.52,-285.29 -229.87,-284.70 -230.20,-284.16 -230.50,-283.68 -230.78,-283.25 -231.04,-282.86 -231.28,-282.49 -231.50,-282.16 -231.71,-281.83 -231.92,-281.52 -232.11,-281.21 -232.30,-280.89 -232.49,-280.55 -232.68,-280.20 -232.87,-279.81 -233.06,-279.39 -233.26,-278.92 -233.47,-278.40 -233.70,-277.82 -233.94,-277.17"/>
    </edge>
    <edge id=":69_1" function="internal">
        <lane id=":69_1_0" index="0" disallow="pedestrian tram rail_urban rail rail_electric rail_fast ship" speed="11.44" length="9.23" width="3.50" shape="-238.64,-280.34 -238.05,-280.74 -236.08,-282.52 -234.33,-284.52 -232.49,-287.14"/>
    </edge>
    <edge id=":71_0" function="internal">
        <lane id=":71_0_0" index="0" disallow="pedestrian tram rail_urban rail rail_electric rail_fast ship" speed="36.11" length="29.06" width="3.50" shape="-179.04,-469.53 -187.07,-467.48 -207.10,-461.99"/>
    </edge>
    <edge id=":71_1" function="internal">
        <lane id=":71_1_0" index="0" disallow="pedestrian tram rail_urban rail rail_electric rail_fast ship" speed="11.25" length="26.63" width="3.50" shape="-179.04,-469.53 -180.43,-469.31 -181.89,-469.32 -183.32,-469.59 -184.66,-470.09 -185.88,-470.76 -186.96,-471.54 -187.96,-472.43 -189.62,-474.30 -191.04,-476.33 -192.80,-479.47 -194.29,-482.71 -195.97,-487.07"/>
    </edge>
    <edge id=":71_2" function="internal">
        <lane id=":71_2_0" index="0" disallow="pedestrian tram rail_urban rail rail_electric rail_fast ship" speed="10.11" length="21.50" width="3.50" shape="-192.66,-488.22 -191.22,-484.41 -189.97,-481.59 -188.53,-478.87 -187.43,-477.14 -186.16,-475.53 -185.45,-474.80 -184.67,-474.13 -183.82,-473.56 -182.89,-473.12 -181.90,-472.85 -180.88,-472.78 -179.87,-472.93"/>
    </edge>
    <edge id=":71_3" function="internal">
        <lane id=":71_3_0" index="0" disallow="pedestrian tram rail_urban rail rail_electric rail_fast ship" speed="12.03" length="34.73" width="3.50" shape="-192.66,-488.22 -191.90,-485.77 -191.34,-483.22 -191.03,-480.58 -191.04,-477.92 -191.21,-476.53 -191.49,-475.18 -191.88,-473.85 -192.41,-472.56 -193.05,-471.33 -193.81,-470.16 -194.66,-469.07 -195.60,-468.07 -196.63,-467.13 -198.77,-465.57 -201.07,-464.27 -203.47,-463.21 -207.10,-461.99"/>
    </edge>
    <edge id=":71_4" function="internal">
        <lane id=":71_4_0" index="0" disallow="pedestrian tram rail_urban rail rail_electric rail_fast ship" speed="11.01" length="28.93" width="3.50" shape="-208.07,-465.36 -204.90,-466.41 -202.86,-467.31 -200.92,-468.40 -199.12,-469.71 -198.29,-470.46 -197.53,-471.27 -196.84,-472.14 -196.23,-473.07 -195.71,-474.06 -195.28,-475.09 -194.96,-476.15 -194.73,-477.24 -194.60,-478.35 -194.57,-480.58 -194.83,-482.79 -195.31,-484.96 -195.97,-487.07"/>
    </edge>
    <edge id=":71_5" function="internal">
        <lane id=":71_5_0" index="0" disallow="pedestrian tram rail_urban rail rail_electric rail_fast ship" speed="36.11" length="29.20" width="3.50" shape="-208.07,-465.36 -187.95,-470.87 -179.87,-472.93"/>
    </edge>

    <edge id="70553" from="67" to="40" priority="3" type="highway.residential" spreadType="center" length="37.90" shape="-107.00,-439.99 -82.00,-484.84">
        <lane id="70553_0" index="0" disallow="pedestrian tram rail_urban rail rail_electric rail_fast ship" speed="36.11" length="37.90" width="3.50" customShape="1" shape="-88.02,-448.53 -87.37,-449.24 -85.51,-451.54 -83.96,-454.05 -83.19,-455.86 -82.73,-457.78 -82.47,-460.23 -81.97,-469.09 -81.83,-475.98 -82.00,-484.84"/>
    </edge>
    <edge id="70554" from="58" to="67" priority="3" type="highway.residential" spreadType="center" length="40.68" shape="-78.50,-484.94 -103.93,-438.30">
        <lane id="70554_0" index="0" disallow="pedestrian tram rail_urban rail rail_electric rail_fast ship" speed="36.11" length="40.68" width="3.50" customShape="1" shape="-78.50,-484.94 -78.33,-475.71 -78.49,-468.49 -79.05,-459.19 -79.43,-456.51 -80.04,-454.31 -80.98,-452.22 -82.73,-449.43 -84.75,-446.91 -85.50,-446.10"/>
    </edge>
    <edge id="70556" from="66" to="67" priority="3" type="highway.residential" spreadType="center" length="45.46" shape="-145.43,-373.61 -106.93,-440.10">
        <lane id="70556_0" index="0" disallow="pedestrian tram rail_urban rail rail_electric rail_fast ship" speed="36.11" length="45.46" width="3.50" customShape="1" shape="-140.79,-385.58 -136.55,-396.12 -133.44,-403.78 -132.27,-406.07 -131.10,-407.78 -129.40,-409.72 -126.00,-412.89 -116.09,-422.72"/>
    </edge>
    <edge id="70557" from="67" to="66" priority="3" type="highway.residential" spreadType="center" length="44.03" shape="-103.91,-438.35 -142.40,-371.86">
        <lane id="70557_0" index="0" disallow="pedestrian tram rail_urban rail rail_electric rail_fast ship" speed="36.11" length="44.03" width="3.50" customShape="1" shape="-113.62,-420.24 -123.39,-410.53 -126.71,-407.46 -128.27,-405.72 -129.29,-404.24 -130.34,-402.12 -133.37,-394.66 -137.54,-384.28"/>
    </edge>
    <edge id="70676" from="31" to="32" priority="3" type="highway.residential" spreadType="center" length="68.50">
        <lane id="70676_0" index="0" disallow="pedestrian tram rail_urban rail rail_electric rail_fast ship" speed="36.11" length="68.50" width="3.50" customShape="1" shape="-226.84,-414.40 -242.02,-408.99 -270.44,-398.75 -285.70,-393.60 -291.50,-391.82"/>
    </edge>
    <edge id="70719" from="66" to="16" priority="3" type="highway.residential" spreadType="center" length="70.00" shape="-142.81,-374.09 -76.11,-317.61">
        <lane id="70719_0" index="0" disallow="pedestrian tram rail_urban rail rail_electric rail_fast ship" speed="36.11" length="70.00" width="3.50" customShape="1" shape="-127.59,-360.87 -121.28,-358.36 -113.16,-354.82 -106.14,-351.35 -103.02,-349.45 -100.11,-347.26 -92.78,-341.39 -88.12,-337.21 -84.48,-333.47 -81.48,-329.87 -78.78,-326.03 -77.20,-323.32 -76.68,-321.85 -76.38,-320.31 -76.11,-317.61"/>
    </edge>
    <edge id="70720" from="29" to="66" priority="3" type="highway.residential" spreadType="center" length="69.99" shape="-79.32,-313.46 -145.09,-371.45">
        <lane id="70720_0" index="0" disallow="pedestrian tram rail_urban rail rail_electric rail_fast ship" speed="36.11" length="69.99" width="3.48" customShape="1" shape="-79.32,-313.46 -79.37,-315.00 -79.85,-319.87 -80.09,-321.08 -80.60,-322.28 -82.07,-324.67 -84.65,-328.25 -87.52,-331.61 -91.00,-335.12 -95.48,-339.09 -102.54,-344.72 -105.29,-346.76 -108.22,-348.49 -114.94,-351.78 -122.77,-355.19 -128.88,-357.62"/>
    </edge>
    <edge id="70722" from="63" to="66" priority="3" type="highway.residential" spreadType="center" length="14.05" shape="-189.43,-385.06 -143.46,-374.42">
        <lane id="70722_0" index="0" disallow="pedestrian tram rail_urban rail rail_electric rail_fast ship" speed="36.11" length="14.05" width="3.50" customShape="1" shape="-176.59,-381.13 -170.12,-378.37 -163.66,-375.63"/>
    </edge>
    <edge id="70723" from="66" to="63" priority="3" type="highway.residential" spreadType="center" length="14.04" shape="-144.25,-371.02 -190.22,-381.65">
        <lane id="70723_0" index="0" disallow="pedestrian tram rail_urban rail rail_electric rail_fast ship" speed="36.11" length="14.04" width="3.50" customShape="1" shape="-165.04,-372.41 -171.49,-375.15 -177.96,-377.91"/>
    </edge>
    <edge id="70755" from="68" to="44" priority="3" type="highway.residential" spreadType="center" length="12.00" shape="-167.38,-470.70 -137.21,-497.09">
        <lane id="70755_0" index="0" disallow="pedestrian tram rail_urban rail rail_electric rail_fast ship" speed="36.11" length="12.00" width="3.50" customShape="1" shape="-146.35,-489.31 -143.23,-492.06 -137.21,-497.09"/>
    </edge>
    <edge id="70756" from="60" to="68" priority="3" type="highway.residential" spreadType="center" length="11.86" shape="-135.01,-494.37 -165.08,-468.07">
        <lane id="70756_0" index="0" disallow="pedestrian tram rail_urban rail rail_electric rail_fast ship" speed="36.11" length="11.86" width="3.50" customShape="1" shape="-135.01,-494.37 -140.95,-489.41 -144.04,-486.69"/>
    </edge>
    <edge id="70831" from="64" to="68" priority="3" type="highway.residential" spreadType="center" length="5.29" shape="-192.20,-423.69 -167.70,-470.30">
        <lane id="70831_0" index="0" disallow="pedestrian tram rail_urban rail rail_electric rail_fast ship" speed="36.11" length="5.29" width="3.50" customShape="1" shape="-177.73,-444.81 -176.74,-447.25 -175.73,-449.71"/>
    </edge>
    <edge id="70832" from="68" to="64" priority="3" type="highway.residential" spreadType="center" length="5.21" shape="-164.60,-468.68 -189.10,-422.07">
        <lane id="70832_0" index="0" disallow="pedestrian tram rail_urban rail rail_electric rail_fast ship" speed="36.11" length="5.21" width="3.50" customShape="1" shape="-172.53,-448.32 -173.50,-445.93 -174.49,-443.49"/>
    </edge>
    <edge id="70845" from="59" to="69" priority="3" type="highway.residential" spreadType="center" length="9.82">
        <lane id="70845_0" index="0" disallow="pedestrian tram rail_urban rail rail_electric rail_fast ship" speed="36.11" length="9.82" width="3.28" customShape="1" shape="-247.53,-276.12 -242.89,-277.98 -242.76,-278.03 -238.41,-279.76"/>
    </edge>
    <edge id="70868" from="63" to="64" priority="3" type="highway.residential" spreadType="center" length="0.24" shape="-191.58,-383.32 -192.40,-422.92">
        <lane id="70868_0" index="0" disallow="pedestrian tram rail_urban rail rail_electric rail_fast ship" speed="36.11" length="0.24" width="3.50" customShape="1" shape="-191.83,-403.34 -191.79,-403.45 -191.75,-403.57"/>
    </edge>
    <edge id="70869" from="64" to="63" priority="3" type="highway.residential" spreadType="center" length="0.24" shape="-188.90,-422.99 -188.08,-383.39">
        <lane id="70869_0" index="0" disallow="pedestrian tram rail_urban rail rail_electric rail_fast ship" speed="36.11" length="0.24" width="3.50" customShape="1" shape="-188.44,-402.43 -188.48,-402.32 -188.52,-402.20"/>
    </edge>
    <edge id="70871" from="65" to="63" priority="3" type="highway.residential" spreadType="center" length="26.30" shape="-213.86,-324.70 -191.47,-383.97">
        <lane id="70871_0" index="0" disallow="pedestrian tram rail_urban rail rail_electric rail_fast ship" speed="36.11" length="26.30" width="3.50" customShape="1" shape="-211.81,-343.31 -207.77,-355.81 -203.72,-368.34"/>
    </edge>
    <edge id="70872" from="63" to="65" priority="3" type="highway.residential" spreadType="center" length="26.27" shape="-188.19,-382.74 -210.59,-323.47">
        <lane id="70872_0" index="0" disallow="pedestrian tram rail_urban rail rail_electric rail_fast ship" speed="36.11" length="26.27" width="3.50" customShape="1" shape="-200.40,-367.23 -204.44,-354.74 -208.48,-342.23"/>
    </edge>
    <edge id="70874" from="69" to="65" priority="3" type="highway.residential" spreadType="center" length="23.66" shape="-236.44,-284.30 -213.73,-324.98">
        <lane id="70874_0" index="0" disallow="pedestrian tram rail_urban rail rail_electric rail_fast ship" speed="36.11" length="23.66" width="3.50" customShape="1" shape="-232.49,-287.14 -230.46,-290.60 -228.24,-295.10 -225.73,-301.14 -223.02,-308.76"/>
    </edge>
    <edge id="70875" from="65" to="69" priority="3" type="highway.residential" spreadType="center" length="24.41" shape="-210.68,-323.28 -233.39,-282.59">
        <lane id="70875_0" index="0" disallow="pedestrian tram rail_urban rail rail_electric rail_fast ship" speed="36.11" length="24.41" width="3.50" customShape="1" shape="-219.72,-307.59 -222.49,-299.82 -225.08,-293.59 -227.40,-288.90 -229.52,-285.29"/>
    </edge>
    <edge id="70885" from="30" to="65" priority="3" type="highway.residential" spreadType="center" length="81.36">
        <lane id="70885_0" index="0" disallow="pedestrian tram rail_urban rail rail_electric rail_fast ship" speed="36.11" length="81.36" width="3.50" customShape="1" shape="-133.34,-291.92 -152.10,-299.72 -208.46,-323.17"/>
    </edge>