<routes>
	<vehicle depart="0.1" departLane="0" departPos="10.918419430072468" departSpeed="0.81966057" id="314" type="bicycle">
		<route edges=":63_4 70868"/>
	</vehicle>
	<vehicle depart="0.1" departLane="0" departPos="30.12906193429023" departSpeed="16.306618" id="357" type="passenger">
		<route edges=":63_1 70868 70831 70755"/>
	</vehicle>
	<vehicle depart="0.1" departLane="0" departPos="27.174742652239175" departSpeed="7.7352084" id="364" type="passenger">
		<route edges="70871 70868"/>
	</vehicle>
	<vehicle depart="0.1" departLane="0" departPos="2.5" departSpeed="10.882029" id="370" type="passenger">
		<route edges="70871 70868 70831 70755"/>
	</vehicle>
	<vehicle depart="0.1" departLane="0" departPos="5.135475527386252" departSpeed="0.0" id="375" type="passenger">
		<route edges="71049 70831"/>
	</vehicle>
</routes>
