<routes>
	<vehicle depart="0.1" departLane="1" departPos="101.3672105463541" departSpeed="12.253061" id="1" type="passenger">
		<route edges="26 28 24"/>
	</vehicle>
	<vehicle depart="0.1" departLane="0" departPos="0" departSpeed="13.285897" id="2" type="passenger">
		<route edges="26 26 28 24"/>
	</vehicle>
	<vehicle depart="0.1" departLane="0" departPos="105.11706121778823" departSpeed="4.4908004" id="3" type="passenger">
		<route edges="26 27 24"/>
	</vehicle>
</routes>
