<routes>
	<vehicle depart="0.1" departLane="0" departPos="58.41751379818147" departSpeed="1.3404611" id="325" type="bicycle">
		<route edges="648 612"/>
	</vehicle>
	<vehicle depart="0.1" departLane="0" departPos="11.746987402428687" departSpeed="5.3118389" id="359" type="bus">
		<route edges=":29_1 612"/>
	</vehicle>
	<vehicle depart="0.1" departLane="0" departPos="57.801309637867966" departSpeed="2.5137834" id="38" type="passenger">
		<route edges="648 612"/>
	</vehicle>
	<vehicle depart="0.1" departLane="0" departPos="65.83424691407465" departSpeed="1.1819354" id="333" type="passenger">
		<route edges="648 612 609"/>
	</vehicle>
	<vehicle depart="0.1" departLane="0" departPos="42.877057684287436" departSpeed="1.3817698" id="340" type="passenger">
		<route edges="648 612"/>
	</vehicle>
	<vehicle depart="0.1" departLane="0" departPos="37.12948004407683" departSpeed="1.104812" id="348" type="passenger">
		<route edges="648 612"/>
	</vehicle>
	<vehicle depart="0.1" departLane="0" departPos="28.33227446096554" departSpeed="9.9586134" id="357" type="passenger">
		<route edges=":29_1 612 609"/>
	</vehicle>
	<vehicle depart="0.1" departLane="0" departPos="30.277764620101493" departSpeed="5.2826399" id="360" type="passenger">
		<route edges="591 649"/>
	</vehicle>
</routes>
