<!-- generated on 2020-12-18 17:09:41.539024 by ipykernel_launcher.py v1_2_0+5214-53edc58fcd
-->
<nodes>
	<node id="1" type="from" x="0.0" y="17.1"/>
	<node id="2" type="to" x="40.0" y="17.1"/>
	<node id="3" type="from" x="0.0" y="20.1"/>
	<node id="4" type="to" x="40.0" y="20.1"/>
	<node id="5" type="from" x="40.0" y="23.1"/>
	<node id="6" type="to" x="0.0" y="23.1"/>
	<node id="7" type="from" x="40.0" y="26.1"/>
	<node id="8" type="to" x="0.0" y="26.1"/>
</nodes>
