<?xml version="1.0" encoding="UTF-8"?>

<!-- generated on Fri Dec 18 17:09:41 2020 by Eclipse SUMO netconvert Version 1.8.0
<configuration xmlns:xsi="http://www.w3.org/2001/XMLSchema-instance" xsi:noNamespaceSchemaLocation="http://sumo.dlr.de/xsd/netconvertConfiguration.xsd">

    <input>
        <node-files value="./converted_scenarios/THI-Bicycle/RUS_Bicycle-3_2_I-1-1/nodes.net.xml"/>
        <edge-files value="./converted_scenarios/THI-Bicycle/RUS_Bicycle-3_2_I-1-1/edges.net.xml"/>
        <connection-files value="./converted_scenarios/THI-Bicycle/RUS_Bicycle-3_2_I-1-1/_connections.net.xml"/>
        <tllogic-files value="./converted_scenarios/THI-Bicycle/RUS_Bicycle-3_2_I-1-1/_tll.net.xml"/>
    </input>

    <output>
        <output-file value="./converted_scenarios/THI-Bicycle/RUS_Bicycle-3_2_I-1-1/RUS_Bicycle-3_2_I-1-1.net.xml"/>
    </output>

    <processing>
        <plain.extend-edge-shape value="true"/>
        <geometry.remove.keep-edges.explicit value="true"/>
        <geometry.avoid-overlap value="true"/>
        <offset.disable-normalization value="true"/>
    </processing>

    <junctions>
        <no-turnarounds value="true"/>
        <junctions.internal-link-detail value="20"/>
    </junctions>

    <report>
        <aggregate-warnings value="5"/>
    </report>

    <random_number>
        <seed value="1234"/>
    </random_number>

</configuration>
-->

<net version="1.6" junctionCornerDetail="5" junctionLinkDetail="20" limitTurnSpeed="5.50" xmlns:xsi="http://www.w3.org/2001/XMLSchema-instance" xsi:noNamespaceSchemaLocation="http://sumo.dlr.de/xsd/net_file.xsd">

    <location netOffset="0.00,0.00" convBoundary="0.00,17.10,40.00,26.10" origBoundary="0.00,17.10,40.00,26.10" projParameter="!"/>

    <edge id="5" from="1" to="2" priority="1" spreadType="center" length="40.00">
        <lane id="5_0" index="0" disallow="rail_fast" speed="36.11" length="40.00" width="3.00" customShape="1" shape="0.00,17.10 0.40,17.10 0.81,17.10 1.21,17.10 1.62,17.10 2.02,17.10 2.42,17.10 2.83,17.10 3.23,17.10 3.64,17.10 4.04,17.10 4.44,17.10 4.85,17.10 5.25,17.10 5.66,17.10 6.06,17.10 6.46,17.10 6.87,17.10 7.27,17.10 7.68,17.10 8.08,17.10 8.48,17.10 8.89,17.10 9.29,17.10 9.70,17.10 10.10,17.10 10.51,17.10 10.91,17.10 11.31,17.10 11.72,17.10 12.12,17.10 12.53,17.10 12.93,17.10 13.33,17.10 13.74,17.10 14.14,17.10 14.55,17.10 14.95,17.10 15.35,17.10 15.76,17.10 16.16,17.10 16.57,17.10 16.97,17.10 17.37,17.10 17.78,17.10 18.18,17.10 18.59,17.10 18.99,17.10 19.39,17.10 19.80,17.10 20.20,17.10 20.61,17.10 21.01,17.10 21.41,17.10 21.82,17.10 22.22,17.10 22.63,17.10 23.03,17.10 23.43,17.10 23.84,17.10 24.24,17.10 24.65,17.10 25.05,17.10 25.45,17.10 25.86,17.10 26.26,17.10 26.67,17.10 27.07,17.10 27.47,17.10 27.88,17.10 28.28,17.10 28.69,17.10 29.09,17.10 29.49,17.10 29.90,17.10 30.30,17.10 30.71,17.10 31.11,17.10 31.52,17.10 31.92,17.10 32.32,17.10 32.73,17.10 33.13,17.10 33.54,17.10 33.94,17.10 34.34,17.10 34.75,17.10 35.15,17.10 35.56,17.10 35.96,17.10 36.36,17.10 36.77,17.10 37.17,17.10 37.58,17.10 37.98,17.10 38.38,17.10 38.79,17.10 39.19,17.10 39.60,17.10 40.00,17.10"/>
    </edge>
    <edge id="6" from="3" to="4" priority="1" spreadType="center" length="40.00">
        <lane id="6_0" index="0" disallow="rail_fast" speed="36.11" length="40.00" width="3.00" customShape="1" shape="0.00,20.10 0.40,20.10 0.81,20.10 1.21,20.10 1.62,20.10 2.02,20.10 2.42,20.10 2.83,20.10 3.23,20.10 3.64,20.10 4.04,20.10 4.44,20.10 4.85,20.10 5.25,20.10 5.66,20.10 6.06,20.10 6.46,20.10 6.87,20.10 7.27,20.10 7.68,20.10 8.08,20.10 8.48,20.10 8.89,20.10 9.29,20.10 9.70,20.10 10.10,20.10 10.51,20.10 10.91,20.10 11.31,20.10 11.72,20.10 12.12,20.10 12.53,20.10 12.93,20.10 13.33,20.10 13.74,20.10 14.14,20.10 14.55,20.10 14.95,20.10 15.35,20.10 15.76,20.10 16.16,20.10 16.57,20.10 16.97,20.10 17.37,20.10 17.78,20.10 18.18,20.10 18.59,20.10 18.99,20.10 19.39,20.10 19.80,20.10 20.20,20.10 20.61,20.10 21.01,20.10 21.41,20.10 21.82,20.10 22.22,20.10 22.63,20.10 23.03,20.10 23.43,20.10 23.84,20.10 24.24,20.10 24.65,20.10 25.05,20.10 25.45,20.10 25.86,20.10 26.26,20.10 26.67,20.10 27.07,20.10 27.47,20.10 27.88,20.10 28.28,20.10 28.69,20.10 29.09,20.10 29.49,20.10 29.90,20.10 30.30,20.10 30.71,20.10 31.11,20.10 31.52,20.10 31.92,20.10 32.32,20.10 32.73,20.10 33.13,20.10 33.54,20.10 33.94,20.10 34.34,20.10 34.75,20.10 35.15,20.10 35.56,20.10 35.96,20.10 36.36,20.10 36.77,20.10 37.17,20.10 37.58,20.10 37.98,20.10 38.38,20.10 38.79,20.10 39.19,20.10 39.60,20.10 40.00,20.10"/>
    </edge>
    <edge id="7" from="5" to="6" priority="1" spreadType="center" length="40.00">
        <lane id="7_0" index="0" disallow="rail_fast" speed="36.11" length="40.00" width="3.00" customShape="1" shape="40.00,23.10 39.60,23.10 39.19,23.10 38.79,23.10 38.38,23.10 37.98,23.10 37.58,23.10 37.17,23.10 36.77,23.10 36.36,23.10 35.96,23.10 35.56,23.10 35.15,23.10 34.75,23.10 34.34,23.10 33.94,23.10 33.54,23.10 33.13,23.10 32.73,23.10 32.32,23.10 31.92,23.10 31.52,23.10 31.11,23.10 30.71,23.10 30.30,23.10 29.90,23.10 29.49,23.10 29.09,23.10 28.69,23.10 28.28,23.10 27.88,23.10 27.47,23.10 27.07,23.10 26.67,23.10 26.26,23.10 25.86,23.10 25.45,23.10 25.05,23.10 24.65,23.10 24.24,23.10 23.84,23.10 23.43,23.10 23.03,23.10 22.63,23.10 22.22,23.10 21.82,23.10 21.41,23.10 21.01,23.10 20.61,23.10 20.20,23.10 19.80,23.10 19.39,23.10 18.99,23.10 18.59,23.10 18.18,23.10 17.78,23.10 17.37,23.10 16.97,23.10 16.57,23.10 16.16,23.10 15.76,23.10 15.35,23.10 14.95,23.10 14.55,23.10 14.14,23.10 13.74,23.10 13.33,23.10 12.93,23.10 12.53,23.10 12.12,23.10 11.72,23.10 11.31,23.10 10.91,23.10 10.51,23.10 10.10,23.10 9.70,23.10 9.29,23.10 8.89,23.10 8.48,23.10 8.08,23.10 7.68,23.10 7.27,23.10 6.87,23.10 6.46,23.10 6.06,23.10 5.66,23.10 5.25,23.10 4.85,23.10 4.44,23.10 4.04,23.10 3.64,23.10 3.23,23.10 2.83,23.10 2.42,23.10 2.02,23.10 1.62,23.10 1.21,23.10 0.81,23.10 0.40,23.10 0.00,23.10"/>
    </edge>
    <edge id="8" from="7" to="8" priority="1" spreadType="center" length="40.00">
        <lane id="8_0" index="0" disallow="rail_fast" speed="36.11" length="40.00" width="3.00" customShape="1" shape="40.00,26.10 39.60,26.10 39.19,26.10 38.79,26.10 38.38,26.10 37.98,26.10 37.58,26.10 37.17,26.10 36.77,26.10 36.36,26.10 35.96,26.10 35.56,26.10 35.15,26.10 34.75,26.10 34.34,26.10 33.94,26.10 33.54,26.10 33.13,26.10 32.73,26.10 32.32,26.10 31.92,26.10 31.52,26.10 31.11,26.10 30.71,26.10 30.30,26.10 29.90,26.10 29.49,26.10 29.09,26.10 28.69,26.10 28.28,26.10 27.88,26.10 27.47,26.10 27.07,26.10 26.67,26.10 26.26,26.10 25.86,26.10 25.45,26.10 25.05,26.10 24.65,26.10 24.24,26.10 23.84,26.10 23.43,26.10 23.03,26.10 22.63,26.10 22.22,26.10 21.82,26.10 21.41,26.10 21.01,26.10 20.61,26.10 20.20,26.10 19.80,26.10 19.39,26.10 18.99,26.10 18.59,26.10 18.18,26.10 17.78,26.10 17.37,26.10 16.97,26.10 16.57,26.10 16.16,26.10 15.76,26.10 15.35,26.10 14.95,26.10 14.55,26.10 14.14,26.10 13.74,26.10 13.33,26.10 12.93,26.10 12.53,26.10 12.12,26.10 11.72,26.10 11.31,26.10 10.91,26.10 10.51,26.10 10.10,26.10 9.70,26.10 9.29,26.10 8.89,26.10 8.48,26.10 8.08,26.10 7.68,26.10 7.27,26.10 6.87,26.10 6.46,26.10 6.06,26.10 5.66,26.10 5.25,26.10 4.85,26.10 4.44,26.10 4.04,26.10 3.64,26.10 3.23,26.10 2.83,26.10 2.42,26.10 2.02,26.10 1.62,26.10 1.21,26.10 0.81,26.10 0.40,26.10 0.00,26.10"/>
    </edge>

    <junction id="1" type="dead_end" x="0.00" y="17.10" incLanes="" intLanes="" shape="0.00,18.60 0.00,15.60"/>
    <junction id="2" type="dead_end" x="40.00" y="17.10" incLanes="5_0" intLanes="" shape="40.00,15.60 40.00,18.60"/>
    <junction id="3" type="dead_end" x="0.00" y="20.10" incLanes="" intLanes="" shape="0.00,21.60 0.00,18.60"/>
    <junction id="4" type="dead_end" x="40.00" y="20.10" incLanes="6_0" intLanes="" shape="40.00,18.60 40.00,21.60"/>
    <junction id="5" type="dead_end" x="40.00" y="23.10" incLanes="" intLanes="" shape="40.00,21.60 40.00,24.60"/>
    <junction id="6" type="dead_end" x="0.00" y="23.10" incLanes="7_0" intLanes="" shape="0.00,24.60 0.00,21.60"/>
    <junction id="7" type="dead_end" x="40.00" y="26.10" incLanes="" intLanes="" shape="40.00,24.60 40.00,27.60"/>
    <junction id="8" type="dead_end" x="0.00" y="26.10" incLanes="8_0" intLanes="" shape="0.00,27.60 0.00,24.60"/>

</net>
