<!-- generated on Tue Feb  9 22:22:51 2021 by Eclipse SUMO netconvert Version 1.8.0
<configuration xmlns:xsi="http://www.w3.org/2001/XMLSchema-instance" xsi:noNamespaceSchemaLocation="http://sumo.dlr.de/xsd/netconvertConfiguration.xsd">

    <input>
        <node-files value="./converted_scenarios/scenario-factory/ESP_Monzon-7_1_I-1-1/ESP_Monzon-7_1_I-1-1.nod.xml"/>
        <edge-files value="./converted_scenarios/scenario-factory/ESP_Monzon-7_1_I-1-1/ESP_Monzon-7_1_I-1-1.edg.xml"/>
        <connection-files value="./converted_scenarios/scenario-factory/ESP_Monzon-7_1_I-1-1/ESP_Monzon-7_1_I-1-1.con.xml"/>
        <tllogic-files value="./converted_scenarios/scenario-factory/ESP_Monzon-7_1_I-1-1/ESP_Monzon-7_1_I-1-1.tll.xml"/>
        <type-files value="/home/zen/commonroad-interactive-benchmarks/install/commonroad-map-tool/crmapconverter/sumo_map/templates/DEU.typ.xml"/>
    </input>

    <output>
        <output-file value="./converted_scenarios/scenario-factory/ESP_Monzon-7_1_I-1-1/ESP_Monzon-7_1_I-1-1.net.xml"/>
    </output>

    <processing>
        <geometry.remove.keep-edges.explicit value="true"/>
        <geometry.avoid-overlap value="true"/>
        <offset.disable-normalization value="true"/>
    </processing>

    <junctions>
        <no-turnarounds value="true"/>
        <junctions.internal-link-detail value="20"/>
    </junctions>

    <report>
        <aggregate-warnings value="5"/>
    </report>

    <random_number>
        <seed value="1234"/>
    </random_number>

</configuration>
--><net xmlns:xsi="http://www.w3.org/2001/XMLSchema-instance" version="1.6" junctionCornerDetail="5" junctionLinkDetail="20" limitTurnSpeed="5.50" xsi:noNamespaceSchemaLocation="http://sumo.dlr.de/xsd/net_file.xsd">

    <location netOffset="0.00,0.00" convBoundary="737.63,-249.52,923.95,137.70" origBoundary="737.63,-249.52,923.95,137.70" projParameter="!"/>

    <type id="highway.bridleway" priority="1" speed="2.78" allow="pedestrian" oneway="1" width="2.00"/>
    <type id="highway.bus_guideway" priority="1" speed="27.78" allow="bus" oneway="1"/>
    <type id="highway.cycleway" priority="1" speed="8.33" allow="bicycle" oneway="0" width="1.00"/>
    <type id="highway.footway" priority="1" speed="2.78" allow="pedestrian" oneway="1" width="2.00"/>
    <type id="highway.ford" priority="1" speed="2.78" allow="army" oneway="0"/>
    <type id="highway.living_street" priority="2" speed="2.78" disallow="tram rail_urban rail rail_electric rail_fast ship" oneway="0"/>
    <type id="highway.motorway" priority="14" speed="39.44" allow="private emergency authority army vip passenger hov taxi bus coach delivery truck trailer motorcycle evehicle custom1 custom2" oneway="1"/>
    <type id="highway.motorway_link" priority="9" speed="22.22" allow="private emergency authority army vip passenger hov taxi bus coach delivery truck trailer motorcycle evehicle custom1 custom2" oneway="1"/>
    <type id="highway.path" priority="1" speed="2.78" allow="pedestrian bicycle" oneway="0" width="2.00"/>
    <type id="highway.pedestrian" priority="1" speed="2.78" allow="pedestrian" oneway="1" width="2.00"/>
    <type id="highway.primary" priority="12" speed="27.78" disallow="pedestrian tram rail_urban rail rail_electric rail_fast ship" oneway="0"/>
    <type id="highway.primary_link" priority="7" speed="22.22" disallow="pedestrian tram rail_urban rail rail_electric rail_fast ship" oneway="0"/>
    <type id="highway.raceway" priority="15" speed="83.33" allow="vip" oneway="0"/>
    <type id="highway.residential" priority="3" speed="13.89" disallow="pedestrian tram rail_urban rail rail_electric rail_fast ship" oneway="0"/>
    <type id="highway.secondary" priority="11" speed="27.78" disallow="pedestrian tram rail_urban rail rail_electric rail_fast ship" oneway="0"/>
    <type id="highway.secondary_link" priority="6" speed="22.22" disallow="pedestrian tram rail_urban rail rail_electric rail_fast ship" oneway="0"/>
    <type id="highway.service" priority="1" speed="5.56" allow="pedestrian delivery bicycle" oneway="0"/>
    <type id="highway.stairs" priority="1" speed="1.39" allow="pedestrian" oneway="1" width="2.00"/>
    <type id="highway.step" priority="1" speed="1.39" allow="pedestrian" oneway="1" width="2.00"/>
    <type id="highway.steps" priority="1" speed="1.39" allow="pedestrian" oneway="1" width="2.00"/>
    <type id="highway.tertiary" priority="10" speed="22.22" disallow="pedestrian tram rail_urban rail rail_electric rail_fast ship" oneway="0"/>
    <type id="highway.tertiary_link" priority="5" speed="22.22" disallow="pedestrian tram rail_urban rail rail_electric rail_fast ship" oneway="0"/>
    <type id="highway.track" priority="1" speed="5.56" allow="pedestrian motorcycle moped bicycle" oneway="0"/>
    <type id="highway.trunk" priority="13" speed="27.78" disallow="pedestrian bicycle tram rail_urban rail rail_electric rail_fast ship" oneway="0"/>
    <type id="highway.trunk_link" priority="8" speed="22.22" disallow="pedestrian bicycle tram rail_urban rail rail_electric rail_fast ship" oneway="0"/>
    <type id="highway.unclassified" priority="4" speed="13.89" disallow="pedestrian tram rail_urban rail rail_electric rail_fast ship" oneway="0"/>
    <type id="highway.unsurfaced" priority="1" speed="8.33" disallow="tram rail_urban rail rail_electric rail_fast ship" oneway="0"/>
    <type id="railway.highspeed" priority="21" speed="69.44" allow="rail_fast" oneway="1"/>
    <type id="railway.light_rail" priority="19" speed="27.78" allow="rail_urban" oneway="1"/>
    <type id="railway.preserved" priority="16" speed="27.78" allow="rail" oneway="1"/>
    <type id="railway.rail" priority="20" speed="44.44" allow="rail" oneway="1"/>
    <type id="railway.subway" priority="18" speed="27.78" allow="rail_urban" oneway="1"/>
    <type id="railway.tram" priority="17" speed="13.89" allow="tram" oneway="1"/>

    <edge id=":64_0" function="internal">
        <lane id=":64_0_0" index="0" disallow="pedestrian tram rail_urban rail rail_electric rail_fast ship" speed="36.11" length="5.24" width="3.50" shape="855.81,118.25 860.41,120.75"/>
    </edge>
    <edge id=":68_0" function="internal">
        <lane id=":68_0_0" index="0" disallow="pedestrian tram rail_urban rail rail_electric rail_fast ship" speed="36.11" length="4.92" width="3.50" shape="858.62,123.76 854.30,121.41"/>
    </edge>
    <edge id=":80_0" function="internal">
        <lane id=":80_0_0" index="0" disallow="pedestrian tram rail_urban rail rail_electric rail_fast ship" speed="9.06" length="24.43" width="3.50" shape="799.98,-76.40 775.81,-79.93"/>
    </edge>
    <edge id=":80_1" function="internal">
        <lane id=":80_1_0" index="0" disallow="pedestrian tram rail_urban rail rail_electric rail_fast ship" speed="14.03" length="35.59" width="3.50" shape="799.98,-76.39 798.69,-79.71 797.65,-83.17 796.94,-86.72 796.69,-89.17 796.65,-91.64 796.87,-94.11 797.35,-96.56 798.11,-98.95 799.15,-101.23 800.43,-103.37 801.92,-105.35 803.60,-107.16 805.40,-108.80"/>
    </edge>
    <edge id=":80_2" function="internal">
        <lane id=":80_2_0" index="0" disallow="pedestrian tram rail_urban rail rail_electric rail_fast ship" speed="13.13" length="31.10" width="3.50" shape="807.66,-106.12 806.07,-104.68 804.61,-103.10 803.33,-101.38 802.24,-99.53 801.37,-97.57 800.73,-95.52 800.34,-93.41 800.17,-91.27 800.22,-89.12 800.45,-86.99 801.09,-83.84 802.03,-80.75 803.19,-77.78"/>
    </edge>
    <edge id=":80_3" function="internal">
        <lane id=":80_3_0" index="0" disallow="pedestrian tram rail_urban rail rail_electric rail_fast ship" speed="36.11" length="29.80" width="3.50" shape="807.65,-106.12 783.78,-88.28"/>
    </edge>
    <edge id=":80_4" function="internal">
        <lane id=":80_4_0" index="0" disallow="pedestrian tram rail_urban rail rail_electric rail_fast ship" speed="36.11" length="29.50" width="3.50" shape="781.78,-91.15 790.05,-96.92 798.24,-103.05 805.40,-108.80"/>
    </edge>
    <edge id=":80_5" function="internal">
        <lane id=":80_5_0" index="0" disallow="pedestrian tram rail_urban rail rail_electric rail_fast ship" speed="10.25" length="26.92" width="3.50" shape="782.46,-90.18 784.52,-90.71 785.93,-90.91 787.33,-90.99 788.75,-90.93 790.17,-90.73 791.56,-90.37 792.90,-89.87 794.18,-89.23 795.37,-88.47 796.48,-87.61 797.50,-86.67 798.45,-85.65 800.08,-83.54 801.48,-81.27 803.19,-77.78"/>
    </edge>
    <edge id=":82_0" function="internal">
        <lane id=":82_0_0" index="0" disallow="pedestrian tram rail_urban rail rail_electric rail_fast ship" speed="36.11" length="37.40" width="3.50" shape="852.93,76.96 852.19,76.35 851.12,75.63 849.77,74.82 848.17,73.93 846.35,72.97 844.35,71.96 842.22,70.92 839.98,69.85 837.68,68.76 835.36,67.69 833.04,66.63 830.78,65.60 828.59,64.62 826.54,63.70 824.64,62.86 822.94,62.10 821.48,61.44 820.29,60.90 819.41,60.49"/>
    </edge>
    <edge id=":82_1" function="internal">
        <lane id=":82_1_0" index="0" disallow="pedestrian tram rail_urban rail rail_electric rail_fast ship" speed="24.03" length="36.81" width="3.50" shape="852.99,77.04 851.52,75.30 850.35,73.48 848.91,70.59 847.33,66.57 845.73,61.42 844.16,55.14 842.44,46.67 841.70,42.42"/>
    </edge>
    <edge id=":82_2" function="internal">
        <lane id=":82_2_0" index="0" disallow="pedestrian tram rail_urban rail rail_electric rail_fast ship" speed="22.74" length="34.60" width="3.50" shape="845.14,41.80 845.86,45.94 847.50,54.09 848.99,60.11 850.47,65.02 851.91,68.80 853.21,71.47 854.20,73.06 855.40,74.49"/>
    </edge>
    <edge id=":82_3" function="internal">
        <lane id=":82_3_0" index="0" disallow="pedestrian tram rail_urban rail rail_electric rail_fast ship" speed="10.66" length="32.40" width="3.50" shape="845.15,41.86 845.52,44.05 845.80,46.17 845.99,48.20 846.09,50.15 846.09,52.00 845.98,53.74 845.75,55.38 845.40,56.89 844.92,58.29 844.30,59.55 843.54,60.67 842.63,61.64 841.57,62.47 840.34,63.13 838.95,63.63 837.38,63.95 835.62,64.09 833.68,64.05 831.54,63.81"/>
    </edge>
    <edge id=":82_4" function="internal">
        <lane id=":82_4_0" index="0" disallow="pedestrian tram rail_urban rail rail_electric rail_fast ship" speed="10.24" length="33.82" width="3.50" shape="822.87,57.93 826.56,59.19 829.08,59.83 831.66,60.21 832.96,60.28 834.26,60.24 835.55,60.06 836.80,59.71 837.98,59.18 839.06,58.44 839.97,57.52 840.71,56.45 841.28,55.28 841.70,54.05 841.99,52.78 842.18,51.49 842.31,48.89 842.19,46.29 841.70,42.42"/>
    </edge>
    <edge id=":82_5" function="internal">
        <lane id=":82_5_0" index="0" disallow="pedestrian tram rail_urban rail rail_electric rail_fast ship" speed="36.11" length="36.67" width="3.50" shape="822.87,57.93 832.85,61.96 840.71,65.48 846.48,68.40 850.20,70.57 852.88,72.37 854.56,73.71 855.40,74.49"/>
    </edge>
    <edge id=":84_0" function="internal">
        <lane id=":84_0_0" index="0" disallow="pedestrian tram rail_urban rail rail_electric rail_fast ship" speed="10.41" length="31.82" width="3.50" shape="868.93,-12.03 868.57,-15.94 868.11,-18.43 867.39,-20.86 866.95,-21.97 866.41,-23.04 865.79,-24.03 865.07,-24.92 864.27,-25.70 863.37,-26.34 862.39,-26.85 861.34,-27.22 860.22,-27.45 859.06,-27.55 857.87,-27.54 856.68,-27.44 854.19,-26.96 851.76,-26.23 848.13,-24.76"/>
    </edge>
    <edge id=":84_1" function="internal">
        <lane id=":84_1_0" index="0" disallow="pedestrian tram rail_urban rail rail_electric rail_fast ship" speed="36.11" length="41.73" width="3.50" shape="868.93,-12.03 868.12,-25.25 867.18,-35.38 866.26,-42.44 865.16,-48.45 864.17,-52.39 863.86,-53.36"/>
    </edge>
    <edge id=":84_2" function="internal">
        <lane id=":84_2_0" index="0" disallow="pedestrian tram rail_urban rail rail_electric rail_fast ship" speed="18.28" length="30.82" width="3.50" shape="868.92,-12.04 869.01,-12.91 869.33,-13.95 869.85,-15.12 870.56,-16.41 871.43,-17.80 872.44,-19.27 873.56,-20.80 874.77,-22.37 876.04,-23.96 877.36,-25.55 878.69,-27.12 880.02,-28.64 881.31,-30.11 882.56,-31.50 883.73,-32.78 884.79,-33.95 885.73,-34.97 886.52,-35.84 887.14,-36.52"/>
    </edge>
    <edge id=":84_3" function="internal">
        <lane id=":84_3_0" index="0" disallow="pedestrian tram rail_urban rail rail_electric rail_fast ship" speed="11.72" length="34.00" width="3.50" shape="890.47,-33.54 884.20,-33.77 882.00,-33.48 881.00,-33.22 880.01,-32.87 879.07,-32.43 878.19,-31.89 877.37,-31.26 876.62,-30.55 875.94,-29.76 875.33,-28.89 874.80,-27.99 873.90,-25.95 873.25,-23.80 872.80,-21.56 872.52,-19.28 872.35,-15.75 872.42,-12.21"/>
    </edge>
    <edge id=":84_4" function="internal">
        <lane id=":84_4_0" index="0" disallow="pedestrian tram rail_urban rail rail_electric rail_fast ship" speed="32.99" length="43.76" width="3.50" shape="890.47,-33.54 883.40,-33.84 879.36,-33.68 875.35,-33.25 870.35,-32.37 865.40,-31.16 860.52,-29.68 854.75,-27.58 848.13,-24.76"/>
    </edge>
    <edge id=":84_5" function="internal">
        <lane id=":84_5_0" index="0" disallow="pedestrian tram rail_urban rail rail_electric rail_fast ship" speed="14.82" length="36.08" width="3.50" shape="890.47,-33.54 884.05,-34.00 881.72,-34.44 879.44,-35.11 877.25,-36.02 875.18,-37.17 873.25,-38.54 871.48,-40.12 869.88,-41.87 868.45,-43.76 866.61,-46.81 865.10,-50.03 863.86,-53.36"/>
    </edge>
    <edge id=":84_6" function="internal">
        <lane id=":84_6_0" index="0" disallow="pedestrian tram rail_urban rail rail_electric rail_fast ship" speed="36.11" length="4.02" width="3.50" shape="867.19,-54.46 867.29,-54.17 867.37,-53.92 867.45,-53.68 867.52,-53.47 867.59,-53.28 867.65,-53.10 867.70,-52.94 867.76,-52.78 867.81,-52.63 867.87,-52.48 867.92,-52.33 867.99,-52.18 868.05,-52.02 868.12,-51.85 868.21,-51.66 868.30,-51.46 868.40,-51.24 868.51,-50.99 868.64,-50.72"/>
    </edge>
    <edge id=":84_7" function="internal">
        <lane id=":84_7_0" index="0" disallow="pedestrian tram rail_urban rail rail_electric rail_fast ship" speed="36.11" length="42.71" width="3.50" shape="867.17,-54.50 867.52,-53.40 868.55,-49.31 869.69,-43.14 870.64,-35.92 871.60,-25.62 872.42,-12.21"/>
    </edge>
    <edge id=":84_8" function="internal">
        <lane id=":84_8_0" index="0" disallow="pedestrian tram rail_urban rail rail_electric rail_fast ship" speed="13.53" length="39.23" width="3.50" shape="867.18,-54.50 867.55,-53.25 868.06,-50.84 868.30,-48.35 868.20,-45.82 867.74,-43.32 866.93,-40.92 865.81,-38.67 864.44,-36.59 862.87,-34.70 861.14,-32.96 858.37,-30.67 855.42,-28.64 852.35,-26.85 848.13,-24.76"/>
    </edge>
    <edge id=":84_9" function="internal">
        <lane id=":84_9_0" index="0" disallow="pedestrian tram rail_urban rail rail_electric rail_fast ship" speed="12.63" length="34.04" width="3.50" shape="846.67,-27.94 850.50,-29.84 853.27,-31.43 855.91,-33.21 858.39,-35.22 859.92,-36.70 861.30,-38.32 862.51,-40.06 863.50,-41.94 864.23,-43.94 864.66,-46.02 864.78,-48.15 864.60,-50.26 864.17,-52.35 863.86,-53.36"/>
    </edge>
    <edge id=":84_10" function="internal">
        <lane id=":84_10_0" index="0" disallow="pedestrian tram rail_urban rail rail_electric rail_fast ship" speed="36.11" length="35.52" width="3.50" shape="846.69,-27.95 847.57,-28.32 848.75,-28.76 850.19,-29.26 851.87,-29.81 853.74,-30.40 855.77,-31.03 857.92,-31.67 860.17,-32.32 862.47,-32.98 864.79,-33.62 867.10,-34.24 869.36,-34.84 871.54,-35.39 873.60,-35.89 875.51,-36.32 877.22,-36.69 878.72,-36.97 879.96,-37.16 880.91,-37.24"/>
    </edge>
    <edge id=":84_11" function="internal">
        <lane id=":84_11_0" index="0" disallow="pedestrian tram rail_urban rail rail_electric rail_fast ship" speed="11.47" length="38.96" width="3.50" shape="846.67,-27.94 850.86,-29.63 853.73,-30.50 856.67,-31.06 858.16,-31.20 859.66,-31.21 861.15,-31.07 862.61,-30.76 864.02,-30.27 865.35,-29.58 866.57,-28.71 867.65,-27.67 868.59,-26.50 869.39,-25.24 870.06,-23.90 870.62,-22.51 871.46,-19.64 872.01,-16.69 872.42,-12.21"/>
    </edge>
    <edge id=":86_0" function="internal">
        <lane id=":86_0_0" index="0" disallow="pedestrian tram rail_urban rail rail_electric rail_fast ship" speed="10.72" length="29.03" width="3.50" shape="831.92,2.97 830.75,-0.17 829.76,-2.17 828.57,-4.06 827.89,-4.95 827.15,-5.78 826.34,-6.55 825.46,-7.24 824.53,-7.85 823.53,-8.36 822.49,-8.76 821.42,-9.05 820.31,-9.24 819.20,-9.33 818.09,-9.33 815.87,-9.07 813.69,-8.56 811.58,-7.84 809.53,-6.96"/>
    </edge>
    <edge id=":86_1" function="internal">
        <lane id=":86_1_0" index="0" disallow="pedestrian tram rail_urban rail rail_electric rail_fast ship" speed="36.11" length="40.22" width="3.50" shape="831.92,2.97 827.67,-9.74 823.39,-21.34 819.15,-31.86 817.93,-34.72"/>
    </edge>
    <edge id=":86_2" function="internal">
        <lane id=":86_2_0" index="0" disallow="pedestrian tram rail_urban rail rail_electric rail_fast ship" speed="13.23" length="36.43" width="3.50" shape="831.92,2.97 830.94,-0.67 830.33,-4.39 830.20,-6.89 830.31,-9.40 830.71,-11.88 831.43,-14.29 832.46,-16.58 833.79,-18.71 835.39,-20.64 837.20,-22.38 839.18,-23.92 841.30,-25.28 844.66,-27.02"/>
    </edge>
    <edge id=":86_3" function="internal">
        <lane id=":86_3_0" index="0" disallow="pedestrian tram rail_urban rail rail_electric rail_fast ship" speed="12.29" length="31.31" width="3.50" shape="846.12,-23.84 843.14,-22.30 841.31,-21.12 839.60,-19.80 838.06,-18.32 836.72,-16.68 835.61,-14.90 834.75,-12.99 834.16,-10.97 833.82,-8.87 833.73,-6.73 833.85,-4.58 834.38,-1.31 835.26,1.90"/>
    </edge>
    <edge id=":86_4" function="internal">
        <lane id=":86_4_0" index="0" disallow="pedestrian tram rail_urban rail rail_electric rail_fast ship" speed="36.11" length="40.30" width="3.50" shape="846.12,-23.84 827.81,-15.39 809.53,-6.96"/>
    </edge>
    <edge id=":86_5" function="internal">
        <lane id=":86_5_0" index="0" disallow="pedestrian tram rail_urban rail rail_electric rail_fast ship" speed="12.20" length="34.85" width="3.50" shape="846.12,-23.84 842.36,-22.35 839.78,-21.63 837.15,-21.17 834.47,-21.05 833.14,-21.14 831.81,-21.34 830.51,-21.65 829.24,-22.07 828.02,-22.61 826.84,-23.26 825.73,-24.00 824.68,-24.84 822.78,-26.72 821.14,-28.83 819.72,-31.10 817.93,-34.72"/>
    </edge>
    <edge id=":86_6" function="internal">
        <lane id=":86_6_0" index="0" disallow="pedestrian tram rail_urban rail rail_electric rail_fast ship" speed="11.20" length="29.18" width="3.50" shape="821.14,-36.11 822.70,-32.94 823.91,-31.01 825.30,-29.24 826.89,-27.65 827.72,-27.00 828.62,-26.39 829.56,-25.87 830.54,-25.44 831.56,-25.10 832.60,-24.85 833.67,-24.70 834.73,-24.62 836.97,-24.72 839.19,-25.11 841.38,-25.72 844.66,-27.02"/>
    </edge>
    <edge id=":86_7" function="internal">
        <lane id=":86_7_0" index="0" disallow="pedestrian tram rail_urban rail rail_electric rail_fast ship" speed="36.11" length="40.56" width="3.50" shape="821.14,-36.11 822.38,-33.21 826.65,-22.61 830.97,-10.90 835.26,1.90"/>
    </edge>
    <edge id=":86_8" function="internal">
        <lane id=":86_8_0" index="0" disallow="pedestrian tram rail_urban rail rail_electric rail_fast ship" speed="12.59" length="35.75" width="3.50" shape="821.14,-36.11 822.49,-32.50 823.14,-30.03 823.55,-27.51 823.67,-24.96 823.45,-22.42 822.86,-19.94 821.88,-17.58 820.56,-15.40 818.94,-13.43 817.09,-11.67 815.07,-10.11 811.81,-8.11 809.53,-6.96"/>
    </edge>
    <edge id=":86_9" function="internal">
        <lane id=":86_9_0" index="0" disallow="pedestrian tram rail_urban rail rail_electric rail_fast ship" speed="11.62" length="30.28" width="3.50" shape="808.05,-10.13 810.04,-11.13 812.91,-12.89 814.63,-14.21 816.20,-15.70 817.55,-17.34 818.64,-19.12 819.44,-21.05 819.93,-23.07 820.12,-25.17 820.02,-27.30 819.67,-29.44 819.11,-31.56 817.93,-34.72"/>
    </edge>
    <edge id=":86_10" function="internal">
        <lane id=":86_10_0" index="0" disallow="pedestrian tram rail_urban rail rail_electric rail_fast ship" speed="36.11" length="40.32" width="3.50" shape="808.05,-10.13 826.34,-18.57 844.66,-27.02"/>
    </edge>
    <edge id=":86_11" function="internal">
        <lane id=":86_11_0" index="0" disallow="pedestrian tram rail_urban rail rail_electric rail_fast ship" speed="11.75" length="35.10" width="3.50" shape="808.05,-10.13 810.44,-11.15 812.92,-11.99 815.51,-12.61 818.16,-12.91 819.56,-12.92 820.95,-12.81 822.33,-12.58 823.69,-12.20 825.01,-11.69 826.27,-11.05 827.45,-10.29 828.55,-9.42 829.56,-8.47 830.47,-7.44 831.31,-6.35 832.72,-4.11 833.89,-1.73 835.26,1.90"/>
    </edge>
    <edge id=":87_0" function="internal">
        <lane id=":87_0_0" index="0" disallow="pedestrian tram rail_urban rail rail_electric rail_fast ship" speed="10.98" length="28.76" width="3.50" shape="891.53,11.32 888.22,11.46 886.03,11.79 883.88,12.34 881.83,13.16 880.86,13.69 879.93,14.29 879.07,14.98 878.27,15.74 877.54,16.58 876.90,17.48 876.34,18.44 875.87,19.44 875.15,21.53 874.70,23.70 874.48,25.90 874.48,29.22"/>
    </edge>
    <edge id=":87_1" function="internal">
        <lane id=":87_1_0" index="0" disallow="pedestrian tram rail_urban rail rail_electric rail_fast ship" speed="12.54" length="34.75" width="3.50" shape="891.53,11.32 887.68,11.11 885.13,10.73 882.63,10.13 880.20,9.26 877.91,8.08 875.82,6.59 874.86,5.73 873.98,4.80 872.44,2.73 871.22,0.47 870.31,-1.94 869.67,-4.43 869.26,-6.98 869.04,-9.54"/>
    </edge>
    <edge id=":87_2" function="internal">
        <lane id=":87_2_0" index="0" disallow="pedestrian tram rail_urban rail rail_electric rail_fast ship" speed="11.56" length="29.39" width="3.50" shape="872.54,-9.73 872.72,-7.47 873.08,-5.28 873.63,-3.15 874.39,-1.13 875.40,0.74 876.69,2.45 877.39,3.18 878.14,3.87 879.89,5.11 881.80,6.07 883.84,6.80 885.98,7.31 888.17,7.63 891.55,7.82"/>
    </edge>
    <edge id=":87_3" function="internal">
        <lane id=":87_3_0" index="0" disallow="pedestrian tram rail_urban rail rail_electric rail_fast ship" speed="36.11" length="39.00" width="3.50" shape="872.54,-9.73 873.51,9.75 874.48,29.22"/>
    </edge>
    <edge id=":87_4" function="internal">
        <lane id=":87_4_0" index="0" disallow="pedestrian tram rail_urban rail rail_electric rail_fast ship" speed="36.11" length="38.99" width="3.50" shape="870.99,29.40 870.02,9.93 869.04,-9.54"/>
    </edge>
    <edge id=":87_5" function="internal">
        <lane id=":87_5_0" index="0" disallow="pedestrian tram rail_urban rail rail_electric rail_fast ship" speed="11.99" length="34.57" width="3.50" shape="870.99,29.40 870.99,25.56 871.25,22.95 871.79,20.36 872.65,17.86 873.25,16.60 873.94,15.42 874.74,14.29 875.64,13.25 876.65,12.29 877.73,11.43 878.87,10.68 880.10,10.02 882.57,9.03 885.13,8.37 887.72,7.99 891.55,7.82"/>
    </edge>
    <edge id=":88_0" function="internal">
        <lane id=":88_0_0" index="0" disallow="pedestrian tram rail_urban rail rail_electric rail_fast ship" speed="36.11" length="39.04" width="3.50" shape="860.18,-61.56 858.11,-65.04 853.70,-71.93 844.32,-85.47 838.55,-94.05"/>
    </edge>
    <edge id=":88_1" function="internal">
        <lane id=":88_1_0" index="0" disallow="pedestrian tram rail_urban rail rail_electric rail_fast ship" speed="12.65" length="33.62" width="3.50" shape="860.18,-61.56 858.48,-64.87 857.52,-67.23 856.78,-69.67 856.30,-72.22 856.14,-74.83 856.35,-77.44 856.62,-78.78 856.99,-80.06 857.48,-81.34 858.68,-83.65 860.20,-85.78 861.95,-87.69 863.86,-89.38 865.90,-90.89"/>
    </edge>
    <edge id=":88_2" function="internal">
        <lane id=":88_2_0" index="0" disallow="pedestrian tram rail_urban rail rail_electric rail_fast ship" speed="11.65" length="28.36" width="3.50" shape="867.87,-88.00 866.12,-86.70 864.48,-85.25 863.01,-83.64 861.75,-81.86 860.76,-79.92 860.38,-78.90 860.08,-77.85 859.87,-76.78 859.70,-74.61 859.85,-72.44 860.26,-70.30 860.91,-68.21 861.73,-66.19 863.23,-63.27"/>
    </edge>
    <edge id=":88_3" function="internal">
        <lane id=":88_3_0" index="0" disallow="pedestrian tram rail_urban rail rail_electric rail_fast ship" speed="12.13" length="34.56" width="3.50" shape="867.88,-88.00 864.46,-85.92 862.06,-84.78 859.55,-83.90 856.95,-83.34 855.63,-83.21 854.30,-83.19 852.98,-83.29 851.66,-83.50 850.38,-83.83 849.13,-84.28 847.92,-84.84 845.65,-86.22 843.59,-87.90 841.74,-89.80 840.06,-91.87 838.55,-94.05"/>
    </edge>
    <edge id=":88_4" function="internal">
        <lane id=":88_4_0" index="0" disallow="pedestrian tram rail_urban rail rail_electric rail_fast ship" speed="11.13" length="28.90" width="3.50" shape="841.48,-95.97 842.81,-94.05 844.25,-92.27 845.82,-90.65 847.53,-89.25 849.42,-88.10 850.37,-87.67 851.37,-87.31 852.40,-87.04 853.44,-86.87 854.50,-86.79 855.57,-86.81 856.61,-86.91 858.79,-87.37 860.89,-88.11 862.93,-89.08 865.90,-90.89"/>
    </edge>
    <edge id=":88_5" function="internal">
        <lane id=":88_5_0" index="0" disallow="pedestrian tram rail_urban rail rail_electric rail_fast ship" speed="36.11" length="39.28" width="3.50" shape="841.48,-95.97 847.25,-87.38 856.66,-73.80 861.12,-66.84 863.23,-63.27"/>
    </edge>
    <edge id=":89_0" function="internal">
        <lane id=":89_0_0" index="0" disallow="pedestrian tram rail_urban rail rail_electric rail_fast ship" speed="10.82" length="29.24" width="3.50" shape="832.72,-103.09 831.38,-105.02 829.92,-106.84 828.32,-108.48 826.55,-109.90 825.64,-110.48 824.68,-110.99 823.69,-111.41 822.68,-111.73 821.64,-111.94 820.58,-112.04 819.52,-112.04 818.45,-111.93 817.38,-111.73 816.32,-111.43 815.30,-111.06 813.21,-110.09 811.25,-108.89 808.41,-106.75"/>
    </edge>
    <edge id=":89_1" function="internal">
        <lane id=":89_1_0" index="0" disallow="pedestrian tram rail_urban rail rail_electric rail_fast ship" speed="36.11" length="80.34" width="3.50" shape="832.72,-103.09 819.96,-122.71 805.31,-144.73 794.91,-159.79 787.74,-169.64"/>
    </edge>
    <edge id=":89_2" function="internal">
        <lane id=":89_2_0" index="0" disallow="pedestrian tram rail_urban rail rail_electric rail_fast ship" speed="36.11" length="79.57" width="3.50" shape="832.72,-103.09 830.60,-106.78 828.80,-110.59 826.86,-115.44 824.55,-122.32 822.31,-130.27 820.13,-139.28 817.82,-150.36 815.47,-163.50 812.97,-179.73"/>
    </edge>
    <edge id=":89_3" function="internal">
        <lane id=":89_3_0" index="0" disallow="pedestrian tram rail_urban rail rail_electric rail_fast ship" speed="36.11" length="78.06" width="3.50" shape="816.43,-180.22 818.90,-164.19 821.22,-151.21 823.48,-140.29 825.61,-131.42 827.80,-123.62 830.05,-116.88 831.92,-112.17 833.65,-108.50 835.66,-104.99"/>
    </edge>
    <edge id=":89_4" function="internal">
        <lane id=":89_4_0" index="0" disallow="pedestrian tram rail_urban rail rail_electric rail_fast ship" speed="23.69" length="76.28" width="3.50" shape="816.43,-180.22 817.91,-168.50 818.79,-158.87 819.24,-150.29 819.31,-142.77 819.06,-136.33 818.57,-130.98 817.74,-125.67 816.78,-121.49 815.83,-118.41 814.65,-115.41 813.18,-112.54 811.39,-109.87 809.99,-108.24 808.41,-106.75"/>
    </edge>
    <edge id=":89_5" function="internal">
        <lane id=":89_5_0" index="0" disallow="pedestrian tram rail_urban rail rail_electric rail_fast ship" speed="36.11" length="80.66" width="3.50" shape="790.49,-171.80 797.75,-161.84 808.18,-146.73 822.87,-124.65 835.66,-104.99"/>
    </edge>
    <edge id=":89_6" function="internal">
        <lane id=":89_6_0" index="0" disallow="pedestrian tram rail_urban rail rail_electric rail_fast ship" speed="17.91" length="73.42" width="3.50" shape="790.49,-171.80 796.60,-163.39 801.06,-156.72 805.22,-149.86 808.46,-143.80 810.85,-138.60 812.49,-134.32 813.80,-129.93 814.50,-126.56 814.89,-123.15 814.94,-120.86 814.77,-118.58 814.37,-116.32 813.71,-114.13 812.77,-112.04 811.55,-110.10 810.09,-108.34 808.41,-106.75"/>
    </edge>
    <edge id=":89_7" function="internal">
        <lane id=":89_7_0" index="0" disallow="pedestrian tram rail_urban rail rail_electric rail_fast ship" speed="17.22" length="68.08" width="3.50" shape="806.14,-109.42 807.62,-110.80 808.85,-112.33 809.85,-114.02 810.60,-115.84 811.11,-117.77 811.39,-119.76 811.46,-121.80 811.36,-123.85 810.91,-126.97 810.19,-130.06 808.88,-134.14 807.28,-138.13 804.96,-143.03 801.84,-148.76 797.84,-155.28 793.56,-161.64 787.74,-169.64"/>
    </edge>
    <edge id=":89_8" function="internal">
        <lane id=":89_8_0" index="0" disallow="pedestrian tram rail_urban rail rail_electric rail_fast ship" speed="23.06" length="72.79" width="3.50" shape="806.14,-109.42 807.56,-110.75 808.78,-112.19 810.39,-114.65 811.69,-117.31 812.75,-120.11 813.61,-123.01 814.48,-126.99 815.21,-132.07 815.65,-137.20 815.85,-143.40 815.75,-150.67 815.28,-158.99 814.41,-168.33 812.97,-179.73"/>
    </edge>
    <edge id=":89_9" function="internal">
        <lane id=":89_9_0" index="0" disallow="pedestrian tram rail_urban rail rail_electric rail_fast ship" speed="11.87" length="35.33" width="3.50" shape="806.14,-109.42 809.44,-111.90 811.76,-113.31 814.21,-114.46 815.49,-114.92 816.80,-115.29 818.13,-115.54 819.48,-115.67 820.84,-115.68 822.19,-115.54 823.51,-115.27 824.81,-114.87 826.06,-114.34 827.26,-113.71 828.40,-112.97 830.51,-111.27 832.41,-109.33 834.11,-107.22 835.66,-104.99"/>
    </edge>
    <edge id=":90_0" function="internal">
        <lane id=":90_0_0" index="0" disallow="pedestrian tram rail_urban rail rail_electric rail_fast ship" speed="36.11" length="20.17" width="3.50" shape="870.49,88.34 861.99,92.96 852.93,98.25"/>
    </edge>
    <edge id=":90_1" function="internal">
        <lane id=":90_1_0" index="0" disallow="pedestrian tram rail_urban rail rail_electric rail_fast ship" speed="10.36" length="17.73" width="3.50" shape="868.58,85.01 867.45,84.90 865.09,84.39 862.82,83.64 860.64,82.66 858.56,81.48 855.71,79.44 853.09,77.12"/>
    </edge>
    <edge id=":90_2" function="internal">