<routes>
	<vehicle depart="0.1" departLane="0" departPos="21.843251597109493" departSpeed="2.7500044" id="31" type="passenger">
		<route edges=":80_4 14553"/>
	</vehicle>
	<vehicle depart="0.1" departLane="0" departPos="66.05279031155327" departSpeed="0.86719953" id="314" type="passenger">
		<route edges="14845 14554"/>
	</vehicle>
	<vehicle depart="0.1" departLane="0" departPos="7.1575338891971" departSpeed="7.2116266" id="329" type="passenger">
		<route edges=":88_5 14705"/>
	</vehicle>
	<vehicle depart="0.1" departLane="0" departPos="68.29674074932682" departSpeed="3.1782589" id="340" type="passenger">
		<route edges=":89_5 14702 14705"/>
	</vehicle>
	<vehicle depart="0.1" departLane="0" departPos="12.128322370297784" departSpeed="4.1020115" id="343" type="passenger">
		<route edges="14702 14339"/>
	</vehicle>
	<vehicle depart="0.1" departLane="0" departPos="79.12844495082368" departSpeed="4.8037165" id="349" type="passenger">
		<route edges=":89_5 14702 14705"/>
	</vehicle>
	<vehicle depart="0.1" departLane="0" departPos="38.95099649565851" departSpeed="7.853479" id="354" type="passenger">
		<route edges=":89_5 14702"/>
	</vehicle>
	<vehicle depart="0.1" departLane="0" departPos="14.176440955810017" departSpeed="2.0993073" id="355" type="passenger">
		<route edges=":89_5 14702"/>
	</vehicle>
</routes>
