<routes>
	<vehicle depart="0.1" departLane="0" departPos="6.414043097346684" departSpeed="1.524828" id="336" type="bicycle">
		<route edges=":142_7 5843"/>
	</vehicle>
	<vehicle depart="0.1" departLane="0" departPos="31.827564325083568" departSpeed="0.0" id="334" type="passenger">
		<route edges="5847 5617"/>
	</vehicle>
	<vehicle depart="0.1" departLane="0" departPos="69.90212212993963" departSpeed="0.0" id="369" type="passenger">
		<route edges="6258 5843"/>
	</vehicle>
	<vehicle depart="0.1" departLane="0" departPos="14.10567300138852" departSpeed="2.8419084" id="389" type="passenger">
		<route edges=":142_2 6255"/>
	</vehicle>
	<vehicle depart="0.1" departLane="0" departPos="23.304323754488397" departSpeed="0.62445058" id="3112" type="passenger">
		<route edges="5846 5843"/>
	</vehicle>
	<vehicle depart="0.1" departLane="0" departPos="26.05426901654732" departSpeed="3.3026712" id="3125" type="passenger">
		<route edges=":139_3 5846 5843"/>
	</vehicle>
	<vehicle depart="0.1" departLane="0" departPos="62.40344282858526" departSpeed="0.0" id="332" type="motorcycle">
		<route edges="6258 5843"/>
	</vehicle>
	<vehicle depart="0.1" departLane="0" departPos="24.668072890428967" departSpeed="1.3893389e-05" id="362" type="truck">
		<route edges="5847 5617"/>
	</vehicle>
	<vehicle depart="0.1" departLane="0" departPos="14.09139068151872" departSpeed="0.58542119" id="377" type="truck">
		<route edges="5847 5617"/>
	</vehicle>
	<vehicle depart="0.1" departLane="0" departPos="30.5586394414171" departSpeed="1.4412803" id="3106" type="truck">
		<route edges="5844 5847"/>
	</vehicle>
</routes>
