<routes>
	<vehicle depart="0.1" departLane="0" departPos="7.893893400523075" departSpeed="0.0" id="317" type="passenger">
		<route edges="66667 66176"/>
	</vehicle>
	<vehicle depart="0.1" departLane="0" departPos="132.87564629398665" departSpeed="5.0654518" id="327" type="passenger">
		<route edges=":56_3 66175 66664"/>
	</vehicle>
	<vehicle depart="0.1" departLane="0" departPos="2.5" departSpeed="2.6533051" id="330" type="passenger">
		<route edges=":51_10 66172"/>
	</vehicle>
	<vehicle depart="0.1" departLane="0" departPos="5.459452610402085" departSpeed="6.992142" id="342" type="passenger">
		<route edges=":55_3 66506"/>
	</vehicle>
	<vehicle depart="0.1" departLane="0" departPos="61.440898455044696" departSpeed="1.8074877" id="347" type="passenger">
		<route edges="66173 66668"/>
	</vehicle>
	<vehicle depart="0.1" departLane="0" departPos="53.29377660076535" departSpeed="0.67246339" id="350" type="passenger">
		<route edges="66173 66668"/>
	</vehicle>
	<vehicle depart="0.1" departLane="0" departPos="28.6287058910245" departSpeed="6.515811" id="35" type="motorcycle">
		<route edges=":51_11 66668 66506"/>
	</vehicle>
</routes>
