<!-- generated on Tue Feb  9 22:05:53 2021 by Eclipse SUMO netconvert Version 1.8.0
<configuration xmlns:xsi="http://www.w3.org/2001/XMLSchema-instance" xsi:noNamespaceSchemaLocation="http://sumo.dlr.de/xsd/netconvertConfiguration.xsd">

    <input>
        <node-files value="./converted_scenarios/scenario-factory/GRC_Perama-6_10_I-1-1/GRC_Perama-6_10_I-1-1.nod.xml"/>
        <edge-files value="./converted_scenarios/scenario-factory/GRC_Perama-6_10_I-1-1/GRC_Perama-6_10_I-1-1.edg.xml"/>
        <connection-files value="./converted_scenarios/scenario-factory/GRC_Perama-6_10_I-1-1/GRC_Perama-6_10_I-1-1.con.xml"/>
        <tllogic-files value="./converted_scenarios/scenario-factory/GRC_Perama-6_10_I-1-1/GRC_Perama-6_10_I-1-1.tll.xml"/>
        <type-files value="/home/zen/commonroad-interactive-benchmarks/install/commonroad-map-tool/crmapconverter/sumo_map/templates/DEU.typ.xml"/>
    </input>

    <output>
        <output-file value="./converted_scenarios/scenario-factory/GRC_Perama-6_10_I-1-1/GRC_Perama-6_10_I-1-1.net.xml"/>
    </output>

    <processing>
        <geometry.remove.keep-edges.explicit value="true"/>
        <geometry.avoid-overlap value="true"/>
        <offset.disable-normalization value="true"/>
    </processing>

    <junctions>
        <no-turnarounds value="true"/>
        <junctions.internal-link-detail value="20"/>
    </junctions>

    <report>
        <aggregate-warnings value="5"/>
    </report>

    <random_number>
        <seed value="1234"/>
    </random_number>

</configuration>
--><net xmlns:xsi="http://www.w3.org/2001/XMLSchema-instance" version="1.6" junctionCornerDetail="5" junctionLinkDetail="20" limitTurnSpeed="5.50" xsi:noNamespaceSchemaLocation="http://sumo.dlr.de/xsd/net_file.xsd">

    <location netOffset="0.00,0.00" convBoundary="-556.85,-822.07,-280.50,-662.75" origBoundary="-556.85,-822.07,-280.50,-662.75" projParameter="!"/>

    <type id="highway.bridleway" priority="1" speed="2.78" allow="pedestrian" oneway="1" width="2.00"/>
    <type id="highway.bus_guideway" priority="1" speed="27.78" allow="bus" oneway="1"/>
    <type id="highway.cycleway" priority="1" speed="8.33" allow="bicycle" oneway="0" width="1.00"/>
    <type id="highway.footway" priority="1" speed="2.78" allow="pedestrian" oneway="1" width="2.00"/>
    <type id="highway.ford" priority="1" speed="2.78" allow="army" oneway="0"/>
    <type id="highway.living_street" priority="2" speed="2.78" disallow="tram rail_urban rail rail_electric rail_fast ship" oneway="0"/>
    <type id="highway.motorway" priority="14" speed="39.44" allow="private emergency authority army vip passenger hov taxi bus coach delivery truck trailer motorcycle evehicle custom1 custom2" oneway="1"/>
    <type id="highway.motorway_link" priority="9" speed="22.22" allow="private emergency authority army vip passenger hov taxi bus coach delivery truck trailer motorcycle evehicle custom1 custom2" oneway="1"/>
    <type id="highway.path" priority="1" speed="2.78" allow="pedestrian bicycle" oneway="0" width="2.00"/>
    <type id="highway.pedestrian" priority="1" speed="2.78" allow="pedestrian" oneway="1" width="2.00"/>
    <type id="highway.primary" priority="12" speed="27.78" disallow="pedestrian tram rail_urban rail rail_electric rail_fast ship" oneway="0"/>
    <type id="highway.primary_link" priority="7" speed="22.22" disallow="pedestrian tram rail_urban rail rail_electric rail_fast ship" oneway="0"/>
    <type id="highway.raceway" priority="15" speed="83.33" allow="vip" oneway="0"/>
    <type id="highway.residential" priority="3" speed="13.89" disallow="pedestrian tram rail_urban rail rail_electric rail_fast ship" oneway="0"/>
    <type id="highway.secondary" priority="11" speed="27.78" disallow="pedestrian tram rail_urban rail rail_electric rail_fast ship" oneway="0"/>
    <type id="highway.secondary_link" priority="6" speed="22.22" disallow="pedestrian tram rail_urban rail rail_electric rail_fast ship" oneway="0"/>
    <type id="highway.service" priority="1" speed="5.56" allow="pedestrian delivery bicycle" oneway="0"/>
    <type id="highway.stairs" priority="1" speed="1.39" allow="pedestrian" oneway="1" width="2.00"/>
    <type id="highway.step" priority="1" speed="1.39" allow="pedestrian" oneway="1" width="2.00"/>
    <type id="highway.steps" priority="1" speed="1.39" allow="pedestrian" oneway="1" width="2.00"/>
    <type id="highway.tertiary" priority="10" speed="22.22" disallow="pedestrian tram rail_urban rail rail_electric rail_fast ship" oneway="0"/>
    <type id="highway.tertiary_link" priority="5" speed="22.22" disallow="pedestrian tram rail_urban rail rail_electric rail_fast ship" oneway="0"/>
    <type id="highway.track" priority="1" speed="5.56" allow="pedestrian motorcycle moped bicycle" oneway="0"/>
    <type id="highway.trunk" priority="13" speed="27.78" disallow="pedestrian bicycle tram rail_urban rail rail_electric rail_fast ship" oneway="0"/>
    <type id="highway.trunk_link" priority="8" speed="22.22" disallow="pedestrian bicycle tram rail_urban rail rail_electric rail_fast ship" oneway="0"/>
    <type id="highway.unclassified" priority="4" speed="13.89" disallow="pedestrian tram rail_urban rail rail_electric rail_fast ship" oneway="0"/>
    <type id="highway.unsurfaced" priority="1" speed="8.33" disallow="tram rail_urban rail rail_electric rail_fast ship" oneway="0"/>
    <type id="railway.highspeed" priority="21" speed="69.44" allow="rail_fast" oneway="1"/>
    <type id="railway.light_rail" priority="19" speed="27.78" allow="rail_urban" oneway="1"/>
    <type id="railway.preserved" priority="16" speed="27.78" allow="rail" oneway="1"/>
    <type id="railway.rail" priority="20" speed="44.44" allow="rail" oneway="1"/>
    <type id="railway.subway" priority="18" speed="27.78" allow="rail_urban" oneway="1"/>
    <type id="railway.tram" priority="17" speed="13.89" allow="tram" oneway="1"/>

    <edge id=":21_0" function="internal">
        <lane id=":21_0_0" index="0" disallow="pedestrian tram rail_urban rail rail_electric rail_fast ship" speed="36.11" length="2.94" width="3.50" shape="-304.52,-747.10 -301.74,-748.07"/>
    </edge>
    <edge id=":44_0" function="internal">
        <lane id=":44_0_0" index="0" disallow="pedestrian tram rail_urban rail rail_electric rail_fast ship" speed="36.11" length="2.96" width="3.50" shape="-300.55,-744.78 -303.34,-743.80"/>
    </edge>
    <edge id=":51_0" function="internal">
        <lane id=":51_0_0" index="0" disallow="pedestrian tram rail_urban rail rail_electric rail_fast ship" speed="15.90" length="36.09" width="3.50" shape="-388.63,-734.65 -389.18,-735.42 -390.48,-736.88 -391.97,-738.15 -393.61,-739.24 -395.37,-740.15 -398.22,-741.25 -401.21,-742.03 -404.28,-742.56 -407.41,-742.88 -411.63,-743.04 -416.95,-742.91 -422.26,-742.48"/>
    </edge>
    <edge id=":51_1" function="internal">
        <lane id=":51_1_0" index="0" disallow="pedestrian tram rail_urban rail rail_electric rail_fast ship" speed="36.11" length="42.88" width="3.50" shape="-388.63,-734.65 -396.71,-746.47 -402.68,-754.75 -407.05,-760.40 -410.35,-764.29 -412.47,-766.50 -414.01,-767.85 -414.82,-768.43"/>
    </edge>
    <edge id=":51_2" function="internal">
        <lane id=":51_2_0" index="0" disallow="pedestrian tram rail_urban rail rail_electric rail_fast ship" speed="15.15" length="36.44" width="3.50" shape="-388.63,-734.65 -389.84,-736.69 -390.81,-738.83 -391.52,-741.07 -391.98,-743.37 -392.18,-745.71 -392.14,-748.06 -391.69,-751.56 -390.85,-754.98 -389.68,-758.31 -388.26,-761.54 -386.06,-765.69 -384.23,-768.70"/>
    </edge>
    <edge id=":51_3" function="internal">
        <lane id=":51_3_0" index="0" disallow="pedestrian tram rail_urban rail rail_electric rail_fast ship" speed="14.30" length="32.41" width="3.50" shape="-381.27,-766.83 -382.97,-764.05 -385.01,-760.23 -386.31,-757.30 -387.39,-754.31 -388.18,-751.26 -388.62,-748.16 -388.68,-746.13 -388.53,-744.10 -388.17,-742.12 -387.58,-740.19 -386.76,-738.35 -385.72,-736.59"/>
    </edge>
    <edge id=":51_4" function="internal">
        <lane id=":51_4_0" index="0" disallow="pedestrian tram rail_urban rail rail_electric rail_fast ship" speed="20.37" length="49.44" width="3.50" shape="-381.27,-766.83 -381.89,-765.88 -384.45,-762.34 -387.30,-758.99 -390.43,-755.89 -393.83,-753.08 -397.46,-750.57 -401.29,-748.41 -405.30,-746.58 -409.43,-745.09 -413.66,-743.92 -417.94,-743.06 -422.26,-742.48"/>
    </edge>
    <edge id=":51_5" function="internal">
        <lane id=":51_5_0" index="0" disallow="pedestrian tram rail_urban rail rail_electric rail_fast ship" speed="12.87" length="37.63" width="3.50" shape="-381.27,-766.83 -382.83,-764.77 -383.79,-763.79 -384.82,-762.94 -385.94,-762.18 -387.13,-761.55 -388.38,-761.05 -389.66,-760.68 -390.95,-760.43 -392.28,-760.30 -394.82,-760.33 -397.31,-760.66 -399.74,-761.22 -403.19,-762.38 -406.52,-763.81 -410.76,-766.00 -414.82,-768.43"/>
    </edge>
    <edge id=":51_6" function="internal">
        <lane id=":51_6_0" index="0" disallow="pedestrian tram rail_urban rail rail_electric rail_fast ship" speed="11.93" length="32.19" width="3.50" shape="-413.02,-771.43 -409.29,-769.19 -405.50,-767.19 -402.56,-765.89 -399.54,-764.81 -397.46,-764.26 -395.35,-763.90 -393.21,-763.79 -392.14,-763.85 -391.08,-763.99 -390.04,-764.24 -389.03,-764.58 -388.06,-765.04 -387.15,-765.60 -386.30,-766.26 -385.53,-767.01 -384.23,-768.70"/>
    </edge>
    <edge id=":51_7" function="internal">
        <lane id=":51_7_0" index="0" disallow="pedestrian tram rail_urban rail rail_electric rail_fast ship" speed="36.11" length="44.42" width="3.50" shape="-413.02,-771.43 -411.97,-770.69 -410.29,-769.23 -408.02,-766.90 -404.58,-762.89 -400.08,-757.10 -393.96,-748.64 -385.72,-736.59"/>
    </edge>
    <edge id=":51_8" function="internal">
        <lane id=":51_8_0" index="0" disallow="pedestrian tram rail_urban rail rail_electric rail_fast ship" speed="11.66" length="53.74" width="3.50" shape="-413.02,-771.43 -408.15,-768.15 -405.03,-765.77 -402.09,-763.15 -400.67,-761.66 -399.38,-760.03 -398.25,-758.17 -397.46,-755.99 -397.33,-753.51 -398.13,-751.12 -399.60,-749.23 -401.36,-747.85 -403.20,-746.81 -405.08,-745.99 -406.98,-745.32 -408.89,-744.76 -412.69,-743.88 -416.53,-743.21 -422.26,-742.48"/>
    </edge>
    <edge id=":51_9" function="internal">
        <lane id=":51_9_0" index="0" disallow="pedestrian tram rail_urban rail rail_electric rail_fast ship" speed="10.51" length="43.33" width="3.50" shape="-422.63,-745.96 -417.66,-746.59 -414.38,-747.16 -411.12,-747.91 -409.52,-748.37 -407.94,-748.92 -406.41,-749.57 -404.94,-750.37 -403.61,-751.37 -402.54,-752.64 -401.95,-754.19 -401.99,-755.85 -402.53,-757.42 -403.38,-758.85 -404.41,-760.17 -405.55,-761.38 -408.03,-763.61 -410.68,-765.64 -414.82,-768.43"/>
    </edge>
    <edge id=":51_10" function="internal">
        <lane id=":51_10_0" index="0" disallow="pedestrian tram rail_urban rail rail_electric rail_fast ship" speed="19.71" length="46.28" width="3.50" shape="-422.63,-745.96 -418.55,-746.51 -414.52,-747.32 -410.55,-748.41 -406.68,-749.80 -402.94,-751.51 -399.35,-753.53 -395.96,-755.86 -392.79,-758.48 -389.87,-761.38 -387.20,-764.51 -384.79,-767.84 -384.23,-768.70"/>
    </edge>
    <edge id=":51_11" function="internal">
        <lane id=":51_11_0" index="0" disallow="pedestrian tram rail_urban rail rail_electric rail_fast ship" speed="16.70" length="39.89" width="3.50" shape="-422.63,-745.96 -416.95,-746.41 -411.26,-746.53 -406.71,-746.33 -403.31,-745.95 -399.95,-745.32 -396.66,-744.40 -393.49,-743.13 -391.49,-742.04 -389.61,-740.75 -387.90,-739.25 -386.40,-737.54 -385.72,-736.59"/>
    </edge>
    <edge id=":52_0" function="internal">
        <lane id=":52_0_0" index="0" disallow="pedestrian tram rail_urban rail rail_electric rail_fast ship" speed="36.11" length="42.80" width="3.50" shape="-391.04,-673.93 -407.54,-679.80 -419.25,-683.66 -426.11,-685.64 -429.99,-686.52 -431.82,-686.72"/>
    </edge>
    <edge id=":52_1" function="internal">
        <lane id=":52_1_0" index="0" disallow="pedestrian tram rail_urban rail rail_electric rail_fast ship" speed="11.52" length="51.06" width="3.50" shape="-391.04,-673.93 -394.47,-675.24 -399.53,-677.40 -402.87,-679.06 -406.09,-680.96 -407.68,-682.07 -409.20,-683.31 -410.63,-684.75 -411.87,-686.48 -412.74,-688.56 -412.93,-690.89 -412.37,-693.13 -411.24,-695.05 -409.84,-696.60 -408.30,-697.89 -406.71,-699.01 -405.06,-700.00 -401.72,-701.70 -396.63,-703.82"/>
    </edge>
    <edge id=":52_2" function="internal">
        <lane id=":52_2_0" index="0" disallow="pedestrian tram rail_urban rail rail_electric rail_fast ship" speed="10.37" length="41.06" width="3.50" shape="-395.47,-700.51 -399.75,-698.72 -402.57,-697.27 -403.92,-696.44 -405.21,-695.52 -406.41,-694.48 -407.44,-693.27 -408.18,-691.88 -408.47,-690.34 -408.19,-688.78 -407.48,-687.38 -406.48,-686.15 -405.33,-685.06 -404.08,-684.08 -402.77,-683.19 -400.02,-681.61 -397.18,-680.21 -392.80,-678.34 -389.84,-677.22"/>
    </edge>
    <edge id=":52_3" function="internal">
        <lane id=":52_3_0" index="0" disallow="pedestrian tram rail_urban rail rail_electric rail_fast ship" speed="36.11" length="39.25" width="3.50" shape="-395.47,-700.51 -399.29,-698.92 -405.01,-696.09 -413.48,-691.66 -417.34,-689.88 -421.32,-688.39 -424.40,-687.54 -427.53,-686.97 -430.71,-686.73 -431.82,-686.72"/>
    </edge>
    <edge id=":52_4" function="internal">
        <lane id=":52_4_0" index="0" disallow="pedestrian tram rail_urban rail rail_electric rail_fast ship" speed="36.11" length="38.18" width="3.50" shape="-431.91,-690.22 -430.78,-690.22 -427.81,-690.45 -424.89,-690.99 -422.03,-691.79 -418.25,-693.23 -414.56,-694.95 -406.25,-699.34 -400.57,-702.17 -396.63,-703.82"/>
    </edge>
    <edge id=":52_5" function="internal">
        <lane id=":52_5_0" index="0" disallow="pedestrian tram rail_urban rail rail_electric rail_fast ship" speed="36.11" length="44.11" width="3.50" shape="-431.91,-690.22 -429.65,-690.00 -425.57,-689.10 -418.53,-687.08 -406.60,-683.17 -389.84,-677.22"/>
    </edge>
    <edge id=":53_0" function="internal">
        <lane id=":53_0_0" index="0" disallow="pedestrian tram rail_urban rail rail_electric rail_fast ship" speed="10.85" length="28.07" width="3.50" shape="-336.40,-705.02 -339.81,-710.48 -341.79,-713.05 -343.26,-714.64 -344.87,-716.08 -345.75,-716.72 -346.66,-717.29 -347.62,-717.79 -348.63,-718.19 -349.67,-718.47 -350.74,-718.64 -351.82,-718.68 -352.90,-718.58 -353.96,-718.36 -354.99,-718.03 -355.98,-717.60 -357.85,-716.51"/>
    </edge>
    <edge id=":53_1" function="internal">
        <lane id=":53_1_0" index="0" disallow="pedestrian tram rail_urban rail rail_electric rail_fast ship" speed="10.44" length="27.71" width="3.50" shape="-336.40,-705.02 -340.03,-711.38 -341.15,-713.90 -342.06,-716.49 -342.70,-719.17 -342.89,-720.54 -342.98,-721.91 -342.96,-723.29 -342.81,-724.66 -342.53,-726.01 -342.11,-727.32 -341.56,-728.58 -340.89,-729.78 -340.25,-730.69"/>
    </edge>
    <edge id=":53_2" function="internal">
        <lane id=":53_2_0" index="0" disallow="pedestrian tram rail_urban rail rail_electric rail_fast ship" speed="9.88" length="24.03" width="3.50" shape="-340.00,-730.07 -340.49,-729.80 -340.90,-729.43 -341.22,-728.97 -341.46,-728.41 -341.60,-727.74 -341.65,-726.99 -341.62,-726.13 -341.50,-725.17 -341.29,-724.12 -340.99,-722.97 -340.60,-721.72 -340.12,-720.38 -339.56,-718.93 -338.90,-717.39 -338.16,-715.75 -337.33,-714.02 -336.41,-712.18 -335.40,-710.25 -334.31,-708.22"/>
    </edge>
    <edge id=":53_3" function="internal">
        <lane id=":53_3_0" index="0" disallow="pedestrian tram rail_urban rail rail_electric rail_fast ship" speed="36.11" length="22.07" width="3.50" shape="-339.43,-728.66 -343.99,-725.79 -357.85,-716.51"/>
    </edge>
    <edge id=":53_4" function="internal">
        <lane id=":53_4_0" index="0" disallow="pedestrian tram rail_urban rail rail_electric rail_fast ship" speed="36.11" length="22.82" width="3.50" shape="-359.82,-719.40 -345.81,-728.78 -340.76,-731.95"/>
    </edge>
    <edge id=":53_5" function="internal">
        <lane id=":53_5_0" index="0" disallow="pedestrian tram rail_urban rail rail_electric rail_fast ship" speed="10.40" length="14.72" width="3.50" shape="-359.79,-719.42 -359.06,-719.90 -358.34,-720.34 -357.61,-720.73 -356.88,-721.08 -356.15,-721.38 -355.42,-721.63 -354.70,-721.85 -353.97,-722.01 -353.23,-722.14 -352.50,-722.22 -351.77,-722.25 -351.04,-722.24 -350.31,-722.18 -349.57,-722.08 -348.84,-721.94 -348.10,-721.75 -347.37,-721.52 -346.63,-721.24 -345.89,-720.91"/>
    </edge>
    <edge id=":55_0" function="internal">
        <lane id=":55_0_0" index="0" disallow="pedestrian tram rail_urban rail rail_electric rail_fast ship" speed="36.11" length="37.03" width="3.50" shape="-357.97,-716.42 -361.63,-714.13 -366.30,-711.66 -372.06,-709.02 -378.92,-706.26 -387.87,-703.08 -391.86,-701.77"/>
    </edge>
    <edge id=":55_1" function="internal">
        <lane id=":55_1_0" index="0" disallow="pedestrian tram rail_urban rail rail_electric rail_fast ship" speed="11.83" length="32.48" width="3.50" shape="-357.97,-716.42 -360.29,-715.07 -361.49,-714.57 -362.72,-714.18 -363.99,-713.92 -365.28,-713.81 -366.58,-713.84 -367.86,-714.01 -369.12,-714.32 -370.34,-714.75 -372.66,-715.90 -374.80,-717.35 -376.78,-719.03 -379.49,-721.82 -381.94,-724.83 -384.19,-728.00"/>
    </edge>
    <edge id=":55_2" function="internal">
        <lane id=":55_2_0" index="0" disallow="pedestrian tram rail_urban rail rail_electric rail_fast ship" speed="10.78" length="26.85" width="3.50" shape="-381.28,-729.95 -379.28,-727.13 -377.14,-724.46 -374.80,-721.99 -373.15,-720.54 -371.39,-719.28 -369.50,-718.26 -368.57,-717.90 -367.60,-717.62 -366.63,-717.44 -365.65,-717.38 -364.68,-717.43 -363.71,-717.59 -362.76,-717.86 -361.86,-718.21 -359.97,-719.30"/>
    </edge>
    <edge id=":55_3" function="internal">
        <lane id=":55_3_0" index="0" disallow="pedestrian tram rail_urban rail rail_electric rail_fast ship" speed="11.64" length="37.15" width="3.50" shape="-381.28,-729.95 -380.53,-728.79 -379.17,-726.42 -377.99,-723.90 -377.10,-721.24 -376.79,-719.80 -376.60,-718.34 -376.55,-716.86 -376.67,-715.35 -376.98,-713.86 -377.47,-712.42 -378.13,-711.05 -378.95,-709.78 -379.88,-708.63 -380.91,-707.59 -382.01,-706.65 -383.18,-705.80 -385.56,-704.37 -388.07,-703.18 -391.86,-701.77"/>
    </edge>
    <edge id=":55_4" function="internal">
        <lane id=":55_4_0" index="0" disallow="pedestrian tram rail_urban rail rail_electric rail_fast ship" speed="10.59" length="30.52" width="3.50" shape="-393.00,-705.08 -389.66,-706.31 -387.54,-707.32 -385.53,-708.52 -384.58,-709.21 -383.68,-709.97 -382.86,-710.80 -382.11,-711.70 -381.47,-712.69 -380.95,-713.74 -380.57,-714.84 -380.33,-715.99 -380.23,-717.16 -380.26,-718.33 -380.41,-719.49 -380.65,-720.64 -381.39,-722.86 -382.38,-724.99 -383.55,-727.02 -384.19,-728.00"/>
    </edge>
    <edge id=":55_5" function="internal">
        <lane id=":55_5_0" index="0" disallow="pedestrian tram rail_urban rail rail_electric rail_fast ship" speed="36.11" length="36.07" width="3.50" shape="-393.00,-705.08 -389.03,-706.38 -380.25,-709.50 -373.55,-712.18 -367.95,-714.74 -363.45,-717.12 -359.97,-719.30"/>
    </edge>
    <edge id=":56_0" function="internal">
        <lane id=":56_0_0" index="0" disallow="pedestrian tram rail_urban rail rail_electric rail_fast ship" speed="31.38" length="142.13" width="3.48" shape="-433.35,-741.64 -442.80,-740.93 -451.17,-740.00 -459.50,-738.75 -467.77,-737.15 -474.94,-735.44 -482.03,-733.41 -489.01,-731.05 -494.89,-728.74 -500.65,-726.16 -506.28,-723.29 -511.75,-720.13 -517.03,-716.67 -522.10,-712.90 -526.94,-708.84 -531.52,-704.49 -535.13,-700.65 -539.18,-695.81 -542.93,-690.73 -546.37,-685.43 -549.50,-679.94 -551.41,-676.19"/>
    </edge>
    <edge id=":56_1" function="internal">
        <lane id=":56_1_0" index="0" disallow="pedestrian tram rail_urban rail rail_electric rail_fast ship" speed="28.51" length="134.24" width="3.42" shape="-433.35,-741.64 -444.86,-740.84 -456.34,-739.70 -466.74,-738.33 -476.05,-736.76 -484.27,-735.07 -492.41,-733.06 -499.46,-730.99 -506.40,-728.59 -512.23,-726.24 -517.93,-723.57 -522.54,-721.07 -527.00,-718.31 -531.27,-715.26 -534.51,-712.60 -537.56,-709.73 -540.41,-706.64 -543.01,-703.36 -545.34,-699.87 -547.37,-696.20 -549.09,-692.37 -549.82,-690.41"/>
    </edge>
    <edge id=":56_2" function="internal">
        <lane id=":56_2_0" index="0" disallow="pedestrian tram rail_urban rail rail_electric rail_fast ship" speed="28.86" length="138.34" width="3.50" shape="-553.13,-691.56 -552.35,-693.64 -550.56,-697.65 -548.44,-701.50 -546.02,-705.17 -543.31,-708.64 -540.35,-711.88 -537.18,-714.89 -533.82,-717.70 -529.42,-720.89 -524.81,-723.78 -520.06,-726.39 -514.20,-729.18 -508.20,-731.63 -501.08,-734.13 -493.86,-736.28 -485.53,-738.37 -477.12,-740.11 -467.61,-741.73 -456.99,-743.15 -445.28,-744.31 -433.57,-745.13"/>
    </edge>
    <edge id=":56_3" function="internal">
        <lane id=":56_3_0" index="0" disallow="pedestrian tram rail_urban rail rail_electric rail_fast ship" speed="31.80" length="145.83" width="3.50" shape="-554.55,-677.72 -552.59,-681.58 -549.38,-687.22 -545.84,-692.68 -541.98,-697.92 -537.81,-702.91 -534.10,-706.87 -529.39,-711.36 -524.42,-715.55 -519.20,-719.44 -513.77,-723.01 -508.16,-726.27 -502.38,-729.23 -496.46,-731.89 -490.43,-734.27 -483.28,-736.69 -476.03,-738.78 -468.69,-740.53 -460.24,-742.18 -451.73,-743.46 -443.19,-744.41 -433.57,-745.13"/>
    </edge>

    <edge id="66172" from="51" to="14" priority="3" type="highway.residential" spreadType="center" length="61.28" shape="-403.00,-755.38 -354.15,-822.07">
        <lane id="66172_0" index="0" disallow="pedestrian tram rail_urban rail rail_electric rail_fast ship" speed="36.11" length="61.28" width="3.50" customShape="1" shape="-384.23,-768.70 -382.08,-772.10 -375.59,-782.85 -368.41,-795.53 -354.15,-822.07"/>
    </edge>
    <edge id="66173" from="32" to="51" priority="3" type="highway.residential" spreadType="center" length="61.59" shape="-351.06,-820.43 -400.18,-753.31">
        <lane id="66173_0" index="0" disallow="pedestrian tram rail_urban rail rail_electric rail_fast ship" speed="36.11" length="61.59" width="3.50" customShape="1" shape="-351.06,-820.43 -365.37,-793.80 -372.58,-781.06 -379.11,-770.24 -381.30,-766.79"/>
    </edge>
    <edge id="66175" from="56" to="51" priority="3" type="highway.residential" spreadType="center" length="11.05" shape="-513.38,-705.36 -402.29,-755.97">
        <lane id="66175_0" index="0" disallow="pedestrian tram rail_urban rail rail_electric rail_fast ship" speed="36.11" length="11.05" width="3.50" customShape="1" shape="-433.57,-745.13 -430.95,-745.28 -422.55,-745.96"/>
    </edge>
    <edge id="66176" from="51" to="56" priority="3" type="highway.residential" spreadType="center" length="11.13" shape="-400.84,-752.78 -511.93,-702.18">
        <lane id="66176_0" index="0" disallow="pedestrian tram rail_urban rail rail_electric rail_fast ship" speed="36.11" length="11.13" width="3.50" customShape="1" shape="-422.26,-742.48 -430.71,-741.79 -433.36,-741.63"/>
    </edge>
    <edge id="66178" from="47" to="56" priority="3" type="highway.residential" spreadType="center" length="5.24" shape="-554.78,-686.61 -513.29,-705.38">
        <lane id="66178_0" index="0" disallow="pedestrian tram rail_urban rail rail_electric rail_fast ship" speed="36.11" length="5.24" width="3.45" customShape="1" shape="-554.78,-686.61 -553.20,-691.35 -553.12,-691.58"/>
    </edge>
    <edge id="66179" from="56" to="37" priority="3" type="highway.residential" spreadType="center" length="5.25" shape="-511.91,-702.23 -551.55,-685.45">
        <lane id="66179_0" index="0" disallow="pedestrian tram rail_urban rail rail_electric rail_fast ship" speed="36.11" length="5.25" width="3.42" customShape="1" shape="-549.82,-690.41 -549.86,-690.29 -549.91,-690.17 -551.55,-685.45"/>
    </edge>
    <edge id="66249" from="36" to="53" priority="3" type="highway.residential" spreadType="center" length="4.57" shape="-334.04,-701.11 -344.97,-722.37">
        <lane id="66249_0" index="0" disallow="pedestrian tram rail_urban rail rail_electric rail_fast ship" speed="36.11" length="4.57" width="3.50" customShape="1" shape="-334.04,-701.11 -336.40,-705.02"/>
    </edge>
    <edge id="66454" from="52" to="31" priority="3" type="highway.residential" spreadType="center" length="32.63" shape="-405.31,-690.32 -359.19,-666.04">
        <lane id="66454_0" index="0" disallow="pedestrian tram rail_urban rail rail_electric rail_fast ship" speed="36.11" length="32.63" width="3.50" customShape="1" shape="-389.84,-677.22 -374.52,-671.63 -359.19,-666.04"/>
    </edge>
    <edge id="66455" from="39" to="52" priority="3" type="highway.residential" spreadType="center" length="32.63" shape="-360.39,-662.75 -406.94,-687.22">
        <lane id="66455_0" index="0" disallow="pedestrian tram rail_urban rail rail_electric rail_fast ship" speed="36.11" length="32.63" width="3.50" customShape="1" shape="-360.39,-662.75 -375.72,-668.34 -391.04,-673.93"/>
    </edge>
    <edge id="66457" from="45" to="52" priority="3" type="highway.residential" spreadType="center" length="30.28" shape="-461.84,-686.16 -406.16,-690.49">
        <lane id="66457_0" index="0" disallow="pedestrian tram rail_urban rail rail_electric rail_fast ship" speed="36.11" length="30.28" width="3.49" customShape="1" shape="-461.84,-686.16 -457.33,-687.31 -451.75,-688.37 -443.57,-689.46 -436.89,-690.08 -431.91,-690.22"/>
    </edge>
    <edge id="66458" from="52" to="30" priority="3" type="highway.residential" spreadType="center" length="29.36" shape="-405.89,-687.00 -460.85,-682.80">
        <lane id="66458_0" index="0" disallow="pedestrian tram rail_urban rail rail_electric rail_fast ship" speed="36.11" length="29.36" width="3.50" customShape="1" shape="-431.82,-686.72 -436.72,-686.59 -443.19,-685.98 -451.16,-684.92 -456.54,-683.90 -460.85,-682.80"/>
    </edge>
    <edge id="66506" from="55" to="52" priority="3" type="highway.residential" spreadType="center" length="3.83" shape="-376.76,-715.57 -404.84,-687.51">
        <lane id="66506_0" index="0" disallow="pedestrian tram rail_urban rail rail_electric rail_fast ship" speed="36.11" length="3.83" width="3.50" customShape="1" shape="-391.86,-701.77 -393.63,-701.16 -395.48,-700.52"/>
    </edge>
    <edge id="66507" from="52" to="55" priority="3" type="highway.residential" spreadType="center" length="3.87" shape="-407.31,-689.98 -379.23,-718.04">
        <lane id="66507_0" index="0" disallow="pedestrian tram rail_urban rail rail_electric rail_fast ship" speed="36.11" length="3.87" width="3.50" customShape="1" shape="-396.63,-703.82 -394.77,-704.46 -392.97,-705.09"/>
    </edge>
    <edge id="66509" from="53" to="55" priority="3" type="highway.residential" spreadType="center" length="0.24" shape="-343.04,-721.34 -377.82,-715.01">
        <lane id="66509_0" index="0" disallow="pedestrian tram rail_urban rail rail_electric rail_fast ship" speed="36.11" length="0.24" width="3.50" customShape="1" shape="-357.85,-716.51 -357.95,-716.44 -358.05,-716.37"/>
    </edge>
    <edge id="66510" from="55" to="53" priority="3" type="highway.residential" spreadType="center" length="0.22" shape="-378.45,-718.45 -343.67,-724.78">
        <lane id="66510_0" index="0" disallow="pedestrian tram rail_urban rail rail_electric rail_fast ship" speed="36.11" length="0.22" width="3.50" customShape="1" shape="-359.97,-719.30 -359.79,-719.42"/>
    </edge>
    <edge id="66512" from="44" to="53" priority="3" type="highway.residential" spreadType="center" length="39.16" shape="-301.95,-744.31 -342.56,-721.50">
        <lane id="66512_0" index="0" disallow="pedestrian tram rail_urban rail rail_electric rail_fast ship" speed="36.11" length="39.16" width="3.50" customShape="1" shape="-303.34,-743.80 -313.96,-739.89 -325.59,-735.93 -340.00,-730.07"/>
    </edge>
    <edge id="66513" from="53" to="21" priority="3" type="highway.residential" spreadType="center" length="39.31" shape="-344.27,-724.55 -303.14,-747.61">
        <lane id="66513_0" index="0" disallow="pedestrian tram rail_urban rail rail_electric rail_fast ship" speed="36.11" length="39.31" width="3.50" customShape="1" shape="-341.31,-733.29 -326.91,-739.17 -315.21,-743.16 -304.52,-747.10"/>
    </edge>
    <edge id="66664" from="51" to="15" priority="3" type="highway.residential" spreadType="center" length="68.12" shape="-402.21,-752.74 -480.07,-785.15">
        <lane id="66664_0" index="0" disallow="pedestrian tram rail_urban rail rail_electric rail_fast ship" speed="36.11" length="68.12" width="3.50" customShape="1" shape="-414.82,-768.43 -417.41,-769.99 -423.16,-773.04 -428.17,-775.34 -433.31,-777.32 -439.51,-779.30 -446.78,-781.20 -452.68,-782.34 -459.13,-783.21 -470.11,-784.20 -480.07,-785.15"/>
    </edge>
    <edge id="66665" from="40" to="51" priority="3" type="highway.residential" spreadType="center" length="69.70" shape="-479.66,-788.63 -400.86,-755.98">
        <lane id="66665_0" index="0" disallow="pedestrian tram rail_urban rail rail_electric rail_fast ship" speed="36.11" length="69.70" width="3.50" customShape="1" shape="-479.66,-788.63 -469.62,-787.67 -458.49,-786.66 -451.87,-785.76 -445.80,-784.57 -438.36,-782.61 -431.99,-780.57 -426.70,-778.52 -421.54,-776.15 -415.64,-773.01 -412.94,-771.38"/>
    </edge>
    <edge id="66667" from="55" to="51" priority="3" type="highway.residential" spreadType="center" length="8.00" shape="-379.50,-715.76 -403.05,-753.45">
        <lane id="66667_0" index="0" disallow="pedestrian tram rail_urban rail rail_electric rail_fast ship" speed="36.11" length="8.00" width="3.50" customShape="1" shape="-384.19,-728.00 -386.41,-731.34 -388.63,-734.65"/>
    </edge>
    <edge id="66668" from="51" to="55" priority="3" type="highway.residential" spreadType="center" length="7.99" shape="-400.08,-755.30 -376.53,-717.62">