<routes>
	<vehicle depart="0.1" departLane="0" departPos="20.09212238597365" departSpeed="28.491219" id="342" type="passenger">
		<route edges="44718 44705"/>
	</vehicle>
	<vehicle depart="0.1" departLane="0" departPos="105.16416516460387" departSpeed="1.6698807" id="354" type="passenger">
		<route edges="44717 44714 45117"/>
	</vehicle>
	<vehicle depart="0.1" departLane="0" departPos="96.49238360594056" departSpeed="1.4329864" id="358" type="passenger">
		<route edges="44717 45036"/>
	</vehicle>
	<vehicle depart="0.1" departLane="0" departPos="57.737908517121625" departSpeed="19.268648" id="366" type="passenger">
		<route edges="45035 44718 44705"/>
	</vehicle>
	<vehicle depart="0.1" departLane="0" departPos="66.56760223526665" departSpeed="0.10118671" id="367" type="passenger">
		<route edges="44717 45036"/>
	</vehicle>
	<vehicle depart="0.1" departLane="0" departPos="78.6953585964089" departSpeed="2.2080652" id="373" type="passenger">
		<route edges="44717 45036"/>
	</vehicle>
	<vehicle depart="0.1" departLane="0" departPos="89.26137934183524" departSpeed="1.8031353" id="355" type="truck">
		<route edges="44717 45036"/>
	</vehicle>
</routes>
