<!-- generated on Tue Feb  9 22:17:26 2021 by Eclipse SUMO netconvert Version 1.8.0
<configuration xmlns:xsi="http://www.w3.org/2001/XMLSchema-instance" xsi:noNamespaceSchemaLocation="http://sumo.dlr.de/xsd/netconvertConfiguration.xsd">

    <input>
        <node-files value="./converted_scenarios/scenario-factory/DEU_Backnang-4_3_I-1-1/DEU_Backnang-4_3_I-1-1.nod.xml"/>
        <edge-files value="./converted_scenarios/scenario-factory/DEU_Backnang-4_3_I-1-1/DEU_Backnang-4_3_I-1-1.edg.xml"/>
        <connection-files value="./converted_scenarios/scenario-factory/DEU_Backnang-4_3_I-1-1/DEU_Backnang-4_3_I-1-1.con.xml"/>
        <tllogic-files value="./converted_scenarios/scenario-factory/DEU_Backnang-4_3_I-1-1/DEU_Backnang-4_3_I-1-1.tll.xml"/>
        <type-files value="/home/zen/commonroad-interactive-benchmarks/install/commonroad-map-tool/crmapconverter/sumo_map/templates/DEU.typ.xml"/>
    </input>

    <output>
        <output-file value="./converted_scenarios/scenario-factory/DEU_Backnang-4_3_I-1-1/DEU_Backnang-4_3_I-1-1.net.xml"/>
    </output>

    <processing>
        <geometry.remove.keep-edges.explicit value="true"/>
        <geometry.avoid-overlap value="true"/>
        <offset.disable-normalization value="true"/>
    </processing>

    <junctions>
        <no-turnarounds value="true"/>
        <junctions.internal-link-detail value="20"/>
    </junctions>

    <report>
        <aggregate-warnings value="5"/>
    </report>

    <random_number>
        <seed value="1234"/>
    </random_number>

</configuration>
--><net xmlns:xsi="http://www.w3.org/2001/XMLSchema-instance" version="1.6" junctionCornerDetail="5" junctionLinkDetail="20" limitTurnSpeed="5.50" xsi:noNamespaceSchemaLocation="http://sumo.dlr.de/xsd/net_file.xsd">

    <location netOffset="0.00,0.00" convBoundary="-189.90,-395.39,223.37,69.22" origBoundary="-189.90,-395.39,223.37,69.22" projParameter="!"/>

    <type id="highway.bridleway" priority="1" speed="2.78" allow="pedestrian" oneway="1" width="2.00"/>
    <type id="highway.bus_guideway" priority="1" speed="27.78" allow="bus" oneway="1"/>
    <type id="highway.cycleway" priority="1" speed="8.33" allow="bicycle" oneway="0" width="1.00"/>
    <type id="highway.footway" priority="1" speed="2.78" allow="pedestrian" oneway="1" width="2.00"/>
    <type id="highway.ford" priority="1" speed="2.78" allow="army" oneway="0"/>
    <type id="highway.living_street" priority="2" speed="2.78" disallow="tram rail_urban rail rail_electric rail_fast ship" oneway="0"/>
    <type id="highway.motorway" priority="14" speed="39.44" allow="private emergency authority army vip passenger hov taxi bus coach delivery truck trailer motorcycle evehicle custom1 custom2" oneway="1"/>
    <type id="highway.motorway_link" priority="9" speed="22.22" allow="private emergency authority army vip passenger hov taxi bus coach delivery truck trailer motorcycle evehicle custom1 custom2" oneway="1"/>
    <type id="highway.path" priority="1" speed="2.78" allow="pedestrian bicycle" oneway="0" width="2.00"/>
    <type id="highway.pedestrian" priority="1" speed="2.78" allow="pedestrian" oneway="1" width="2.00"/>
    <type id="highway.primary" priority="12" speed="27.78" disallow="pedestrian tram rail_urban rail rail_electric rail_fast ship" oneway="0"/>
    <type id="highway.primary_link" priority="7" speed="22.22" disallow="pedestrian tram rail_urban rail rail_electric rail_fast ship" oneway="0"/>
    <type id="highway.raceway" priority="15" speed="83.33" allow="vip" oneway="0"/>
    <type id="highway.residential" priority="3" speed="13.89" disallow="pedestrian tram rail_urban rail rail_electric rail_fast ship" oneway="0"/>
    <type id="highway.secondary" priority="11" speed="27.78" disallow="pedestrian tram rail_urban rail rail_electric rail_fast ship" oneway="0"/>
    <type id="highway.secondary_link" priority="6" speed="22.22" disallow="pedestrian tram rail_urban rail rail_electric rail_fast ship" oneway="0"/>
    <type id="highway.service" priority="1" speed="5.56" allow="pedestrian delivery bicycle" oneway="0"/>
    <type id="highway.stairs" priority="1" speed="1.39" allow="pedestrian" oneway="1" width="2.00"/>
    <type id="highway.step" priority="1" speed="1.39" allow="pedestrian" oneway="1" width="2.00"/>
    <type id="highway.steps" priority="1" speed="1.39" allow="pedestrian" oneway="1" width="2.00"/>
    <type id="highway.tertiary" priority="10" speed="22.22" disallow="pedestrian tram rail_urban rail rail_electric rail_fast ship" oneway="0"/>
    <type id="highway.tertiary_link" priority="5" speed="22.22" disallow="pedestrian tram rail_urban rail rail_electric rail_fast ship" oneway="0"/>
    <type id="highway.track" priority="1" speed="5.56" allow="pedestrian motorcycle moped bicycle" oneway="0"/>
    <type id="highway.trunk" priority="13" speed="27.78" disallow="pedestrian bicycle tram rail_urban rail rail_electric rail_fast ship" oneway="0"/>
    <type id="highway.trunk_link" priority="8" speed="22.22" disallow="pedestrian bicycle tram rail_urban rail rail_electric rail_fast ship" oneway="0"/>
    <type id="highway.unclassified" priority="4" speed="13.89" disallow="pedestrian tram rail_urban rail rail_electric rail_fast ship" oneway="0"/>
    <type id="highway.unsurfaced" priority="1" speed="8.33" disallow="tram rail_urban rail rail_electric rail_fast ship" oneway="0"/>
    <type id="railway.highspeed" priority="21" speed="69.44" allow="rail_fast" oneway="1"/>
    <type id="railway.light_rail" priority="19" speed="27.78" allow="rail_urban" oneway="1"/>
    <type id="railway.preserved" priority="16" speed="27.78" allow="rail" oneway="1"/>
    <type id="railway.rail" priority="20" speed="44.44" allow="rail" oneway="1"/>
    <type id="railway.subway" priority="18" speed="27.78" allow="rail_urban" oneway="1"/>
    <type id="railway.tram" priority="17" speed="13.89" allow="tram" oneway="1"/>

    <edge id=":104_0" function="internal">
        <lane id=":104_0_0" index="0" disallow="pedestrian tram rail_urban rail rail_electric rail_fast ship" speed="11.22" length="28.94" width="3.50" shape="101.57,-145.88 99.54,-147.03 97.46,-148.01 95.34,-148.78 93.18,-149.30 90.98,-149.52 89.94,-149.49 88.88,-149.38 87.84,-149.18 86.82,-148.87 85.84,-148.48 84.88,-148.00 83.99,-147.45 82.24,-146.08 80.67,-144.49 79.27,-142.72 77.39,-139.77"/>
    </edge>
    <edge id=":104_1" function="internal">
        <lane id=":104_1_0" index="0" disallow="pedestrian tram rail_urban rail rail_electric rail_fast ship" speed="21.61" length="34.79" width="3.50" shape="101.57,-145.88 97.01,-148.87 93.54,-151.48 90.25,-154.32 87.19,-157.40 85.07,-159.88 83.14,-162.51 81.42,-165.27 79.92,-168.17 78.68,-171.19"/>
    </edge>
    <edge id=":104_2" function="internal">
        <lane id=":104_2_0" index="0" disallow="pedestrian tram rail_urban rail rail_electric rail_fast ship" speed="20.86" length="32.43" width="3.50" shape="81.97,-172.39 83.11,-169.61 84.49,-166.94 86.09,-164.39 87.89,-161.97 89.85,-159.67 92.72,-156.80 95.81,-154.14 99.08,-151.69 103.39,-148.87"/>
    </edge>
    <edge id=":104_3" function="internal">
        <lane id=":104_3_0" index="0" disallow="pedestrian tram rail_urban rail rail_electric rail_fast ship" speed="17.39" length="34.02" width="3.50" shape="81.97,-172.39 82.35,-171.26 83.22,-167.97 83.72,-164.57 83.86,-161.14 83.65,-157.72 83.11,-154.36 82.29,-151.07 81.21,-147.86 79.46,-143.75 77.39,-139.77"/>
    </edge>
    <edge id=":104_4" function="internal">
        <lane id=":104_4_0" index="0" disallow="pedestrian tram rail_urban rail rail_electric rail_fast ship" speed="16.62" length="30.97" width="3.50" shape="74.35,-141.52 76.27,-145.18 77.89,-148.97 78.88,-151.91 79.65,-154.91 80.15,-157.97 80.36,-161.05 80.25,-164.15 79.80,-167.21 79.01,-170.21 78.68,-171.19"/>
    </edge>
    <edge id=":104_5" function="internal">
        <lane id=":104_5_0" index="0" disallow="pedestrian tram rail_urban rail rail_electric rail_fast ship" speed="12.23" length="34.62" width="3.50" shape="74.35,-141.52 76.50,-144.88 78.16,-146.97 80.02,-148.86 82.12,-150.51 83.25,-151.20 84.44,-151.80 85.68,-152.30 86.95,-152.68 88.26,-152.94 89.58,-153.08 90.91,-153.11 93.56,-152.85 96.14,-152.23 98.65,-151.32 101.06,-150.19 103.39,-148.87"/>
    </edge>
    <edge id=":105_0" function="internal">
        <lane id=":105_0_0" index="0" disallow="pedestrian tram rail_urban rail rail_electric rail_fast ship" speed="10.51" length="30.54" width="3.50" shape="68.13,-200.40 66.78,-203.65 65.67,-205.73 64.36,-207.68 63.61,-208.58 62.79,-209.43 61.89,-210.19 60.93,-210.86 59.89,-211.41 58.79,-211.83 57.65,-212.11 56.48,-212.24 55.31,-212.24 54.14,-212.11 52.99,-211.88 50.75,-211.15 48.62,-210.16 46.59,-208.98 44.66,-207.66"/>
    </edge>
    <edge id=":105_1" function="internal">
        <lane id=":105_1_0" index="0" disallow="pedestrian tram rail_urban rail rail_electric rail_fast ship" speed="36.11" length="38.55" width="3.50" shape="68.13,-200.40 65.44,-208.29 63.09,-216.29 61.35,-223.38 59.95,-230.54 59.08,-236.73 58.97,-237.75"/>
    </edge>
    <edge id=":105_2" function="internal">
        <lane id=":105_2_0" index="0" disallow="pedestrian tram rail_urban rail rail_electric rail_fast ship" speed="36.11" length="37.78" width="3.50" shape="62.44,-238.21 62.55,-237.14 63.41,-231.09 64.77,-224.09 66.48,-217.17 68.79,-209.33 71.41,-201.60"/>
    </edge>
    <edge id=":105_3" function="internal">
        <lane id=":105_3_0" index="0" disallow="pedestrian tram rail_urban rail rail_electric rail_fast ship" speed="16.00" length="37.10" width="3.50" shape="62.44,-238.21 62.54,-236.93 62.56,-234.58 62.35,-232.22 61.92,-229.89 61.26,-227.61 59.92,-224.37 58.21,-221.32 56.22,-218.49 54.00,-215.86 51.60,-213.41 48.21,-210.41 44.66,-207.66"/>
    </edge>
    <edge id=":105_4" function="internal">
        <lane id=":105_4_0" index="0" disallow="pedestrian tram rail_urban rail rail_electric rail_fast ship" speed="15.17" length="33.33" width="3.50" shape="42.60,-210.50 45.89,-213.03 49.02,-215.79 51.22,-218.01 53.26,-220.39 55.08,-222.93 56.64,-225.64 57.86,-228.52 58.46,-230.52 58.86,-232.56 59.06,-234.64 59.05,-236.72 58.97,-237.75"/>
    </edge>
    <edge id=":105_5" function="internal">
        <lane id=":105_5_0" index="0" disallow="pedestrian tram rail_urban rail rail_electric rail_fast ship" speed="11.56" length="37.24" width="3.50" shape="42.60,-210.50 44.85,-212.02 47.24,-213.41 49.78,-214.59 52.46,-215.46 53.92,-215.76 55.39,-215.92 56.90,-215.92 58.40,-215.75 59.89,-215.39 61.32,-214.85 62.66,-214.14 63.90,-213.28 65.02,-212.32 66.04,-211.28 66.97,-210.15 68.53,-207.83 69.85,-205.37 71.41,-201.60"/>
    </edge>
    <edge id=":106_0" function="internal">
        <lane id=":106_0_0" index="0" disallow="pedestrian tram rail_urban rail rail_electric rail_fast ship" speed="11.37" length="28.32" width="3.50" shape="111.48,-265.31 110.22,-267.14 108.83,-268.81 107.28,-270.34 105.55,-271.66 103.66,-272.73 102.66,-273.15 101.62,-273.49 100.56,-273.74 99.49,-273.90 97.31,-273.96 95.15,-273.72 93.04,-273.21 90.98,-272.49 88.03,-271.11 87.08,-270.58"/>
    </edge>
    <edge id=":106_1" function="internal">
        <lane id=":106_1_0" index="0" disallow="pedestrian tram rail_urban rail rail_electric rail_fast ship" speed="12.46" length="33.75" width="3.50" shape="111.48,-265.31 109.52,-268.72 108.43,-271.07 107.56,-273.51 106.96,-276.03 106.68,-278.61 106.78,-281.20 106.97,-282.48 107.67,-284.98 108.73,-287.34 110.11,-289.53 111.74,-291.55 113.56,-293.39 115.55,-295.07"/>
    </edge>
    <edge id=":106_2" function="internal">
        <lane id=":106_2_0" index="0" disallow="pedestrian tram rail_urban rail rail_electric rail_fast ship" speed="11.48" length="28.49" width="3.50" shape="117.72,-292.33 115.99,-290.86 114.42,-289.28 113.05,-287.57 111.90,-285.74 111.03,-283.79 110.47,-281.72 110.32,-280.74 110.25,-278.58 110.49,-276.44 111.01,-274.32 111.76,-272.23 112.69,-270.20 114.40,-267.24"/>
    </edge>
    <edge id=":106_3" function="internal">
        <lane id=":106_3_0" index="0" disallow="pedestrian tram rail_urban rail rail_electric rail_fast ship" speed="36.11" length="37.60" width="3.50" shape="117.72,-292.33 106.94,-284.05 98.48,-277.93 91.54,-273.29 87.08,-270.58"/>
    </edge>
    <edge id=":106_4" function="internal">
        <lane id=":106_4_0" index="0" disallow="pedestrian tram rail_urban rail rail_electric rail_fast ship" speed="36.11" length="37.10" width="3.50" shape="85.32,-273.61 89.70,-276.26 96.53,-280.84 104.88,-286.88 115.55,-295.07"/>
    </edge>
    <edge id=":106_5" function="internal">
        <lane id=":106_5_0" index="0" disallow="pedestrian tram rail_urban rail rail_electric rail_fast ship" speed="12.37" length="33.68" width="3.50" shape="85.32,-273.61 86.46,-274.23 89.83,-275.81 92.26,-276.65 94.77,-277.25 97.37,-277.53 99.98,-277.45 101.34,-277.24 102.64,-276.93 103.91,-276.51 105.17,-275.98 107.43,-274.68 109.50,-273.09 111.34,-271.27 112.96,-269.31 114.40,-267.24"/>
    </edge>
    <edge id=":107_0" function="internal">
        <lane id=":107_0_0" index="0" disallow="pedestrian tram rail_urban rail rail_electric rail_fast ship" speed="8.28" length="9.62" width="3.50" shape="121.67,-128.27 121.46,-129.56 120.87,-131.11 120.02,-132.54 118.59,-134.22 116.47,-136.03"/>
    </edge>
    <edge id=":107_1" function="internal">
        <lane id=":107_1_0" index="0" disallow="pedestrian tram rail_urban rail rail_electric rail_fast ship" speed="6.67" length="10.61" width="3.48" shape="122.15,-128.21 122.72,-129.30 123.14,-129.80 123.63,-130.22 124.20,-130.53 124.81,-130.74 126.10,-130.89 127.39,-130.75 131.42,-129.60"/>
    </edge>
    <edge id=":107_2" function="internal">
        <lane id=":107_2_0" index="0" disallow="pedestrian tram rail_urban rail rail_electric rail_fast ship" speed="36.11" length="16.24" width="3.48" shape="118.48,-138.89 120.56,-137.09 124.60,-132.88 126.27,-131.57 127.66,-130.81 131.42,-129.60"/>
    </edge>
    <edge id=":108_0" function="internal">
        <lane id=":108_0_0" index="0" disallow="pedestrian tram rail_urban rail rail_electric rail_fast ship" speed="33.46" length="14.26" width="3.50" shape="145.84,-131.23 142.51,-129.72 138.89,-127.64 135.02,-124.99 133.66,-123.90"/>
    </edge>
    <edge id=":108_1" function="internal">
        <lane id=":108_1_0" index="0" disallow="pedestrian tram rail_urban rail rail_electric rail_fast ship" speed="14.99" length="16.32" width="3.50" shape="128.89,-130.37 129.94,-130.24 132.03,-130.45 135.61,-131.33 141.11,-133.17 144.54,-134.48"/>
    </edge>
    <edge id=":108_2" function="internal">
        <lane id=":108_2_0" index="0" disallow="pedestrian tram rail_urban rail rail_electric rail_fast ship" speed="5.53" length="8.79" width="3.50" shape="128.89,-130.37 131.02,-129.56 132.33,-128.80 132.90,-128.31 133.38,-127.73 133.70,-127.05 133.81,-126.30 133.71,-125.55 133.45,-124.84 133.20,-124.44"/>
    </edge>
    <edge id=":109_0" function="internal">
        <lane id=":109_0_0" index="0" disallow="pedestrian tram rail_urban rail rail_electric rail_fast ship" speed="11.05" length="28.91" width="3.50" shape="153.20,-294.28 151.85,-296.30 149.69,-299.05 148.12,-300.67 146.42,-302.11 144.54,-303.30 143.61,-303.75 142.62,-304.14 141.60,-304.42 140.57,-304.61 139.52,-304.70 138.47,-304.69 137.41,-304.59 136.36,-304.39 135.34,-304.11 133.25,-303.31 131.26,-302.25 129.35,-301.00"/>
    </edge>
    <edge id=":109_1" function="internal">
        <lane id=":109_1_0" index="0" disallow="pedestrian tram rail_urban rail rail_electric rail_fast ship" speed="36.11" length="38.69" width="3.50" shape="153.19,-294.27 151.59,-297.09 149.37,-301.81 146.68,-308.59 143.65,-317.47 140.02,-329.45 139.74,-330.45"/>
    </edge>
    <edge id=":109_2" function="internal">
        <lane id=":109_2_0" index="0" disallow="pedestrian tram rail_urban rail rail_electric rail_fast ship" speed="36.11" length="37.62" width="3.50" shape="143.10,-331.43 143.38,-330.44 146.94,-318.65 149.91,-309.95 152.52,-303.34 154.65,-298.79 156.11,-296.22"/>
    </edge>
    <edge id=":109_3" function="internal">
        <lane id=":109_3_0" index="0" disallow="pedestrian tram rail_urban rail rail_electric rail_fast ship" speed="14.52" length="35.87" width="3.50" shape="143.10,-331.43 143.66,-329.07 143.99,-326.68 144.09,-324.25 143.92,-321.82 143.49,-319.42 142.80,-317.09 141.88,-314.85 140.74,-312.72 139.43,-310.70 137.22,-307.94 134.76,-305.41 132.12,-303.11 129.35,-301.00"/>
    </edge>
    <edge id=":109_4" function="internal">
        <lane id=":109_4_0" index="0" disallow="pedestrian tram rail_urban rail rail_electric rail_fast ship" speed="13.65" length="31.59" width="3.50" shape="127.27,-303.82 129.83,-305.76 132.21,-307.82 134.42,-310.07 136.41,-312.52 137.57,-314.27 138.58,-316.12 139.40,-318.05 140.02,-320.06 140.41,-322.13 140.57,-324.22 140.51,-326.33 140.22,-328.41 139.74,-330.45"/>
    </edge>
    <edge id=":109_5" function="internal">
        <lane id=":109_5_0" index="0" disallow="pedestrian tram rail_urban rail rail_electric rail_fast ship" speed="12.06" length="34.68" width="3.50" shape="127.27,-303.82 129.54,-305.31 131.89,-306.56 134.37,-307.53 135.65,-307.89 136.96,-308.14 138.28,-308.29 139.61,-308.32 140.94,-308.22 142.25,-307.99 143.54,-307.64 144.78,-307.17 145.99,-306.60 148.24,-305.19 150.29,-303.49 152.15,-301.58 154.62,-298.45 156.11,-296.22"/>
    </edge>
    <edge id=":110_0" function="internal">
        <lane id=":110_0_0" index="0" disallow="pedestrian tram rail_urban rail rail_electric rail_fast ship" speed="10.37" length="31.92" width="3.50" shape="218.74,-194.69 216.54,-195.78 214.26,-196.70 211.91,-197.40 210.71,-197.63 209.49,-197.76 208.26,-197.77 207.04,-197.63 205.85,-197.33 204.72,-196.84 203.69,-196.19 202.76,-195.39 201.96,-194.46 201.27,-193.44 200.69,-192.36 200.21,-191.23 199.47,-188.89 198.96,-186.49 198.53,-182.83 198.45,-181.59"/>
    </edge>
    <edge id=":110_1" function="internal">
        <lane id=":110_1_0" index="0" disallow="pedestrian tram rail_urban rail rail_electric rail_fast ship" speed="36.11" length="29.20" width="3.50" shape="206.53,-201.29 205.23,-201.99 190.93,-210.03 181.22,-215.85"/>
    </edge>
    <edge id=":110_2" function="internal">
        <lane id=":110_2_0" index="0" disallow="pedestrian tram rail_urban rail rail_electric rail_fast ship" speed="36.11" length="28.97" width="3.50" shape="183.09,-218.81 208.20,-204.37"/>
    </edge>
    <edge id=":110_3" function="internal">
        <lane id=":110_3_0" index="0" disallow="pedestrian tram rail_urban rail rail_electric rail_fast ship" speed="16.72" length="42.43" width="3.50" shape="183.04,-218.84 185.91,-216.83 188.48,-214.56 190.78,-212.00 192.76,-209.21 194.43,-206.20 195.78,-203.05 196.83,-199.78 197.60,-196.43 198.13,-193.04 198.50,-188.47 198.54,-183.90 198.45,-181.59"/>
    </edge>
    <edge id=":110_4" function="internal">
        <lane id=":110_4_0" index="0" disallow="pedestrian tram rail_urban rail rail_electric rail_fast ship" speed="15.94" length="38.53" width="3.50" shape="194.96,-181.90 195.04,-183.91 195.00,-188.19 194.67,-192.43 194.20,-195.55 193.51,-198.62 192.57,-201.61 191.37,-204.47 189.88,-207.19 188.11,-209.71 186.07,-212.01 183.77,-214.06 181.22,-215.85"/>
    </edge>
    <edge id=":110_5" function="internal">
        <lane id=":110_5_0" index="0" disallow="pedestrian tram rail_urban rail rail_electric rail_fast ship" speed="10.17" length="30.13" width="3.50" shape="194.96,-181.90 195.18,-184.11 195.42,-186.29 195.70,-188.40 196.02,-190.44 196.38,-192.40 196.78,-194.27 197.24,-196.02 197.75,-197.66 198.32,-199.16 198.94,-200.51 199.64,-201.70 200.40,-202.72 201.23,-203.55 202.14,-204.18 203.13,-204.61 204.20,-204.80 205.36,-204.76 206.61,-204.48 207.96,-203.92"/>
    </edge>
    <edge id=":112_0" function="internal">
        <lane id=":112_0_0" index="0" disallow="pedestrian tram rail_urban rail rail_electric rail_fast ship" speed="9.20" length="9.04" width="3.50" shape="124.97,-115.79 123.49,-113.69 122.49,-111.79 121.78,-109.76 121.53,-108.17 121.50,-107.61"/>
    </edge>
    <edge id=":112_1" function="internal">
        <lane id=":112_1_0" index="0" disallow="pedestrian tram rail_urban rail rail_electric rail_fast ship" speed="5.61" length="10.39" width="3.49" shape="121.67,-119.66 121.37,-121.52 121.43,-124.21 120.60,-118.45"/>
    </edge>
    <edge id=":112_2" function="internal">
        <lane id=":112_2_0" index="0" disallow="pedestrian tram rail_urban rail rail_electric rail_fast ship" speed="36.11" length="11.19" width="3.49" shape="118.00,-107.55 118.24,-110.80 118.90,-114.37 119.96,-118.54"/>
    </edge>
    <edge id=":113_0" function="internal">
        <lane id=":113_0_0" index="0" disallow="pedestrian tram rail_urban rail rail_electric rail_fast ship" speed="12.09" length="29.04" width="3.50" shape="142.59,-79.25 139.37,-78.40 136.36,-77.28 134.43,-76.34 132.61,-75.21 130.93,-73.88 129.44,-72.35 128.18,-70.62 127.19,-68.72 126.48,-66.70 126.04,-64.60 125.84,-62.47 125.85,-60.32 125.92,-59.25"/>
    </edge>
    <edge id=":113_1" function="internal">
        <lane id=":113_1_0" index="0" disallow="pedestrian tram rail_urban rail rail_electric rail_fast ship" speed="36.11" length="39.61" width="3.50" shape="142.59,-79.25 136.36,-78.07 127.10,-76.80 114.70,-75.54 103.28,-74.63"/>
    </edge>
    <edge id=":113_2" function="internal">
        <lane id=":113_2_0" index="0" disallow="pedestrian tram rail_urban rail rail_electric rail_fast ship" speed="11.74" length="35.47" width="3.50" shape="142.59,-79.25 139.81,-78.73 137.11,-78.46 134.39,-78.47 131.70,-78.83 130.38,-79.16 129.10,-79.61 127.86,-80.18 126.69,-80.86 125.59,-81.66 124.57,-82.56 123.65,-83.56 122.82,-84.63 122.08,-85.77 120.86,-88.20 119.93,-90.75 119.25,-93.38 118.59,-97.44"/>
    </edge>
    <edge id=":113_3" function="internal">
        <lane id=":113_3_0" index="0" disallow="pedestrian tram rail_urban rail rail_electric rail_fast ship" speed="10.72" length="29.37" width="3.50" shape="122.07,-97.82 122.64,-94.29 123.22,-92.04 124.00,-89.88 125.02,-87.84 125.61,-86.93 126.27,-86.07 127.00,-85.27 127.79,-84.55 128.65,-83.92 129.57,-83.38 130.54,-82.93 131.56,-82.57 132.59,-82.30 134.84,-82.00 137.11,-81.99 139.42,-82.21 141.74,-82.64"/>
    </edge>
    <edge id=":113_4" function="internal">
        <lane id=":113_4_0" index="0" disallow="pedestrian tram rail_urban rail rail_electric rail_fast ship" speed="36.11" length="38.76" width="3.50" shape="122.07,-97.82 124.37,-75.94 125.92,-59.25"/>
    </edge>
    <edge id=":113_5" function="internal">
        <lane id=":113_5_0" index="0" disallow="pedestrian tram rail_urban rail rail_electric rail_fast ship" speed="12.08" length="34.60" width="3.50" shape="122.07,-97.82 122.33,-93.83 122.24,-91.17 121.89,-88.54 121.22,-85.97 120.74,-84.73 120.17,-83.53 119.49,-82.38 118.72,-81.30 117.84,-80.30 116.88,-79.39 115.84,-78.56 114.73,-77.82 112.36,-76.62 109.86,-75.74 107.27,-75.13 103.28,-74.63"/>
    </edge>
    <edge id=":113_6" function="internal">
        <lane id=":113_6_0" index="0" disallow="pedestrian tram rail_urban rail rail_electric rail_fast ship" speed="11.07" length="28.86" width="3.50" shape="103.04,-78.12 106.50,-78.56 108.69,-79.07 110.78,-79.81 112.75,-80.81 113.62,-81.39 114.45,-82.06 115.21,-82.79 115.90,-83.58 116.52,-84.44 117.06,-85.35 117.52,-86.32 117.89,-87.30 118.46,-89.46 118.75,-91.68 118.82,-93.94 118.59,-97.44"/>
    </edge>
    <edge id=":113_7" function="internal">
        <lane id=":113_7_0" index="0" disallow="pedestrian tram rail_urban rail rail_electric rail_fast ship" speed="36.11" length="38.99" width="3.50" shape="103.04,-78.12 114.35,-79.02 126.62,-80.27 135.74,-81.52 141.74,-82.64"/>
    </edge>
    <edge id=":113_8" function="internal">
        <lane id=":113_8_0" index="0" disallow="pedestrian tram rail_urban rail rail_electric rail_fast ship" speed="12.23" length="33.89" width="3.50" shape="103.04,-78.12 106.97,-78.21 109.57,-78.02 112.14,-77.57 114.63,-76.82 117.00,-75.73 118.11,-75.05 119.16,-74.28 120.13,-73.42 121.03,-72.48 121.85,-71.46 123.24,-69.26 124.30,-66.88 125.07,-64.39 125.60,-61.84 125.92,-59.25"/>
    </edge>
    <edge id=":113_9" function="internal">
        <lane id=":113_9_0" index="0" disallow="pedestrian tram rail_urban rail rail_electric rail_fast ship" speed="11.23" length="28.39" width="3.50" shape="122.44,-58.94 122.16,-61.18 121.70,-63.37 121.05,-65.47 120.17,-67.45 119.02,-69.27 118.37,-70.06 117.65,-70.82 116.86,-71.50 116.02,-72.12 115.15,-72.66 113.19,-73.56 111.11,-74.17 108.94,-74.55 106.73,-74.71 103.28,-74.63"/>
    </edge>
    <edge id=":113_10" function="internal">
        <lane id=":113_10_0" index="0" disallow="pedestrian tram rail_urban rail rail_electric rail_fast ship" speed="36.11" length="38.69" width="3.50" shape="122.44,-58.94 120.89,-75.59 118.59,-97.44"/>
    </edge>
    <edge id=":113_11" function="internal">
        <lane id=":113_11_0" index="0" disallow="pedestrian tram rail_urban rail rail_electric rail_fast ship" speed="13.05" length="34.04" width="3.50" shape="122.44,-58.94 122.35,-60.20 122.34,-62.67 122.56,-65.18 123.08,-67.67 123.91,-70.10 125.09,-72.40 126.59,-74.50 128.37,-76.37 130.36,-77.96 132.50,-79.30 134.75,-80.41 138.19,-81.70 141.74,-82.64"/>
    </edge>
    <edge id=":114_0" function="internal">
        <lane id=":114_0_0" index="0" disallow="pedestrian tram rail_urban rail rail_electric rail_fast ship" speed="13.01" length="30.53" width="3.50" shape="-44.24,-107.09 -43.71,-108.05 -42.28,-110.99 -41.13,-113.99 -40.32,-117.08 -40.01,-119.14 -39.90,-121.21 -40.00,-123.27 -40.34,-125.30 -40.91,-127.27 -41.70,-129.18 -42.70,-130.99 -43.87,-132.70 -45.98,-135.13"/>
    </edge>
    <edge id=":114_1" function="internal">
        <lane id=":114_1_0" index="0" disallow="pedestrian tram rail_urban rail rail_electric rail_fast ship" speed="11.78" length="35.31" width="3.50" shape="-44.24,-107.09 -42.86,-109.35 -41.32,-111.49 -39.54,-113.50 -37.53,-115.28 -36.37,-116.10 -35.16,-116.80 -33.88,-117.39 -32.54,-117.86 -31.15,-118.18 -29.74,-118.36 -28.32,-118.40 -26.92,-118.30 -25.52,-118.08 -22.92,-117.35 -20.45,-116.30 -18.12,-115.02 -14.91,-112.84"/>
    </edge>
    <edge id=":114_2" function="internal">
        <lane id=":114_2_0" index="0" disallow="pedestrian tram rail_urban rail rail_electric rail_fast ship" speed="10.75" length="29.19" width="3.50" shape="-17.00,-110.04 -19.79,-111.93 -21.76,-113.01 -23.82,-113.89 -25.98,-114.50 -27.09,-114.68 -28.21,-114.76 -29.34,-114.74 -30.45,-114.60 -31.54,-114.34 -32.61,-113.98 -33.63,-113.51 -34.60,-112.95 -35.52,-112.31 -37.20,-110.82 -38.69,-109.14 -40.01,-107.31 -41.17,-105.40"/>
    </edge>
    <edge id=":114_3" function="internal">
        <lane id=":114_3_0" index="0" disallow="pedestrian tram rail_urban rail rail_electric rail_fast ship" speed="36.11" length="38.37" width="3.50" shape="-17.00,-110.04 -25.18,-116.40 -33.13,-123.05 -40.04,-129.30 -45.98,-135.13"/>
    </edge>
    <edge id=":114_4" function="internal">
        <lane id=":114_4_0" index="0" disallow="pedestrian tram rail_urban rail rail_electric rail_fast ship" speed="36.11" length="37.84" width="3.50" shape="-43.49,-137.59 -37.63,-131.84 -30.82,-125.67 -22.97,-119.12 -14.91,-112.84"/>
    </edge>
    <edge id=":114_5" function="internal">
        <lane id=":114_5_0" index="0" disallow="pedestrian tram rail_urban rail rail_electric rail_fast ship" speed="13.91" length="35.05" width="3.50" shape="-43.49,-137.60 -41.08,-134.82 -39.71,-132.83 -38.54,-130.72 -37.60,-128.50 -36.91,-126.19 -36.50,-123.81 -36.36,-121.40 -36.48,-118.99 -36.83,-116.60 -37.73,-113.10 -39.02,-109.71 -40.60,-106.45 -41.17,-105.40"/>
    </edge>
    <edge id=":115_0" function="internal">
        <lane id=":115_0_0" index="0" disallow="pedestrian tram rail_urban rail rail_electric rail_fast ship" speed="36.11" length="4.02" width="3.50" shape="-133.73,-201.12 -137.54,-202.39"/>
    </edge>
    <edge id=":115_1" function="internal">
        <lane id=":115_1_0" index="0" disallow="pedestrian tram rail_urban rail rail_electric rail_fast ship" speed="36.11" length="47.82" width="3.50" shape="-133.71,-201.11 -145.19,-205.27 -154.87,-208.41 -163.67,-210.93 -171.59,-212.84 -178.59,-214.18 -179.58,-214.34"/>
    </edge>
    <edge id=":115_2" function="internal">
        <lane id=":115_2_0" index="0" disallow="pedestrian tram rail_urban rail rail_electric rail_fast ship" speed="16.56" length="45.40" width="3.50" shape="-133.71,-201.11 -135.84,-201.96 -139.98,-203.87 -143.01,-205.53 -145.92,-207.41 -148.68,-209.53 -151.26,-211.90 -153.59,-214.53 -155.63,-217.41 -157.32,-220.51 -158.65,-223.79 -159.59,-227.18 -160.17,-230.64 -160.42,-234.14"/>
    </edge>
    <edge id=":115_3" function="internal">
        <lane id=":115_3_0" index="0" disallow="pedestrian tram rail_urban rail rail_electric rail_fast ship" speed="15.80" length="41.23" width="3.50" shape="-156.92,-234.22 -156.70,-231.05 -156.17,-227.93 -155.31,-224.87 -154.10,-221.94 -152.56,-219.16 -150.72,-216.59 -148.60,-214.22 -146.26,-212.09 -143.73,-210.17 -141.06,-208.45 -138.28,-206.93 -134.43,-205.16 -132.48,-204.38"/>
    </edge>
    <edge id=":115_4" function="internal">
        <lane id=":115_4_0" index="0" disallow="pedestrian tram rail_urban rail rail_electric rail_fast ship" speed="36.11" length="48.64" width="3.50" shape="-179.14,-217.81 -178.01,-217.63 -170.89,-216.27 -162.84,-214.33 -153.90,-211.78 -144.09,-208.59 -132.48,-204.38"/>
    </edge>
    <edge id=":117_0" function="internal">
        <lane id=":117_0_0" index="0" disallow="pedestrian tram rail_urban rail rail_electric rail_fast ship" speed="36.11" length="36.11" width="3.50" shape="-13.60,-18.56 -17.27,-22.33 -32.57,-39.08 -38.28,-44.91"/>
    </edge>
    <edge id=":117_1" function="internal">