<!-- generated on 2020-12-18 15:54:10.916543 by ipykernel_launcher.py v1_2_0+5214-53edc58fcd
-->
<nodes>
	<node id="1" type="from" x="-28.349699999999995" y="30.66769"/>
	<node id="2" type="to" x="38.41151" y="-30.433780000000002"/>
	<node id="3" type="to" x="136.95451666666668" y="-118.968475"/>
	<node id="4" type="from" x="-39.0619" y="19.184350000000002"/>
</nodes>
