<routes>
	<vehicle depart="0.1" departLane="1" departPos="127.93152451745539" departSpeed="15.9593" id="75" type="passenger">
		<route edges="16"/>
	</vehicle>
	<vehicle depart="0.1" departLane="5" departPos="119.22757654320614" departSpeed="13.8471" id="77" type="passenger">
		<route edges="16"/>
	</vehicle>
	<vehicle depart="0.1" departLane="4" departPos="116.33106767744478" departSpeed="15.2461" id="78" type="passenger">
		<route edges="16"/>
	</vehicle>
	<vehicle depart="0.1" departLane="2" departPos="108.4292021426574" departSpeed="16.9073" id="79" type="passenger">
		<route edges="16"/>
	</vehicle>
	<vehicle depart="0.1" departLane="1" departPos="99.56921340299104" departSpeed="16.2977" id="82" type="passenger">
		<route edges="16"/>
	</vehicle>
	<vehicle depart="0.1" departLane="3" departPos="96.51500136610068" departSpeed="16.5232" id="83" type="passenger">
		<route edges="16"/>
	</vehicle>
	<vehicle depart="0.1" departLane="4" departPos="92.29271249214067" departSpeed="14.6456" id="84" type="passenger">
		<route edges="16"/>
	</vehicle>
	<vehicle depart="0.1" departLane="1" departPos="83.10174464334847" departSpeed="14.9687" id="90" type="passenger">
		<route edges="16 16"/>
	</vehicle>
	<vehicle depart="0.1" departLane="2" departPos="80.66713469989615" departSpeed="15.1272" id="91" type="passenger">
		<route edges="16"/>
	</vehicle>
	<vehicle depart="0.1" departLane="4" departPos="64.59886347553639" departSpeed="15.5997" id="94" type="passenger">
		<route edges="16"/>
	</vehicle>
	<vehicle depart="0.1" departLane="5" departPos="73.79592685732462" departSpeed="15.8648" id="95" type="passenger">
		<route edges="16"/>
	</vehicle>
	<vehicle depart="0.1" departLane="3" departPos="71.97027840351069" departSpeed="15.2126" id="96" type="passenger">
		<route edges="16"/>
	</vehicle>
	<vehicle depart="0.1" departLane="0" departPos="59.77731299330962" departSpeed="17.4224" id="97" type="passenger">
		<route edges="16 16"/>
	</vehicle>
	<vehicle depart="0.1" departLane="2" departPos="50.1797448647617" departSpeed="14.225" id="99" type="passenger">
		<route edges="16"/>
	</vehicle>
	<vehicle depart="0.1" departLane="1" departPos="48.166716539161655" departSpeed="13.7526" id="100" type="passenger">
		<route edges="16"/>
	</vehicle>
	<vehicle depart="0.1" departLane="5" departPos="40.50649228836292" departSpeed="15.24" id="104" type="passenger">
		<route edges="16"/>
	</vehicle>
	<vehicle depart="0.1" departLane="4" departPos="37.628661238708546" departSpeed="15.24" id="105" type="passenger">
		<route edges="16"/>
	</vehicle>
	<vehicle depart="0.1" departLane="1" departPos="23.475189798636645" departSpeed="13.716" id="109" type="passenger">
		<route edges="16"/>
	</vehicle>
	<vehicle depart="0.1" departLane="3" departPos="24.981138830814555" departSpeed="15.24" id="114" type="passenger">
		<route edges="16"/>
	</vehicle>
	<vehicle depart="0.1" departLane="5" departPos="28.44925049307149" departSpeed="15.24" id="115" type="passenger">
		<route edges="16"/>
	</vehicle>
	<vehicle depart="0.1" departLane="4" departPos="19.010608245106738" departSpeed="15.24" id="116" type="passenger">
		<route edges="16"/>
	</vehicle>
	<vehicle depart="0.1" departLane="2" departPos="90.51138234480604" departSpeed="13.7282" id="117" type="passenger">
		<route edges="20 16"/>
	</vehicle>
	<vehicle depart="0.1" departLane="0" departPos="13.726819205643524" departSpeed="12.2011" id="118" type="passenger">
		<route edges="16 16"/>
	</vehicle>
	<vehicle depart="0.1" departLane="2" departPos="10.049643722586993" departSpeed="12.192" id="119" type="passenger">
		<route edges="16"/>
	</vehicle>
	<vehicle depart="0.1" departLane="3" departPos="90.40460281123447" departSpeed="13.713" id="120" type="passenger">
		<route edges="20 16"/>
	</vehicle>
	<vehicle depart="0.1" departLane="5" departPos="0" departSpeed="13.6489" id="121" type="passenger">
		<route edges="16"/>
	</vehicle>
	<vehicle depart="0.1" departLane="0" departPos="84.18777435085443" departSpeed="12.192" id="122" type="passenger">
		<route edges="20 16"/>
	</vehicle>
	<vehicle depart="0.1" departLane="1" departPos="87.10532964491931" departSpeed="12.1707" id="124" type="passenger">
		<route edges="20 16 16"/>
	</vehicle>
	<vehicle depart="0.1" departLane="2" departPos="62.40742186308203" departSpeed="13.3167" id="125" type="passenger">
		<route edges="20 16"/>
	</vehicle>
	<vehicle depart="0.1" departLane="3" departPos="66.43223106834218" departSpeed="13.713" id="127" type="passenger">
		<route edges="20 16"/>
	</vehicle>
	<vehicle depart="0.1" departLane="0" departPos="67.79215385322425" departSpeed="10.6528" id="131" type="passenger">
		<route edges="20 16"/>
	</vehicle>
	<vehicle depart="0.1" departLane="3" departPos="54.394323630131474" departSpeed="13.5026" id="132" type="passenger">
		<route edges="20 16 16"/>
	</vehicle>
	<vehicle depart="0.1" departLane="4" departPos="39.65623693829176" departSpeed="16.7335" id="134" type="passenger">
		<route edges="20 16"/>
	</vehicle>
	<vehicle depart="0.1" departLane="1" departPos="59.91220892520586" departSpeed="12.1829" id="135" type="passenger">
		<route edges="20 16"/>
	</vehicle>
	<vehicle depart="0.1" departLane="3" departPos="37.71901725192641" departSpeed="12.8595" id="136" type="passenger">
		<route edges="20 16"/>
	</vehicle>
	<vehicle depart="0.1" departLane="4" departPos="17.285922848089566" departSpeed="12.9266" id="137" type="passenger">
		<route edges="20 16"/>
	</vehicle>
	<vehicle depart="0.1" departLane="0" departPos="22.978368068825183" departSpeed="12.189" id="139" type="passenger">
		<route edges="20 16"/>
	</vehicle>
	<vehicle depart="0.1" departLane="0" departPos="53.86370275980399" departSpeed="10.8326" id="140" type="passenger">
		<route edges="20 20 16"/>
	</vehicle>
	<vehicle depart="0.1" departLane="2" departPos="31.76041278411315" departSpeed="10.665" id="142" type="passenger">
		<route edges="20 16"/>
	</vehicle>
	<vehicle depart="0.1" departLane="1" departPos="26.080972597070357" departSpeed="12.189" id="144" type="passenger">
		<route edges="20 16"/>
	</vehicle>
	<vehicle depart="0.1" departLane="1" departPos="9.160756533956294" departSpeed="10.7442" id="145" type="passenger">
		<route edges="20 16"/>
	</vehicle>
	<vehicle depart="0.1" departLane="3" departPos="12.77470295663214" departSpeed="12.0091" id="146" type="passenger">
		<route edges="20 16"/>
	</vehicle>
	<vehicle depart="0.1" departLane="2" departPos="12.573063378592797" departSpeed="10.54" id="150" type="passenger">
		<route edges="20 16"/>
	</vehicle>
</routes>
