<!-- generated on Tue Feb  9 22:23:45 2021 by Eclipse SUMO netconvert Version 1.8.0
<configuration xmlns:xsi="http://www.w3.org/2001/XMLSchema-instance" xsi:noNamespaceSchemaLocation="http://sumo.dlr.de/xsd/netconvertConfiguration.xsd">

    <input>
        <node-files value="./converted_scenarios/scenario-factory/DEU_Guetersloh-27_1_I-1-1/DEU_Guetersloh-27_1_I-1-1.nod.xml"/>
        <edge-files value="./converted_scenarios/scenario-factory/DEU_Guetersloh-27_1_I-1-1/DEU_Guetersloh-27_1_I-1-1.edg.xml"/>
        <connection-files value="./converted_scenarios/scenario-factory/DEU_Guetersloh-27_1_I-1-1/DEU_Guetersloh-27_1_I-1-1.con.xml"/>
        <tllogic-files value="./converted_scenarios/scenario-factory/DEU_Guetersloh-27_1_I-1-1/DEU_Guetersloh-27_1_I-1-1.tll.xml"/>
        <type-files value="/home/zen/commonroad-interactive-benchmarks/install/commonroad-map-tool/crmapconverter/sumo_map/templates/DEU.typ.xml"/>
    </input>

    <output>
        <output-file value="./converted_scenarios/scenario-factory/DEU_Guetersloh-27_1_I-1-1/DEU_Guetersloh-27_1_I-1-1.net.xml"/>
    </output>

    <processing>
        <geometry.remove.keep-edges.explicit value="true"/>
        <geometry.avoid-overlap value="true"/>
        <offset.disable-normalization value="true"/>
    </processing>

    <junctions>
        <no-turnarounds value="true"/>
        <junctions.internal-link-detail value="20"/>
    </junctions>

    <report>
        <aggregate-warnings value="5"/>
    </report>

    <random_number>
        <seed value="1234"/>
    </random_number>

</configuration>
--><net xmlns:xsi="http://www.w3.org/2001/XMLSchema-instance" version="1.6" junctionCornerDetail="5" junctionLinkDetail="20" limitTurnSpeed="5.50" xsi:noNamespaceSchemaLocation="http://sumo.dlr.de/xsd/net_file.xsd">

    <location netOffset="0.00,0.00" convBoundary="-519.51,-1108.95,-340.63,-934.37" origBoundary="-519.51,-1108.95,-340.63,-934.37" projParameter="!"/>

    <type id="highway.bridleway" priority="1" speed="2.78" allow="pedestrian" oneway="1" width="2.00"/>
    <type id="highway.bus_guideway" priority="1" speed="27.78" allow="bus" oneway="1"/>
    <type id="highway.cycleway" priority="1" speed="8.33" allow="bicycle" oneway="0" width="1.00"/>
    <type id="highway.footway" priority="1" speed="2.78" allow="pedestrian" oneway="1" width="2.00"/>
    <type id="highway.ford" priority="1" speed="2.78" allow="army" oneway="0"/>
    <type id="highway.living_street" priority="2" speed="2.78" disallow="tram rail_urban rail rail_electric rail_fast ship" oneway="0"/>
    <type id="highway.motorway" priority="14" speed="39.44" allow="private emergency authority army vip passenger hov taxi bus coach delivery truck trailer motorcycle evehicle custom1 custom2" oneway="1"/>
    <type id="highway.motorway_link" priority="9" speed="22.22" allow="private emergency authority army vip passenger hov taxi bus coach delivery truck trailer motorcycle evehicle custom1 custom2" oneway="1"/>
    <type id="highway.path" priority="1" speed="2.78" allow="pedestrian bicycle" oneway="0" width="2.00"/>
    <type id="highway.pedestrian" priority="1" speed="2.78" allow="pedestrian" oneway="1" width="2.00"/>
    <type id="highway.primary" priority="12" speed="27.78" disallow="pedestrian tram rail_urban rail rail_electric rail_fast ship" oneway="0"/>
    <type id="highway.primary_link" priority="7" speed="22.22" disallow="pedestrian tram rail_urban rail rail_electric rail_fast ship" oneway="0"/>
    <type id="highway.raceway" priority="15" speed="83.33" allow="vip" oneway="0"/>
    <type id="highway.residential" priority="3" speed="13.89" disallow="pedestrian tram rail_urban rail rail_electric rail_fast ship" oneway="0"/>
    <type id="highway.secondary" priority="11" speed="27.78" disallow="pedestrian tram rail_urban rail rail_electric rail_fast ship" oneway="0"/>
    <type id="highway.secondary_link" priority="6" speed="22.22" disallow="pedestrian tram rail_urban rail rail_electric rail_fast ship" oneway="0"/>
    <type id="highway.service" priority="1" speed="5.56" allow="pedestrian delivery bicycle" oneway="0"/>
    <type id="highway.stairs" priority="1" speed="1.39" allow="pedestrian" oneway="1" width="2.00"/>
    <type id="highway.step" priority="1" speed="1.39" allow="pedestrian" oneway="1" width="2.00"/>
    <type id="highway.steps" priority="1" speed="1.39" allow="pedestrian" oneway="1" width="2.00"/>
    <type id="highway.tertiary" priority="10" speed="22.22" disallow="pedestrian tram rail_urban rail rail_electric rail_fast ship" oneway="0"/>
    <type id="highway.tertiary_link" priority="5" speed="22.22" disallow="pedestrian tram rail_urban rail rail_electric rail_fast ship" oneway="0"/>
    <type id="highway.track" priority="1" speed="5.56" allow="pedestrian motorcycle moped bicycle" oneway="0"/>
    <type id="highway.trunk" priority="13" speed="27.78" disallow="pedestrian bicycle tram rail_urban rail rail_electric rail_fast ship" oneway="0"/>
    <type id="highway.trunk_link" priority="8" speed="22.22" disallow="pedestrian bicycle tram rail_urban rail rail_electric rail_fast ship" oneway="0"/>
    <type id="highway.unclassified" priority="4" speed="13.89" disallow="pedestrian tram rail_urban rail rail_electric rail_fast ship" oneway="0"/>
    <type id="highway.unsurfaced" priority="1" speed="8.33" disallow="tram rail_urban rail rail_electric rail_fast ship" oneway="0"/>
    <type id="railway.highspeed" priority="21" speed="69.44" allow="rail_fast" oneway="1"/>
    <type id="railway.light_rail" priority="19" speed="27.78" allow="rail_urban" oneway="1"/>
    <type id="railway.preserved" priority="16" speed="27.78" allow="rail" oneway="1"/>
    <type id="railway.rail" priority="20" speed="44.44" allow="rail" oneway="1"/>
    <type id="railway.subway" priority="18" speed="27.78" allow="rail_urban" oneway="1"/>
    <type id="railway.tram" priority="17" speed="13.89" allow="tram" oneway="1"/>

    <edge id=":29_0" function="internal">
        <lane id=":29_0_0" index="0" disallow="pedestrian tram rail_urban rail rail_electric rail_fast ship" speed="36.11" length="39.43" width="3.50" shape="-470.68,-1009.54 -475.09,-1021.21 -479.47,-1031.77 -483.35,-1040.27 -486.11,-1045.80"/>
    </edge>
    <edge id=":29_1" function="internal">
        <lane id=":29_1_0" index="0" disallow="pedestrian tram rail_urban rail rail_electric rail_fast ship" speed="11.50" length="40.49" width="3.50" shape="-470.68,-1009.54 -472.12,-1014.00 -472.87,-1017.03 -473.38,-1020.10 -473.56,-1023.21 -473.49,-1024.76 -473.27,-1026.30 -472.88,-1027.81 -472.29,-1029.25 -471.49,-1030.59 -470.48,-1031.77 -469.29,-1032.78 -467.96,-1033.58 -466.54,-1034.21 -465.05,-1034.67 -463.53,-1034.99 -460.43,-1035.30 -457.32,-1035.28 -454.22,-1035.02"/>
    </edge>
    <edge id=":29_2" function="internal">
        <lane id=":29_2_0" index="0" disallow="pedestrian tram rail_urban rail rail_electric rail_fast ship" speed="10.43" length="33.04" width="3.50" shape="-454.55,-1031.53 -457.29,-1031.77 -459.93,-1031.78 -462.53,-1031.51 -463.72,-1031.24 -464.88,-1030.87 -465.96,-1030.38 -466.93,-1029.77 -467.77,-1029.03 -468.48,-1028.17 -469.04,-1027.18 -469.45,-1026.10 -469.72,-1024.93 -469.88,-1023.71 -469.93,-1022.48 -469.75,-1019.86 -469.30,-1017.24 -468.65,-1014.64 -467.38,-1010.73"/>
    </edge>
    <edge id=":29_3" function="internal">
        <lane id=":29_3_0" index="0" disallow="pedestrian tram rail_urban rail rail_electric rail_fast ship" speed="16.54" length="35.89" width="3.50" shape="-454.55,-1031.53 -455.71,-1031.68 -461.07,-1032.49 -466.40,-1033.61 -470.63,-1034.81 -473.76,-1035.94 -476.82,-1037.33 -479.74,-1039.04 -481.61,-1040.42 -483.33,-1042.00 -484.86,-1043.81 -486.11,-1045.80"/>
    </edge>
    <edge id=":29_4" function="internal">
        <lane id=":29_4_0" index="0" disallow="pedestrian tram rail_urban rail rail_electric rail_fast ship" speed="15.74" length="32.44" width="3.50" shape="-483.02,-1047.44 -481.94,-1045.74 -480.61,-1044.21 -479.10,-1042.86 -477.44,-1041.69 -474.79,-1040.20 -472.00,-1038.99 -469.12,-1037.98 -465.21,-1036.91 -460.24,-1035.89 -455.22,-1035.14 -454.22,-1035.02"/>
    </edge>
    <edge id=":29_5" function="internal">
        <lane id=":29_5_0" index="0" disallow="pedestrian tram rail_urban rail rail_electric rail_fast ship" speed="36.11" length="39.93" width="3.50" shape="-483.02,-1047.44 -480.20,-1041.79 -476.27,-1033.19 -471.84,-1022.52 -467.38,-1010.73"/>
    </edge>
    <edge id=":30_0" function="internal">
        <lane id=":30_0_0" index="0" disallow="pedestrian tram rail_urban rail rail_electric rail_fast ship" speed="12.18" length="32.21" width="3.50" shape="-406.47,-1017.85 -409.68,-1019.01 -411.84,-1019.54 -414.03,-1019.86 -416.21,-1019.92 -418.36,-1019.69 -420.45,-1019.17 -422.44,-1018.34 -424.30,-1017.24 -426.04,-1015.90 -427.63,-1014.35 -429.08,-1012.66 -431.05,-1009.84 -432.75,-1006.82"/>
    </edge>
    <edge id=":30_1" function="internal">
        <lane id=":30_1_0" index="0" disallow="pedestrian tram rail_urban rail rail_electric rail_fast ship" speed="36.11" length="41.68" width="3.50" shape="-406.47,-1017.85 -417.77,-1022.45 -426.34,-1025.63 -433.09,-1027.86 -438.97,-1029.49 -442.95,-1030.33 -445.98,-1030.74"/>
    </edge>
    <edge id=":30_2" function="internal">
        <lane id=":30_2_0" index="0" disallow="pedestrian tram rail_urban rail rail_electric rail_fast ship" speed="11.90" length="34.63" width="3.50" shape="-406.47,-1017.85 -409.93,-1019.53 -412.16,-1020.90 -414.25,-1022.52 -416.13,-1024.40 -417.00,-1025.50 -417.75,-1026.65 -418.40,-1027.87 -418.94,-1029.16 -419.34,-1030.49 -419.61,-1031.84 -419.76,-1033.21 -419.79,-1034.61 -419.53,-1037.25 -418.94,-1039.84 -418.09,-1042.31 -416.49,-1045.80"/>
    </edge>
    <edge id=":30_3" function="internal">
        <lane id=":30_3_0" index="0" disallow="pedestrian tram rail_urban rail rail_electric rail_fast ship" speed="10.88" length="28.72" width="3.50" shape="-413.39,-1044.18 -414.77,-1041.17 -415.49,-1039.08 -415.98,-1036.93 -416.19,-1034.73 -416.17,-1033.62 -416.05,-1032.52 -415.84,-1031.44 -415.52,-1030.38 -415.09,-1029.36 -414.57,-1028.38 -413.97,-1027.46 -413.28,-1026.59 -411.73,-1025.03 -409.98,-1023.68 -408.09,-1022.52 -405.11,-1021.08"/>
    </edge>
    <edge id=":30_4" function="internal">
        <lane id=":30_4_0" index="0" disallow="pedestrian tram rail_urban rail rail_electric rail_fast ship" speed="36.11" length="42.08" width="3.50" shape="-413.39,-1044.18 -423.06,-1025.51 -432.75,-1006.82"/>
    </edge>
    <edge id=":30_5" function="internal">
        <lane id=":30_5_0" index="0" disallow="pedestrian tram rail_urban rail rail_electric rail_fast ship" speed="15.15" length="37.59" width="3.50" shape="-413.39,-1044.18 -414.57,-1042.15 -415.93,-1040.24 -417.47,-1038.47 -419.19,-1036.87 -421.06,-1035.45 -423.07,-1034.22 -425.18,-1033.19 -428.49,-1031.99 -431.92,-1031.18 -435.41,-1030.69 -438.92,-1030.48 -443.62,-1030.57 -445.98,-1030.74"/>
    </edge>
    <edge id=":30_6" function="internal">
        <lane id=":30_6_0" index="0" disallow="pedestrian tram rail_urban rail rail_electric rail_fast ship" speed="14.31" length="33.45" width="3.50" shape="-445.66,-1034.22 -443.51,-1034.06 -439.19,-1033.98 -435.99,-1034.15 -432.84,-1034.58 -429.77,-1035.28 -426.81,-1036.32 -424.97,-1037.20 -423.21,-1038.25 -421.57,-1039.46 -420.07,-1040.84 -418.72,-1042.36 -417.52,-1044.03 -416.49,-1045.80"/>
    </edge>
    <edge id=":30_7" function="internal">
        <lane id=":30_7_0" index="0" disallow="pedestrian tram rail_urban rail rail_electric rail_fast ship" speed="36.11" length="42.75" width="3.50" shape="-445.66,-1034.22 -442.45,-1033.79 -438.31,-1032.92 -432.26,-1031.26 -425.34,-1028.99 -416.60,-1025.75 -405.11,-1021.08"/>
    </edge>
    <edge id=":30_8" function="internal">
        <lane id=":30_8_0" index="0" disallow="pedestrian tram rail_urban rail rail_electric rail_fast ship" speed="11.49" length="39.14" width="3.50" shape="-445.66,-1034.22 -442.67,-1033.86 -439.72,-1033.26 -436.84,-1032.37 -435.46,-1031.78 -434.13,-1031.07 -432.88,-1030.24 -431.73,-1029.26 -430.73,-1028.15 -429.89,-1026.90 -429.24,-1025.54 -428.80,-1024.11 -428.54,-1022.62 -428.46,-1021.12 -428.51,-1019.62 -428.69,-1018.13 -429.34,-1015.19 -430.28,-1012.33 -432.07,-1008.19 -432.75,-1006.82"/>
    </edge>
    <edge id=":30_9" function="internal">
        <lane id=":30_9_0" index="0" disallow="pedestrian tram rail_urban rail rail_electric rail_fast ship" speed="10.43" length="31.97" width="3.50" shape="-435.86,-1008.42 -435.28,-1009.60 -433.71,-1013.23 -432.90,-1015.65 -432.34,-1018.14 -432.19,-1019.34 -432.13,-1020.55 -432.19,-1021.73 -432.37,-1022.86 -432.69,-1023.94 -433.15,-1024.94 -433.75,-1025.87 -434.49,-1026.71 -435.35,-1027.45 -436.32,-1028.11 -437.37,-1028.67 -438.46,-1029.15 -440.88,-1029.91 -443.39,-1030.42 -445.98,-1030.74"/>
    </edge>
    <edge id=":30_10" function="internal">
        <lane id=":30_10_0" index="0" disallow="pedestrian tram rail_urban rail rail_electric rail_fast ship" speed="36.11" length="42.11" width="3.50" shape="-435.87,-1008.42 -426.17,-1027.12 -416.49,-1045.80"/>
    </edge>
    <edge id=":30_11" function="internal">
        <lane id=":30_11_0" index="0" disallow="pedestrian tram rail_urban rail rail_electric rail_fast ship" speed="13.11" length="37.51" width="3.50" shape="-435.87,-1008.42 -433.94,-1011.82 -431.72,-1014.99 -430.03,-1016.95 -428.17,-1018.75 -426.12,-1020.32 -423.88,-1021.62 -421.49,-1022.59 -418.98,-1023.21 -416.41,-1023.47 -413.82,-1023.39 -411.27,-1023.01 -408.76,-1022.39 -405.11,-1021.08"/>
    </edge>
    <edge id=":31_0" function="internal">
        <lane id=":31_0_0" index="0" disallow="pedestrian tram rail_urban rail rail_electric rail_fast ship" speed="36.11" length="53.53" width="3.50" shape="-438.97,-993.03 -440.17,-990.13 -441.63,-987.36 -443.86,-983.82 -450.58,-974.48 -452.81,-970.95 -454.24,-968.16 -455.36,-965.23 -455.88,-963.21 -456.18,-961.14 -456.26,-959.05 -455.49,-944.22"/>
    </edge>
    <edge id=":31_1" function="internal">
        <lane id=":31_1_0" index="0" disallow="pedestrian tram rail_urban rail rail_electric rail_fast ship" speed="11.70" length="52.19" width="3.50" shape="-438.97,-993.03 -440.39,-989.27 -442.04,-985.61 -442.98,-983.83 -444.03,-982.12 -445.21,-980.49 -446.57,-979.02 -448.17,-977.82 -450.04,-977.11 -452.03,-977.12 -453.90,-977.83 -455.54,-978.98 -456.98,-980.38 -458.25,-981.93 -459.41,-983.57 -461.47,-987.02 -463.29,-990.60 -465.70,-996.13 -467.86,-1001.77"/>
    </edge>
    <edge id=":31_2" function="internal">
        <lane id=":31_2_0" index="0" disallow="pedestrian tram rail_urban rail rail_electric rail_fast ship" speed="10.55" length="42.04" width="3.50" shape="-464.57,-1002.96 -462.68,-998.01 -460.59,-993.18 -459.04,-990.08 -457.30,-987.10 -456.36,-985.73 -455.35,-984.43 -454.25,-983.29 -453.09,-982.37 -451.91,-981.81 -450.80,-981.68 -449.73,-981.96 -448.63,-982.67 -447.58,-983.71 -446.61,-984.96 -445.73,-986.35 -444.94,-987.81 -443.50,-990.95 -442.25,-994.25"/>
    </edge>
    <edge id=":31_3" function="internal">
        <lane id=":31_3_0" index="0" disallow="pedestrian tram rail_urban rail rail_electric rail_fast ship" speed="36.11" length="59.66" width="3.50" shape="-464.57,-1002.96 -462.62,-997.01 -461.00,-990.97 -459.45,-983.84 -458.08,-975.62 -456.93,-966.31 -455.49,-944.22"/>
    </edge>
    <edge id=":31_4" function="internal">
        <lane id=":31_4_0" index="0" disallow="pedestrian tram rail_urban rail rail_electric rail_fast ship" speed="36.11" length="58.65" width="3.50" shape="-458.99,-944.02 -460.41,-965.92 -461.53,-975.06 -462.88,-983.11 -464.38,-990.09 -465.96,-995.97 -467.86,-1001.77"/>
    </edge>
    <edge id=":31_5" function="internal">
        <lane id=":31_5_0" index="0" disallow="pedestrian tram rail_urban rail rail_electric rail_fast ship" speed="36.11" length="54.93" width="3.50" shape="-458.99,-944.02 -459.76,-958.94 -459.67,-961.22 -459.34,-963.51 -458.78,-965.75 -457.60,-968.92 -456.09,-971.92 -453.78,-975.65 -447.02,-985.20 -444.83,-988.71 -443.42,-991.40 -442.25,-994.25"/>
    </edge>

    <edge id="76942" from="30" to="31" priority="3" type="highway.residential" spreadType="center" length="15.17" shape="-423.79,-1025.12 -453.54,-983.56">
        <lane id="76942_0" index="0" disallow="pedestrian tram rail_urban rail rail_electric rail_fast ship" speed="36.11" length="15.17" width="3.50" customShape="1" shape="-432.75,-1006.82 -435.52,-1001.44 -437.01,-998.23 -438.97,-993.01"/>
    </edge>
    <edge id="76943" from="31" to="30" priority="3" type="highway.residential" spreadType="center" length="15.58" shape="-456.39,-985.60 -426.63,-1027.16">
        <lane id="76943_0" index="0" disallow="pedestrian tram rail_urban rail rail_electric rail_fast ship" speed="36.11" length="15.58" width="3.50" customShape="1" shape="-442.25,-994.25 -440.24,-999.57 -438.69,-1002.93 -435.86,-1008.44"/>
    </edge>
    <edge id="76945" from="26" to="30" priority="3" type="highway.residential" spreadType="center" length="70.01" shape="-380.94,-1106.21 -423.68,-1025.30">
        <lane id="76945_0" index="0" disallow="pedestrian tram rail_urban rail rail_electric rail_fast ship" speed="36.11" length="70.01" width="3.50" customShape="1" shape="-380.94,-1106.21 -396.50,-1076.46 -413.39,-1044.18"/>
    </edge>
    <edge id="76946" from="30" to="12" priority="3" type="highway.residential" spreadType="center" length="70.00" shape="-426.77,-1026.93 -384.05,-1107.83">
        <lane id="76946_0" index="0" disallow="pedestrian tram rail_urban rail rail_electric rail_fast ship" speed="36.11" length="70.00" width="3.50" customShape="1" shape="-416.49,-1045.80 -399.61,-1078.08 -384.05,-1107.83"/>
    </edge>
    <edge id="77200" from="31" to="23" priority="3" type="highway.residential" spreadType="center" length="9.82" shape="-453.18,-984.62 -455.30,-934.40">
        <lane id="77200_0" index="0" disallow="pedestrian tram rail_urban rail rail_electric rail_fast ship" speed="36.11" length="9.82" width="3.50" customShape="1" shape="-455.49,-944.22 -455.30,-934.40"/>
    </edge>
    <edge id="77201" from="28" to="31" priority="3" type="highway.residential" spreadType="center" length="9.65" shape="-458.80,-934.37 -456.67,-984.77">
        <lane id="77201_0" index="0" disallow="pedestrian tram rail_urban rail rail_electric rail_fast ship" speed="36.11" length="9.65" width="3.50" customShape="1" shape="-458.80,-934.37 -458.99,-944.02"/>
    </edge>
    <edge id="77203" from="29" to="31" priority="3" type="highway.residential" spreadType="center" length="8.26" shape="-467.67,-1030.54 -453.24,-985.10">
        <lane id="77203_0" index="0" disallow="pedestrian tram rail_urban rail rail_electric rail_fast ship" speed="36.11" length="8.26" width="3.50" customShape="1" shape="-467.38,-1010.73 -465.98,-1006.85 -464.57,-1002.96"/>
    </edge>
    <edge id="77204" from="31" to="29" priority="3" type="highway.residential" spreadType="center" length="8.28" shape="-456.58,-984.04 -471.00,-1029.49">
        <lane id="77204_0" index="0" disallow="pedestrian tram rail_urban rail rail_electric rail_fast ship" speed="36.11" length="8.28" width="3.50" customShape="1" shape="-467.86,-1001.77 -469.27,-1005.65 -470.68,-1009.55"/>
    </edge>
    <edge id="77206" from="27" to="29" priority="3" type="highway.residential" spreadType="center" length="70.03" shape="-516.43,-1108.95 -467.83,-1030.91">
        <lane id="77206_0" index="0" disallow="pedestrian tram rail_urban rail rail_electric rail_fast ship" speed="36.11" length="70.03" width="3.50" customShape="1" shape="-516.43,-1108.95 -513.02,-1102.59 -503.39,-1085.75 -495.79,-1071.88 -483.01,-1047.42"/>
    </edge>
    <edge id="77207" from="29" to="16" priority="3" type="highway.residential" spreadType="center" length="70.00" shape="-470.80,-1029.06 -519.51,-1107.31">
        <lane id="77207_0" index="0" disallow="pedestrian tram rail_urban rail rail_electric rail_fast ship" speed="36.11" length="70.00" width="3.50" customShape="1" shape="-486.11,-1045.80 -498.78,-1070.04 -506.29,-1083.77 -515.85,-1100.46 -519.51,-1107.31"/>
    </edge>
    <edge id="77350" from="30" to="29" priority="3" type="highway.residential" spreadType="center" length="8.66" shape="-425.30,-1024.39 -469.49,-1028.27">
        <lane id="77350_0" index="0" disallow="pedestrian tram rail_urban rail rail_electric rail_fast ship" speed="36.11" length="8.66" width="3.50" customShape="1" shape="-445.98,-1030.74 -450.29,-1031.14 -454.60,-1031.54"/>
    </edge>
    <edge id="77351" from="29" to="30" priority="3" type="highway.residential" spreadType="center" length="8.62" shape="-469.18,-1031.76 -424.99,-1027.88">
        <lane id="77351_0" index="0" disallow="pedestrian tram rail_urban rail rail_electric rail_fast ship" speed="36.11" length="8.62" width="3.50" customShape="1" shape="-454.22,-1035.02 -449.95,-1034.62 -445.64,-1034.22"/>
    </edge>
    <edge id="77353" from="25" to="30" priority="3" type="highway.residential" spreadType="center" length="70.01" shape="-341.99,-990.61 -425.90,-1024.53">
        <lane id="77353_0" index="0" disallow="pedestrian tram rail_urban rail rail_electric rail_fast ship" speed="36.11" length="70.01" width="3.50" customShape="1" shape="-341.99,-990.61 -355.79,-996.44 -406.48,-1017.85"/>
    </edge>
    <edge id="77354" from="30" to="14" priority="3" type="highway.residential" spreadType="center" length="70.00" shape="-424.59,-1027.78 -340.63,-993.84">
        <lane id="77354_0" index="0" disallow="pedestrian tram rail_urban rail rail_electric rail_fast ship" speed="36.11" length="70.00" width="3.50" customShape="1" shape="-405.11,-1021.08 -354.43,-999.67 -340.63,-993.84"/>
    </edge>

    <junction id="12" type="dead_end" x="-384.05" y="-1107.83" incLanes="76946_0" intLanes="" shape="-385.60,-1108.64 -382.49,-1107.02" rightOfWay="edgePriority"/>
    <junction id="14" type="dead_end" x="-340.63" y="-993.84" incLanes="77354_0" intLanes="" shape="-339.95,-995.45 -341.31,-992.23" rightOfWay="edgePriority"/>
    <junction id="16" type="dead_end" x="-519.51" y="-1107.31" incLanes="77207_0" intLanes="" shape="-521.05,-1106.48 -517.97,-1108.13" rightOfWay="edgePriority"/>
    <junction id="23" type="dead_end" x="-455.30" y="-934.40" incLanes="77200_0" intLanes="" shape="-453.55,-934.43 -457.05,-934.36" rightOfWay="edgePriority"/>
    <junction id="25" type="dead_end" x="-341.99" y="-990.61" incLanes="" intLanes="" shape="-341.31,-992.22 -342.67,-989.00" rightOfWay="edgePriority"/>
    <junction id="26" type="dead_end" x="-380.94" y="-1106.21" incLanes="" intLanes="" shape="-382.49,-1107.02 -379.39,-1105.40" rightOfWay="edgePriority"/>
    <junction id="27" type="dead_end" x="-516.43" y="-1108.95" incLanes="" intLanes="" shape="-517.97,-1108.12 -514.89,-1109.77" rightOfWay="edgePriority"/>
    <junction id="28" type="dead_end" x="-458.80" y="-934.37" incLanes="" intLanes="" shape="-457.05,-934.40 -460.55,-934.33" rightOfWay="edgePriority"/>
    <junction id="29" type="priority" x="-469.33" y="-1030.02" incLanes="77204_0 77350_0 77206_0" intLanes=":29_0_0 :29_1_0 :29_2_0 :29_3_0 :29_4_0 :29_5_0" shape="-472.32,-1008.95 -465.74,-1011.33 -467.16,-1016.68 -467.33,-1021.36 -466.21,-1025.19 -463.76,-1027.99 -459.94,-1029.59 -454.71,-1029.79 -454.06,-1036.76 -461.07,-1037.66 -467.10,-1038.96 -472.15,-1040.67 -476.23,-1042.79 -479.33,-1045.31 -481.46,-1048.23 -487.66,-1044.99 -483.83,-1037.57 -481.13,-1032.02 -479.09,-1027.37 -477.24,-1022.62 -475.14,-1016.81">
        <request index="0" response="000000" foes="001000" cont="0"/>
        <request index="1" response="110000" foes="111000" cont="0"/>
        <request index="2" response="100000" foes="100000" cont="0"/>
        <request index="3" response="100011" foes="100011" cont="0"/>
        <request index="4" response="000000" foes="000010" cont="0"/>
        <request index="5" response="000000" foes="001110" cont="0"/>
    </junction>
    <junction id="30" type="priority" x="-425.21" y="-1026.14" incLanes="77353_0 76945_0 77351_0 76943_0" intLanes=":30_0_0 :30_1_0 :30_2_0 :30_3_0 :30_4_0 :30_5_0 :30_6_0 :30_7_0 :30_8_0 :30_9_0 :30_10_0 :30_11_0" shape="-407.16,-1016.24 -404.43,-1022.69 -408.79,-1025.01 -411.89,-1027.79 -413.75,-1031.01 -414.36,-1034.68 -413.72,-1038.80 -411.84,-1043.37 -418.04,-1046.61 -420.63,-1042.82 -424.02,-1039.84 -428.19,-1037.66 -433.17,-1036.29 -438.93,-1035.72 -445.50,-1035.97 -446.14,-1029.00 -440.96,-1027.89 -437.35,-1025.75 -435.24,-1022.70 -434.59,-1018.85 -435.33,-1014.32 -437.42,-1009.22 -431.20,-1006.02 -428.14,-1010.96 -424.70,-1014.60 -420.88,-1016.95 -416.69,-1018.01 -412.11,-1017.77">
        <request index="0" response="000000010000" foes="000100010000" cont="0"/>
        <request index="1" response="111000110000" foes="111100110000" cont="0"/>
        <request index="2" response="110011110000" foes="110011110000" cont="0"/>
        <request index="3" response="000000000000" foes="100010000000" cont="0"/>
        <request index="4" response="000000000000" foes="100110000111" cont="0"/>
        <request index="5" response="011000000000" foes="011110000110" cont="0"/>
        <request index="6" response="010000000000" foes="010000000100" cont="0"/>
        <request index="7" response="110000111000" foes="110000111100" cont="0"/>
        <request index="8" response="110000110011" foes="110000110011" cont="0"/>
        <request index="9" response="000000000000" foes="000000100010" cont="0"/>
        <request index="10" response="000000000000" foes="000111100110" cont="0"/>
        <request index="11" response="000000011000" foes="000110011110" cont="0"/>
    </junction>
    <junction id="31" type="priority" x="-454.93" y="-984.63" incLanes="76942_0 77203_0 77201_0" intLanes=":31_0_0 :31_1_0 :31_2_0 :31_3_0 :31_4_0 :31_5_0" shape="-437.33,-992.40 -443.88,-994.86 -446.44,-990.97 -449.76,-989.85 -453.46,-991.03 -457.14,-994.03 -460.43,-998.36 -462.93,-1003.56 -469.51,-1001.18 -465.94,-990.51 -463.56,-981.44 -462.11,-973.11 -461.33,-964.65 -460.96,-955.21 -460.73,-943.93 -453.74,-944.32 -453.31,-954.94 -451.66,-962.70 -449.02,-968.96 -445.61,-975.09 -441.64,-982.45">
        <request index="0" response="001000" foes="001000" cont="0"/>
        <request index="1" response="111000" foes="111000" cont="0"/>
        <request index="2" response="000000" foes="100000" cont="0"/>
        <request index="3" response="000000" foes="100011" cont="0"/>
        <request index="4" response="000000" foes="000010" cont="0"/>
        <request index="5" response="001100" foes="001110" cont="0"/>
    </junction>

    <connection from="76942" to="77200" fromLane="0" toLane="0" contPos="-4.00" shape="-438.97,-993.03 -440.17,-990.13 -441.63,-987.36 -443.86,-983.82 -450.58,-974.48 -452.81,-970.95 -454.24,-968.16 -455.36,-965.23 -455.88,-963.21 -456.18,-961.14 -456.26,-959.05 -456.22,-958.00" via=":31_0_0" dir="s" state="m"/>
    <connection from="76942" to="77204" fromLane="0" toLane="0" contPos="-4.00" shape="-438.97,-993.03 -440.39,-989.27 -442.04,-985.61 -442.98,-983.83 -444.03,-982.12 -445.21,-980.49 -446.57,-979.02 -448.17,-977.82 -450.04,-977.11 -452.03,-977.12 -453.90,-977.83 -455.54,-978.98 -456.98,-980.38 -458.25,-981.93 -459.41,-983.57 -461.47,-987.02 -463.29,-990.60 -465.70,-996.13 -467.86,-1001.77" via=":31_1_0" dir="l" state="m"/>
    <connection from="76943" to="77350" fromLane="0" toLane="0" contPos="-4.00" shape="-435.86,-1008.44 -435.28,-1009.60 -433.71,-1013.23 -432.90,-1015.65 -432.34,-1018.14 -432.19,-1019.34 -432.13,-1020.55 -432.19,-1021.73 -432.37,-1022.86 -432.69,-1023.94 -433.15,-1024.94 -433.75,-1025.87 -434.49,-1026.71 -435.35,-1027.45 -436.32,-1028.11 -437.37,-1028.67 -438.46,-1029.15 -440.88,-1029.91 -443.39,-1030.42 -445.98,-1030.74" via=":30_9_0" dir="r" state="M"/>
    <connection from="76943" to="76946" fromLane="0" toLane="0" contPos="-4.00" shape="-435.86,-1008.44 -426.17,-1027.12 -416.49,-1045.80" via=":30_10_0" dir="s" state="M"/>
    <connection from="76943" to="77354" fromLane="0" toLane="0" contPos="-4.00" shape="-435.86,-1008.44 -433.94,-1011.82 -431.72,-1014.99 -430.03,-1016.95 -428.17,-1018.75 -426.12,-1020.32 -423.88,-1021.62 -421.49,-1022.59 -418.98,-1023.21 -416.41,-1023.47 -413.82,-1023.39 -411.27,-1023.01 -408.76,-1022.39 -405.11,-1021.08" via=":30_11_0" dir="l" state="m"/>
    <connection from="76945" to="77354" fromLane="0" toLane="0" contPos="-4.00" shape="-413.39,-1044.18 -414.77,-1041.17 -415.49,-1039.08 -415.98,-1036.93 -416.19,-1034.73 -416.17,-1033.62 -416.05,-1032.52 -415.84,-1031.44 -415.52,-1030.38 -415.09,-1029.36 -414.57,-1028.38 -413.97,-1027.46 -413.28,-1026.59 -411.73,-1025.03 -409.98,-1023.68 -408.09,-1022.52 -405.11,-1021.08" via=":30_3_0" dir="r" state="M"/>
    <connection from="76945" to="76942" fromLane="0" toLane="0" contPos="-4.00" shape="-413.39,-1044.18 -423.06,-1025.51 -432.75,-1006.82" via=":30_4_0" dir="s" state="M"/>
    <connection from="76945" to="77350" fromLane="0" toLane="0" contPos="-4.00" shape="-413.39,-1044.18 -414.57,-1042.15 -415.93,-1040.24 -417.47,-1038.47 -419.19,-1036.87 -421.06,-1035.45 -423.07,-1034.22 -425.18,-1033.19 -428.49,-1031.99 -431.92,-1031.18 -435.41,-1030.69 -438.92,-1030.48 -443.62,-1030.57 -445.98,-1030.74" via=":30_5_0" dir="l" state="m"/>
    <connection from="77201" to="77204" fromLane="0" toLane="0" contPos="-4.00" shape="-459.71,-957.77 -460.41,-965.92 -461.53,-975.06 -462.88,-983.11 -464.38,-990.09 -465.96,-995.97 -467.86,-1001.77" via=":31_4_0" dir="s" state="M"/>
    <connection from="77201" to="76943" fromLane="0" toLane="0" contPos="-4.00" shape="-459.71,-957.77 -459.76,-958.94 -459.67,-961.22 -459.34,-963.51 -458.78,-965.75 -457.60,-968.92 -456.09,-971.92 -453.78,-975.65 -447.02,-985.20 -444.83,-988.71 -443.42,-991.40 -442.25,-994.25" via=":31_5_0" dir="L" state="m"/>