<!-- generated on 2020-12-18 15:40:54.140956 by ipykernel_launcher.py v1_2_0+5214-53edc58fcd
-->
<edges>
	<edge from="1" function="normal" id="20" length="90.29011608339859" numLanes="5" priority="1" speed="36.11111111111111" spreadType="center" to="2">
		<lane allow="pedestrian rail private passenger ship delivery vip emergency bicycle rail_electric army rail_urban trailer coach custom2 tram taxi evehicle custom1 motorcycle authority hov moped" index="0" length="90.29011608339859" shape="-32.9921,25.6911 -30.29605,23.128149999999998 -27.458399999999997,20.36405 -19.95895,13.35725 -17.12125,10.59315 -12.58165,6.34715 -9.0635,3.1028000000000002 -6.1579999999999995,0.4087 1.654,-6.70805 2.23425,-7.245699999999999 4.596,-9.417349999999999 11.902899999999999,-16.0326 12.7023,-16.765 15.621500000000001,-19.48125 18.683750000000003,-22.2305 23.497149999999998,-26.3997 26.444650000000003,-29.044600000000003 27.99305,-30.384050000000002 33.931200000000004,-35.54805 33.940650000000005,-35.5563" speed="36.11111111111111" width="3.4518027826050566"/>
		<lane allow="pedestrian rail private passenger ship delivery vip emergency bicycle rail_electric army rail_urban trailer coach custom2 tram taxi evehicle custom1 motorcycle authority hov moped" index="1" length="90.29011608339859" shape="-30.612699999999997,28.241799999999998 -30.19105,27.8447 -27.89105,25.599249999999998 -27.391350000000003,25.09955 -25.1321,22.912399999999998 -19.618450000000003,17.7897 -17.56515,15.8181 -16.825400000000002,15.07835 -14.8297,13.1738 -8.82555,7.6671499999999995 -6.678,5.6758500000000005 -5.92125,4.9702 -3.7952000000000004,3.0070499999999996 1.8577,-2.1213 4.06285,-4.1419999999999995 4.75155,-4.78415 6.9296500000000005,-6.77285 13.063400000000001,-12.28715 15.1342,-14.18845 15.9565,-14.95525 17.994950000000003,-16.8123 23.8189,-21.9314 25.85505,-23.76455 26.705399999999997,-24.557499999999997 28.70485,-26.36435 34.8178,-31.692099999999996 36.216,-32.9493" speed="36.11111111111111" width="3.2505506856531254"/>
		<lane allow="pedestrian rail private passenger ship delivery vip emergency bicycle rail_electric army rail_urban trailer coach custom2 tram taxi evehicle custom1 motorcycle authority hov moped" index="2" length="90.29011608339859" shape="-28.3344,30.6841 -27.88935,30.2656 -25.08295,27.53265 -23.21345,25.76785 -20.3677,23.01285 -17.380200000000002,20.230800000000002 -14.5653,17.5248 -12.31055,15.45125 -9.4464,12.7178 -6.5831,10.12525 -3.6762,7.462149999999999 -1.0656,5.0931 1.8455,2.40515 4.0915,0.35900000000000004 6.99525,-2.31235 9.72265,-4.7697 12.64835,-7.441050000000001 15.29395,-9.81015 18.19415,-12.462250000000001 20.758000000000003,-14.7538 23.68655,-17.4217 25.950049999999997,-19.38825 28.87785,-21.98995 31.6407,-24.37495 34.5794,-27.0307 37.0189,-29.17355 38.410399999999996,-30.435049999999997" speed="36.11111111111111" width="3.1897109727998862"/>
		<lane allow="pedestrian rail private passenger ship delivery vip emergency bicycle rail_electric army rail_urban trailer coach custom2 tram taxi evehicle custom1 motorcycle authority truck hov moped" index="3" length="90.29011608339859" shape="-26.07475,33.1064 -20.9128,28.2498 -20.74875,28.09165 -18.05435,25.40005 -17.8519,25.207099999999997 -10.02955,17.919449999999998 -10.017050000000001,17.906950000000002 -7.22725,15.214300000000001 -7.047600000000001,15.046500000000002 0.9433499999999999,7.7943999999999996 1.2062,7.5531500000000005 3.82145,5.1144 4.08475,4.870900000000001 11.79155,-2.16155 11.96135,-2.318 14.67405,-4.8476 14.807300000000001,-4.96915 22.81745,-12.137 22.99455,-12.29935 25.69295,-14.81565 25.81455,-14.9255 33.851749999999996,-21.84725 33.936049999999994,-21.9234 36.790049999999994,-24.582549999999998 36.908249999999995,-24.6888 40.6275,-27.8948" speed="36.11111111111111" width="3.2118758662189943"/>
		<lane allow="pedestrian rail private passenger ship delivery vip emergency bicycle rail_electric army rail_urban trailer coach bus custom2 tram taxi evehicle custom1 motorcycle authority truck hov moped" index="4" length="90.29011608339859" shape="-23.73455,35.61505 -18.29835,30.543950000000002 -18.1019,30.35415 -15.44865,27.70395 -15.211400000000001,27.47545 -7.582699999999999,20.31985 -7.2974,20.05305 -4.6889,17.62055 -4.3859,17.3408 3.25955,10.3462 3.5503,10.0777 6.171,7.6339500000000005 6.4722,7.355500000000001 14.0955,0.36300000000000004 14.386,0.09429999999999994 17.0051,-2.34785 17.326050000000002,-2.64005 25.1039,-9.58135 25.396250000000002,-9.84805 28.0333,-12.30595 28.36965,-12.608350000000002 36.2201,-19.46755 36.5138,-19.73265 39.1649,-22.20245 39.527649999999994,-22.5212 42.863,-25.33345" speed="36.11111111111111" width="3.479396558312949"/>
	</edge>
	<edge from="2" function="normal" id="16" length="132.44969092070139" numLanes="6" priority="1" speed="36.11111111111111" spreadType="center" to="3">
		<lane allow="pedestrian rail private passenger ship delivery vip emergency bicycle rail_electric army rail_urban trailer coach custom2 tram taxi evehicle custom1 motorcycle authority truck hov moped" index="0" length="132.44969092070139" shape="31.474400000000003,-38.382000000000005 33.63865,-40.236999999999995 34.362049999999996,-40.88285 37.0319,-43.19685 37.755250000000004,-43.8427 40.457350000000005,-46.221000000000004 41.1807,-46.8669 43.8981,-49.2555 44.621449999999996,-49.90135 47.2913,-52.2154 48.0147,-52.86125 48.74165,-53.492450000000005 50.745149999999995,-55.234849999999994 51.468050000000005,-55.881299999999996 54.1515,-58.24205 54.8744,-58.8885 57.626549999999995,-61.2869 58.349450000000004,-61.933350000000004 60.92115,-64.1593 61.644000000000005,-64.80575 64.36085,-67.1373 65.08375,-67.7837 67.92765,-70.2947 68.65055000000001,-70.94115 71.30959999999999,-73.29415 72.0325,-73.94059999999999 74.84555,-76.3623 75.56845,-77.0087 78.19875,-79.3107 78.9216,-79.95715000000001 81.62950000000001,-82.3257 82.27405,-82.9026 82.35589999999999,-82.97495 85.18105,-85.35655 85.90465,-86.0021 88.52545,-88.3589 89.2491,-89.0044 91.92,-91.31745000000001 92.64359999999999,-91.963 95.43645000000001,-94.4109 96.16005000000001,-95.05645 98.6703,-97.21945 99.39394999999999,-97.86500000000001 102.16895,-100.29034999999999 102.89255,-100.9359 105.58914999999999,-103.19745 106.3128,-103.84305 109.0544,-106.29755 109.77805000000001,-106.94309999999999 110.43625,-107.51415 112.51214999999999,-109.31605 113.23564999999999,-109.96175 115.88745,-112.24709999999999 116.61095,-112.89285000000001 119.30575,-115.2142 120.0292,-115.85990000000001 124.53335,-119.766 125.25685,-120.41175000000001 128.12895,-122.86859999999999 128.85244999999998,-123.51429999999999 131.23185,-125.5627" speed="36.11111111111111" width="3.6814288122955743"/>
		<lane allow="pedestrian rail private passenger ship delivery vip emergency bicycle rail_electric army rail_urban trailer coach custom2 tram taxi evehicle custom1 motorcycle authority hov moped" index="1" length="132.44969092070139" shape="33.940650000000005,-35.5563 34.546499999999995,-36.07315 36.12705,-37.47615 36.83995,-38.1337 37.4791,-38.70415 39.32385,-40.23025 39.978449999999995,-40.785 40.0914,-40.876099999999994 40.6837,-41.37495 40.86515,-41.54 42.95845,-43.4337 42.97995,-43.453450000000004 43.67825,-44.0977 43.7712,-44.1813 46.3346,-46.435249999999996 47.0155,-47.04315 47.085,-47.1034 49.74325,-49.4096 50.4084,-50.0036 50.47185,-50.0589 50.942949999999996,-50.469300000000004 53.21025,-52.5051 53.8498,-53.09495 53.87405,-53.11635 60.009,-58.394400000000005 60.68365,-58.9846 60.781800000000004,-59.06805 61.689800000000005,-59.84105 61.7545,-59.900999999999996 63.422799999999995,-61.390550000000005 64.13565,-62.04815 64.65215,-62.50215 66.8017,-64.3361 67.45675,-64.91835 67.50855,-64.9637 70.34085,-67.45044999999999 71.03125,-68.0637 71.0809,-68.1071 72.6926,-69.5255 73.8008,-70.5376 74.51374999999999,-71.1952 75.66714999999999,-72.2167 77.26275000000001,-73.57605000000001 77.90695,-74.14605 77.9765,-74.20625000000001 80.6053,-76.4846 81.2738,-77.07565 81.3452,-77.1374 83.6665,-79.1482 83.68755,-79.16659999999999 84.0787,-79.50720000000001 84.80914999999999,-80.1576 86.7474,-81.7876 87.6395,-82.54235 88.30680000000001,-83.13865 90.9025,-85.4763 90.9522,-85.52025 91.64695,-86.1421 91.71685,-86.2027 94.37365,-88.50890000000001 94.52035000000001,-88.63945 95.0265,-89.09110000000001 95.08355,-89.14105 97.57900000000001,-91.32565 97.9051,-91.615 98.6249,-92.265 101.1216,-94.4428 101.8133,-95.06745000000001 101.85534999999999,-95.1045 104.6016,-97.53485 105.3214,-98.18485 106.27145,-98.9884 107.9958,-100.43375 108.6566,-101.02225 109.1161,-101.43195 111.3611,-103.423 112.09620000000001,-104.07235 112.17945,-104.1438 114.91855000000001,-106.49765 115.56925,-107.07175 115.66210000000001,-107.15105 117.0878,-108.36895 118.33295000000001,-109.4399 118.98995,-110.025 119.07085000000001,-110.09460000000001 120.0818,-110.96549999999999 121.7621,-112.42795000000001 122.4825,-113.07730000000001 126.96705,-117.0051 127.68745,-117.65445 127.76839999999999,-117.7233 130.54579999999999,-120.0945 130.65865,-120.1942 131.10750000000002,-120.58735 131.21890000000002,-120.6808 133.67985,-122.74185" speed="36.11111111111111" width="3.504353214217994"/>
		<lane allow="pedestrian rail private passenger ship delivery vip emergency bicycle rail_electric army rail_urban trailer coach custom2 tram taxi evehicle custom1 motorcycle authority hov moped" index="2" length="132.44969092070139" shape="36.216,-32.9493 36.82195,-33.495400000000004 37.70425,-34.318200000000004 39.580349999999996,-35.986149999999995 39.7432,-36.1191 43.114850000000004,-38.889399999999995 45.6391,-41.1275 45.745999999999995,-41.226150000000004 46.115700000000004,-41.5667 46.17205,-41.61645 48.73895,-43.93415 53.19825,-47.782700000000006 56.067949999999996,-50.33995 56.185900000000004,-50.44065 56.8237,-50.985 56.90005,-51.055400000000006 59.797250000000005,-53.6192 63.982150000000004,-57.1737 66.82695000000001,-59.717600000000004 66.92435,-59.80175 67.9298,-60.6713 70.88015,-63.322599999999994 74.9882,-66.84575000000001 77.84765,-69.39 77.9596,-69.48585 79.07325,-70.4407 79.13235,-70.4954 82.03,-73.08590000000001 85.9957,-76.5556 88.96955,-79.1739 90.09254999999999,-80.16579999999999 93.07065,-82.76325 96.8854,-86.09305 99.88115,-88.6992 100.98865,-89.67595 103.95855,-92.29375 108.48445000000001,-96.29705 108.51495,-96.3236 111.49645,-98.9248 112.08905,-99.43705 115.0907,-102.02345 119.3752,-105.7091 122.36365,-108.30250000000001 130.0106,-115.01905 130.04345,-115.04755 133.03825,-117.6469 134.57785,-118.94669999999999 135.95865,-120.116" speed="36.11111111111111" width="3.216879682238673"/>
		<lane allow="pedestrian rail private passenger ship delivery vip emergency bicycle rail_electric army rail_urban trailer coach custom2 tram taxi evehicle custom1 motorcycle authority truck hov moped" index="3" length="132.44969092070139" shape="38.410399999999996,-30.435049999999997 39.8811,-31.7681 39.98135,-31.854349999999997 42.85765,-34.339 45.8198,-36.968500000000006 47.95515,-38.7731 50.7918,-41.2923 50.91035,-41.393100000000004 53.92315,-43.954750000000004 56.88105,-46.59145 59.023,-48.4411 61.8842,-51.0259 61.975,-51.10455 65.0385,-53.76085 67.99155,-56.4015 70.03344999999999,-58.12425 72.89625,-60.64225 73.02835,-60.75315 76.16405,-63.391600000000004 79.12424999999999,-66.02625 81.28885,-67.88665 84.1454,-70.4592 84.2164,-70.5216 87.39625,-73.3235 90.3243,-75.99355 92.20755,-77.64519999999999 92.24455,-77.67725 95.23474999999999,-80.26655 98.4555,-83.057 98.4667,-83.0668 101.4572,-85.66829999999999 103.22945,-87.2308 106.20265,-89.8497 109.398,-92.67415 112.38395,-95.2789 114.2666,-96.9447 117.23855,-99.56495000000001 120.63775000000001,-102.5566 123.63040000000001,-105.15365 131.69844999999998,-112.11265 131.71089999999998,-112.1235 134.70155,-114.71875 136.67265,-116.41485 138.10180000000003,-117.64645" speed="36.11111111111111" width="3.1175293182262114"/>
		<lane allow="pedestrian rail private passenger ship delivery vip emergency bicycle rail_electric army rail_urban trailer coach custom2 tram taxi evehicle custom1 motorcycle authority hov moped" index="4" length="132.44969092070139" shape="40.6275,-27.8948 44.93625,-31.60885 45.12875,-31.78425 47.800749999999994,-34.2759 47.8619,-34.33295 47.9885,-34.44085 56.1287,-41.3805 56.2976,-41.53335 59.07955,-44.1238 59.24095,-44.26855 67.25,-51.1456 67.32315,-51.2129 70.10715,-53.809 78.35645,-60.857600000000005 78.4773,-60.9679 81.29124999999999,-63.589999999999996 81.4212,-63.705749999999995 89.57185000000001,-70.7041 89.68885,-70.81085 92.42775,-73.3649 100.3977,-80.2817 100.67925,-80.52545 103.38454999999999,-82.87710000000001 103.67245,-83.128 111.4534,-89.9984 111.57745,-90.10785 111.6108,-90.13685000000001 114.4876,-92.63804999999999 114.6166,-92.75175 122.72205,-99.98765 122.75389999999999,-100.0161 122.80420000000001,-100.0599 125.73435,-102.60745 125.7957,-102.6608 133.8656,-109.6387 134.0032,-109.7584 136.85500000000002,-112.23745 137.00505,-112.36670000000001 140.25495,-115.1654" speed="36.11111111111111" width="3.2654832184532734"/>
		<lane allow="pedestrian rail private passenger ship delivery vip emergency bicycle rail_electric army rail_urban trailer coach custom2 tram taxi evehicle custom1 motorcycle authority hov moped" index="5" length="132.44969092070139" shape="42.863,-25.33345 47.19605,-28.987000000000002 47.427949999999996,-29.18975 47.552949999999996,-29.305999999999997 50.164199999999994,-31.7354 50.5166,-32.04885 58.5869,-38.97695 58.8291,-39.1917 58.9323,-39.287800000000004 61.54265,-41.718149999999994 61.90805,-42.03915 69.54505,-48.47345 69.77655,-48.6757 69.90245,-48.7928 72.51375,-51.22215 72.84945,-51.5249 80.74625,-58.4602 81.00139999999999,-58.69005 81.07675,-58.76025 83.6862,-61.19155 84.04599999999999,-61.50895 91.81305,-68.0935 92.04804999999999,-68.29985 92.16645,-68.4101 94.7775,-70.83975000000001 95.1179,-71.14555 102.6363,-77.70255 103.0247,-78.04075 105.62434999999999,-80.30055 106.0053,-80.6325 113.77775,-87.42175 114.16499999999999,-87.75915 116.76464999999999,-90.01905 117.10480000000001,-90.3183 117.137,-90.34694999999999 125.0448,-97.39425 125.4174,-97.72205 128.0171,-99.98195 128.4047,-100.31909999999999 136.26295,-107.1609 136.6526,-107.49985000000001 139.25225,-109.75975 139.6443,-110.10025 142.5,-112.57845" speed="36.11111111111111" width="3.47915842985053"/>
	</edge>
	<edge from="4" function="normal" id="17" length="91.06812158925848" numLanes="1" priority="1" speed="36.11111111111111" spreadType="center" to="2">
		<lane allow="pedestrian rail private passenger ship delivery vip emergency bicycle rail_electric army rail_urban trailer coach bus custom2 tram taxi evehicle custom1 motorcycle authority truck hov moped" index="0" length="91.06812158925848" shape="-39.0619,19.184350000000002 -34.766149999999996,16.0514 -33.3607,14.981349999999999 -25.4342,8.9027 -18.99745,3.7656 -13.869299999999999,-0.40835 -6.1477,-6.694100000000001 -4.49355,-8.06075 4.05805,-15.16405 15.903099999999998,-24.94945 16.2243,-25.2149 22.08115,-30.196649999999998 25.5411,-33.20155 31.474400000000003,-38.382000000000005" speed="36.11111111111111" width="3.6400067087850267"/>
	</edge>
</edges>
