<routes>
	<vehicle depart="0.1" departLane="2" departPos="71.88161083598489" departSpeed="12.5873" id="117" type="passenger">
		<route edges="20 16"/>
	</vehicle>
	<vehicle depart="0.1" departLane="3" departPos="64.56355665000063" departSpeed="13.2515" id="120" type="passenger">
		<route edges="20 16"/>
	</vehicle>
	<vehicle depart="0.1" departLane="0" departPos="75.82633114009901" departSpeed="13.6143" id="122" type="passenger">
		<route edges="20 16"/>
	</vehicle>
	<vehicle depart="0.1" departLane="1" departPos="77.35213039010031" departSpeed="11.9734" id="124" type="passenger">
		<route edges="20 16"/>
	</vehicle>
	<vehicle depart="0.1" departLane="2" departPos="54.29152521360315" departSpeed="11.5902" id="125" type="passenger">
		<route edges="20 16"/>
	</vehicle>
	<vehicle depart="0.1" departLane="3" departPos="36.42730160819697" departSpeed="13.0907" id="127" type="passenger">
		<route edges="20 16"/>
	</vehicle>
	<vehicle depart="0.1" departLane="0" departPos="42.69398049693066" departSpeed="10.7641" id="131" type="passenger">
		<route edges="20 16"/>
	</vehicle>
	<vehicle depart="0.1" departLane="3" departPos="47.64268960509424" departSpeed="12.6239" id="132" type="passenger">
		<route edges="20 16"/>
	</vehicle>
	<vehicle depart="0.1" departLane="4" departPos="46.95946384031787" departSpeed="15.7259" id="134" type="passenger">
		<route edges="20 16"/>
	</vehicle>
	<vehicle depart="0.1" departLane="1" departPos="53.985443556234564" departSpeed="10.4944" id="135" type="passenger">
		<route edges="20 16"/>
	</vehicle>
	<vehicle depart="0.1" departLane="3" departPos="55.13603075919578" departSpeed="13.6328" id="136" type="passenger">
		<route edges="20 16"/>
	</vehicle>
	<vehicle depart="0.1" departLane="2" departPos="47.17685622198312" departSpeed="11.1673" id="142" type="passenger">
		<route edges="20 16"/>
	</vehicle>
	<vehicle depart="0.1" departLane="1" departPos="28.49031838234264" departSpeed="10.2887" id="144" type="passenger">
		<route edges="20 16"/>
	</vehicle>
</routes>
