<routes>
	<vehicle depart="0.1" departLane="1" departPos="105.37441029438128" departSpeed="11.335577" id="1" type="passenger">
		<route edges="26 28 24"/>
	</vehicle>
	<vehicle depart="0.1" departLane="0" departPos="0" departSpeed="11.174203" id="2" type="passenger">
		<route edges="26 27 24"/>
	</vehicle>
	<vehicle depart="0.1" departLane="0" departPos="0" departSpeed="11.174203" id="3" type="passenger">
		<route edges="26 27 24"/>
	</vehicle>
</routes>
