<routes>
	<vehicle depart="0.1" departLane="0" departPos="18.1964939257577" departSpeed="3.3428276" id="39" type="bicycle">
		<route edges="49972 49969"/>
	</vehicle>
	<vehicle depart="0.1" departLane="0" departPos="6.2" departSpeed="2.0907553" id="334" type="bus">
		<route edges=":30_0 49674"/>
	</vehicle>
	<vehicle depart="0.1" departLane="0" departPos="8.613721087719789" departSpeed="0.30469066" id="35" type="passenger">
		<route edges=":30_2 49969"/>
	</vehicle>
	<vehicle depart="0.1" departLane="0" departPos="49.260477073066006" departSpeed="0.0" id="36" type="passenger">
		<route edges="49675 49969"/>
	</vehicle>
	<vehicle depart="0.1" departLane="0" departPos="41.539167677529754" departSpeed="0.24061775" id="37" type="passenger">
		<route edges="49675 49969"/>
	</vehicle>
	<vehicle depart="0.1" departLane="0" departPos="2.5" departSpeed="7.0373537" id="38" type="passenger">
		<route edges="49973 49976"/>
	</vehicle>
	<vehicle depart="0.1" departLane="0" departPos="9.97144003897263" departSpeed="2.816577" id="328" type="passenger">
		<route edges=":29_1 49683"/>
	</vehicle>
	<vehicle depart="0.1" departLane="0" departPos="33.97919920802987" departSpeed="1.4134811" id="339" type="passenger">
		<route edges="49970 49973"/>
	</vehicle>
	<vehicle depart="0.1" departLane="0" departPos="17.990474900427436" departSpeed="1.6248238" id="343" type="passenger">
		<route edges="49970 49973"/>
	</vehicle>
	<vehicle depart="0.1" departLane="0" departPos="21.48810699859069" departSpeed="9.0898851" id="34" type="motorcycle">
		<route edges=":30_3 49674 49723"/>
	</vehicle>
</routes>
