<!-- generated on Tue Feb  9 22:10:19 2021 by Eclipse SUMO netconvert Version 1.8.0
<configuration xmlns:xsi="http://www.w3.org/2001/XMLSchema-instance" xsi:noNamespaceSchemaLocation="http://sumo.dlr.de/xsd/netconvertConfiguration.xsd">

    <input>
        <node-files value="./converted_scenarios/scenario-factory/ITA_Foggia-10_1_I-1-1/ITA_Foggia-10_1_I-1-1.nod.xml"/>
        <edge-files value="./converted_scenarios/scenario-factory/ITA_Foggia-10_1_I-1-1/ITA_Foggia-10_1_I-1-1.edg.xml"/>
        <connection-files value="./converted_scenarios/scenario-factory/ITA_Foggia-10_1_I-1-1/ITA_Foggia-10_1_I-1-1.con.xml"/>
        <tllogic-files value="./converted_scenarios/scenario-factory/ITA_Foggia-10_1_I-1-1/ITA_Foggia-10_1_I-1-1.tll.xml"/>
        <type-files value="/home/zen/commonroad-interactive-benchmarks/install/commonroad-map-tool/crmapconverter/sumo_map/templates/DEU.typ.xml"/>
    </input>

    <output>
        <output-file value="./converted_scenarios/scenario-factory/ITA_Foggia-10_1_I-1-1/ITA_Foggia-10_1_I-1-1.net.xml"/>
    </output>

    <processing>
        <geometry.remove.keep-edges.explicit value="true"/>
        <geometry.avoid-overlap value="true"/>
        <offset.disable-normalization value="true"/>
    </processing>

    <junctions>
        <no-turnarounds value="true"/>
        <junctions.internal-link-detail value="20"/>
    </junctions>

    <report>
        <aggregate-warnings value="5"/>
    </report>

    <random_number>
        <seed value="1234"/>
    </random_number>

</configuration>
--><net xmlns:xsi="http://www.w3.org/2001/XMLSchema-instance" version="1.6" junctionCornerDetail="5" junctionLinkDetail="20" limitTurnSpeed="5.50" xsi:noNamespaceSchemaLocation="http://sumo.dlr.de/xsd/net_file.xsd">

    <location netOffset="0.00,0.00" convBoundary="-207.01,836.45,34.90,971.13" origBoundary="-207.01,835.09,34.90,971.13" projParameter="!"/>

    <type id="highway.bridleway" priority="1" speed="2.78" allow="pedestrian" oneway="1" width="2.00"/>
    <type id="highway.bus_guideway" priority="1" speed="27.78" allow="bus" oneway="1"/>
    <type id="highway.cycleway" priority="1" speed="8.33" allow="bicycle" oneway="0" width="1.00"/>
    <type id="highway.footway" priority="1" speed="2.78" allow="pedestrian" oneway="1" width="2.00"/>
    <type id="highway.ford" priority="1" speed="2.78" allow="army" oneway="0"/>
    <type id="highway.living_street" priority="2" speed="2.78" disallow="tram rail_urban rail rail_electric rail_fast ship" oneway="0"/>
    <type id="highway.motorway" priority="14" speed="39.44" allow="private emergency authority army vip passenger hov taxi bus coach delivery truck trailer motorcycle evehicle custom1 custom2" oneway="1"/>
    <type id="highway.motorway_link" priority="9" speed="22.22" allow="private emergency authority army vip passenger hov taxi bus coach delivery truck trailer motorcycle evehicle custom1 custom2" oneway="1"/>
    <type id="highway.path" priority="1" speed="2.78" allow="pedestrian bicycle" oneway="0" width="2.00"/>
    <type id="highway.pedestrian" priority="1" speed="2.78" allow="pedestrian" oneway="1" width="2.00"/>
    <type id="highway.primary" priority="12" speed="27.78" disallow="pedestrian tram rail_urban rail rail_electric rail_fast ship" oneway="0"/>
    <type id="highway.primary_link" priority="7" speed="22.22" disallow="pedestrian tram rail_urban rail rail_electric rail_fast ship" oneway="0"/>
    <type id="highway.raceway" priority="15" speed="83.33" allow="vip" oneway="0"/>
    <type id="highway.residential" priority="3" speed="13.89" disallow="pedestrian tram rail_urban rail rail_electric rail_fast ship" oneway="0"/>
    <type id="highway.secondary" priority="11" speed="27.78" disallow="pedestrian tram rail_urban rail rail_electric rail_fast ship" oneway="0"/>
    <type id="highway.secondary_link" priority="6" speed="22.22" disallow="pedestrian tram rail_urban rail rail_electric rail_fast ship" oneway="0"/>
    <type id="highway.service" priority="1" speed="5.56" allow="pedestrian delivery bicycle" oneway="0"/>
    <type id="highway.stairs" priority="1" speed="1.39" allow="pedestrian" oneway="1" width="2.00"/>
    <type id="highway.step" priority="1" speed="1.39" allow="pedestrian" oneway="1" width="2.00"/>
    <type id="highway.steps" priority="1" speed="1.39" allow="pedestrian" oneway="1" width="2.00"/>
    <type id="highway.tertiary" priority="10" speed="22.22" disallow="pedestrian tram rail_urban rail rail_electric rail_fast ship" oneway="0"/>
    <type id="highway.tertiary_link" priority="5" speed="22.22" disallow="pedestrian tram rail_urban rail rail_electric rail_fast ship" oneway="0"/>
    <type id="highway.track" priority="1" speed="5.56" allow="pedestrian motorcycle moped bicycle" oneway="0"/>
    <type id="highway.trunk" priority="13" speed="27.78" disallow="pedestrian bicycle tram rail_urban rail rail_electric rail_fast ship" oneway="0"/>
    <type id="highway.trunk_link" priority="8" speed="22.22" disallow="pedestrian bicycle tram rail_urban rail rail_electric rail_fast ship" oneway="0"/>
    <type id="highway.unclassified" priority="4" speed="13.89" disallow="pedestrian tram rail_urban rail rail_electric rail_fast ship" oneway="0"/>
    <type id="highway.unsurfaced" priority="1" speed="8.33" disallow="tram rail_urban rail rail_electric rail_fast ship" oneway="0"/>
    <type id="railway.highspeed" priority="21" speed="69.44" allow="rail_fast" oneway="1"/>
    <type id="railway.light_rail" priority="19" speed="27.78" allow="rail_urban" oneway="1"/>
    <type id="railway.preserved" priority="16" speed="27.78" allow="rail" oneway="1"/>
    <type id="railway.rail" priority="20" speed="44.44" allow="rail" oneway="1"/>
    <type id="railway.subway" priority="18" speed="27.78" allow="rail_urban" oneway="1"/>
    <type id="railway.tram" priority="17" speed="13.89" allow="tram" oneway="1"/>

    <edge id=":12_0" function="internal">
        <lane id=":12_0_0" index="0" disallow="pedestrian tram rail_urban rail rail_electric rail_fast ship" speed="36.11" length="3.07" width="3.50" shape="-31.02,881.64 -33.46,879.78"/>
    </edge>
    <edge id=":12_1" function="internal">
        <lane id=":12_1_0" index="0" disallow="pedestrian tram rail_urban rail rail_electric rail_fast ship" speed="36.11" length="3.23" width="3.50" shape="-28.81,879.02 -31.33,877.00"/>
    </edge>
    <edge id=":14_0" function="internal">
        <lane id=":14_0_0" index="0" disallow="pedestrian tram rail_urban rail rail_electric rail_fast ship" speed="36.11" length="2.98" width="3.50" shape="-103.50,884.16 -106.30,885.17"/>
    </edge>
    <edge id=":38_0" function="internal">
        <lane id=":38_0_0" index="0" disallow="pedestrian tram rail_urban rail rail_electric rail_fast ship" speed="3.25" length="3.00" width="3.50" shape="14.97,918.43 12.59,916.60"/>
    </edge>
    <edge id=":44_0" function="internal">
        <lane id=":44_0_0" index="0" disallow="pedestrian tram rail_urban rail rail_electric rail_fast ship" speed="36.11" length="0.26" width="3.50" shape="-13.94,871.41 -13.74,871.57"/>
    </edge>
    <edge id=":45_0" function="internal">
        <lane id=":45_0_0" index="0" disallow="pedestrian tram rail_urban rail rail_electric rail_fast ship" speed="36.11" length="2.95" width="3.50" shape="6.76,890.35 9.02,892.25"/>
    </edge>
    <edge id=":54_0" function="internal">
        <lane id=":54_0_0" index="0" disallow="pedestrian tram rail_urban rail rail_electric rail_fast ship" speed="36.11" length="7.95" width="3.50" shape="-109.88,882.76 -102.49,879.82"/>
        <lane id=":54_0_1" index="1" disallow="pedestrian tram rail_urban rail rail_electric rail_fast ship" speed="36.11" length="7.96" width="3.50" shape="-109.88,882.76 -102.39,880.08"/>
    </edge>
    <edge id=":57_0" function="internal">
        <lane id=":57_0_0" index="0" disallow="pedestrian tram rail_urban rail rail_electric rail_fast ship" speed="14.09" length="27.64" width="3.50" shape="8.55,915.26 8.27,915.20 5.65,914.94 2.50,915.04 -1.15,915.53 -5.77,916.57 -10.80,918.11 -17.21,920.51 -18.18,920.91"/>
    </edge>
    <edge id=":57_1" function="internal">
        <lane id=":57_1_0" index="0" disallow="pedestrian tram rail_urban rail rail_electric rail_fast ship" speed="36.11" length="15.91" width="3.50" shape="9.44,914.10 1.57,907.88 -2.98,904.16"/>
    </edge>
    <edge id=":57_2" function="internal">
        <lane id=":57_2_0" index="0" disallow="pedestrian tram rail_urban rail rail_electric rail_fast ship" speed="36.11" length="15.91" width="3.50" shape="9.44,914.10 1.57,907.88 -2.98,904.16"/>
    </edge>
    <edge id=":57_3" function="internal">
        <lane id=":57_3_0" index="0" disallow="pedestrian tram rail_urban rail rail_electric rail_fast ship" speed="9.97" length="30.82" width="3.50" shape="-19.53,917.68 -15.79,915.96 -12.82,914.25 -10.62,912.62 -9.15,911.19 -7.92,909.54 -7.32,908.31 -6.95,906.99 -6.85,905.63 -7.02,904.27 -7.42,902.96 -8.34,901.12 -9.53,899.45 -11.38,897.43 -13.42,895.60"/>
    </edge>
    <edge id=":57_4" function="internal">
        <lane id=":57_4_0" index="0" disallow="pedestrian tram rail_urban rail rail_electric rail_fast ship" speed="9.97" length="30.82" width="3.50" shape="-19.53,917.68 -15.79,915.96 -12.82,914.25 -10.62,912.62 -9.15,911.19 -7.92,909.54 -7.32,908.31 -6.95,906.99 -6.85,905.63 -7.02,904.27 -7.42,902.96 -8.34,901.12 -9.53,899.45 -11.38,897.43 -13.42,895.60"/>
    </edge>
    <edge id=":58_0" function="internal">
        <lane id=":58_0_0" index="0" disallow="pedestrian tram rail_urban rail rail_electric rail_fast ship" speed="36.11" length="41.55" width="3.50" shape="-57.50,937.22 -76.65,945.28 -95.80,953.34"/>
    </edge>
    <edge id=":58_1" function="internal">
        <lane id=":58_1_0" index="0" disallow="pedestrian tram rail_urban rail rail_electric rail_fast ship" speed="12.08" length="18.29" width="3.50" shape="-76.79,934.72 -73.83,935.40 -70.70,935.79 -67.54,935.86 -64.40,935.56 -61.83,935.01 -59.33,934.19 -58.84,933.99"/>
    </edge>
    <edge id=":58_2" function="internal">
        <lane id=":58_2_0" index="0" disallow="pedestrian tram rail_urban rail rail_electric rail_fast ship" speed="10.79" length="38.52" width="3.50" shape="-94.43,926.39 -90.87,928.91 -88.08,931.24 -86.03,933.31 -84.68,935.02 -83.56,936.89 -83.01,938.24 -82.67,939.65 -82.59,941.10 -82.80,942.54 -83.28,943.91 -83.99,945.17 -85.36,946.87 -86.97,948.34 -89.33,950.03 -92.50,951.81 -95.80,953.34"/>
    </edge>
    <edge id=":58_3" function="internal">
        <lane id=":58_3_0" index="0" disallow="pedestrian tram rail_urban rail rail_electric rail_fast ship" speed="36.11" length="41.59" width="3.50" shape="-97.17,950.12 -78.01,942.05 -58.84,933.99"/>
    </edge>
    <edge id=":59_0" function="internal">
        <lane id=":59_0_0" index="0" disallow="pedestrian tram rail_urban rail rail_electric rail_fast ship" speed="15.00" length="30.78" width="3.50" shape="-35.04,878.58 -44.31,871.77 -47.14,870.25 -49.62,869.26 -52.21,868.57 -54.86,868.23 -57.54,868.29 -60.17,868.74 -62.73,869.57"/>
    </edge>
    <edge id=":59_1" function="internal">
        <lane id=":59_1_0" index="0" disallow="pedestrian tram rail_urban rail rail_electric rail_fast ship" speed="8.62" length="35.57" width="3.50" shape="-32.94,875.78 -44.09,867.55 -55.20,860.27 -59.70,856.91 -61.86,855.11"/>
    </edge>
    <edge id=":59_2" function="internal">
        <lane id=":59_2_0" index="0" disallow="pedestrian tram rail_urban rail rail_electric rail_fast ship" speed="36.11" length="18.49" width="3.50" shape="-46.17,861.37 -48.52,862.36 -52.32,864.26 -58.85,867.80 -62.73,869.57"/>
    </edge>
    <edge id=":59_3" function="internal">
        <lane id=":59_3_0" index="0" disallow="pedestrian tram rail_urban rail rail_electric rail_fast ship" speed="7.59" length="17.55" width="3.50" shape="-46.17,861.37 -47.14,861.56 -48.77,861.68 -50.39,861.54 -52.50,861.01 -55.00,859.95 -57.35,858.58 -60.42,856.33 -61.86,855.11"/>
    </edge>
    <edge id=":59_4" function="internal">
        <lane id=":59_4_0" index="0" disallow="pedestrian tram rail_urban rail rail_electric rail_fast ship" speed="36.11" length="18.69" width="3.43" shape="-65.34,863.07 -61.47,861.75 -55.56,860.26 -49.64,858.79 -47.33,858.11"/>
        <lane id=":59_4_1" index="1" disallow="pedestrian tram rail_urban rail rail_electric rail_fast ship" speed="36.11" length="18.65" width="3.43" shape="-64.05,866.33 -60.27,864.61 -53.74,861.06 -49.84,859.12 -47.33,858.11"/>
    </edge>
    <edge id=":60_0" function="internal">
        <lane id=":60_0_0" index="0" disallow="pedestrian tram rail_urban rail rail_electric rail_fast ship" speed="36.11" length="42.88" width="3.50" shape="-113.62,887.88 -133.77,895.20 -153.92,902.53"/>
    </edge>
    <edge id=":60_1" function="internal">
        <lane id=":60_1_0" index="0" disallow="pedestrian tram rail_urban rail rail_electric rail_fast ship" speed="36.11" length="42.89" width="3.50" shape="-155.14,899.25 -134.97,891.92 -114.83,884.60"/>
    </edge>
    <edge id=":60_2" function="internal">
        <lane id=":60_2_0" index="0" disallow="pedestrian tram rail_urban rail rail_electric rail_fast ship" speed="13.74" length="22.63" width="3.50" shape="-155.14,899.25 -153.14,898.66 -150.57,898.29 -147.98,898.28 -144.88,898.62 -141.34,899.41 -137.38,900.68 -133.26,902.38"/>
    </edge>
    <edge id=":61_0" function="internal">
        <lane id=":61_0_0" index="0" disallow="pedestrian tram rail_urban rail rail_electric rail_fast ship" speed="36.11" length="20.70" width="3.50" shape="-62.96,869.66 -72.55,873.52 -82.16,877.39"/>
    </edge>
    <edge id=":61_1" function="internal">
        <lane id=":61_1_0" index="0" disallow="pedestrian tram rail_urban rail rail_electric rail_fast ship" speed="7.42" length="16.71" width="3.50" shape="-62.96,869.66 -64.95,870.34 -67.03,870.75 -68.43,870.75 -69.80,870.43 -70.43,870.12 -70.99,869.69 -71.47,869.18 -72.17,867.96 -72.59,866.61 -72.84,864.52 -72.78,861.87"/>
    </edge>
    <edge id=":61_2" function="internal">
        <lane id=":61_2_0" index="0" disallow="pedestrian tram rail_urban rail rail_electric rail_fast ship" speed="10.55" length="15.11" width="3.50" shape="-84.79,870.91 -81.32,869.32 -78.50,867.67 -76.34,866.02 -74.82,864.47 -73.86,863.15 -73.17,861.81"/>
    </edge>
    <edge id=":61_3" function="internal">
        <lane id=":61_3_0" index="0" disallow="pedestrian tram rail_urban rail rail_electric rail_fast ship" speed="36.11" length="20.74" width="3.50" shape="-84.79,870.91 -75.17,867.03 -65.55,863.16"/>
        <lane id=":61_3_1" index="1" disallow="pedestrian tram rail_urban rail rail_electric rail_fast ship" speed="36.11" length="20.73" width="3.50" shape="-83.47,874.15 -73.86,870.28 -64.24,866.41"/>
    </edge>
    <edge id=":62_0" function="internal">
        <lane id=":62_0_0" index="0" disallow="pedestrian tram rail_urban rail rail_electric rail_fast ship" speed="36.11" length="3.52" width="3.50" shape="-66.43,851.14 -63.78,853.46"/>
    </edge>
    <edge id=":62_1" function="internal">
        <lane id=":62_1_0" index="0" disallow="pedestrian tram rail_urban rail rail_electric rail_fast ship" speed="36.11" length="2.59" width="3.50" shape="-72.50,859.35 -72.47,859.16 -72.44,858.99 -72.42,858.83 -72.40,858.69 -72.37,858.56 -72.35,858.44 -72.34,858.33 -72.32,858.22 -72.31,858.12 -72.30,858.02 -72.29,857.91 -72.28,857.81 -72.27,857.70 -72.27,857.58 -72.26,857.45 -72.26,857.30 -72.26,857.14 -72.26,856.97 -72.27,856.78"/>
    </edge>
    <edge id=":64_0" function="internal">
        <lane id=":64_0_0" index="0" disallow="pedestrian tram rail_urban rail rail_electric rail_fast ship" speed="36.11" length="34.58" width="3.50" shape="-26.24,870.48 -39.68,859.60 -53.12,848.73"/>
    </edge>
    <edge id=":64_1" function="internal">
        <lane id=":64_1_0" index="0" disallow="pedestrian tram rail_urban rail rail_electric rail_fast ship" speed="12.39" length="10.40" width="3.50" shape="-24.04,867.75 -24.61,867.27 -25.11,866.81 -25.53,866.38 -25.89,865.96 -26.19,865.56 -26.44,865.16 -26.64,864.77 -26.80,864.37 -26.93,863.97 -27.04,863.55 -27.12,863.12 -27.20,862.67 -27.27,862.19 -27.33,861.68 -27.41,861.13 -27.50,860.55 -27.61,859.92 -27.75,859.23 -27.92,858.50"/>
    </edge>
    <edge id=":64_2" function="internal">
        <lane id=":64_2_0" index="0" disallow="pedestrian tram rail_urban rail rail_electric rail_fast ship" speed="7.38" length="16.23" width="3.50" shape="-27.01,853.98 -30.04,855.65 -29.99,856.61 -29.56,857.49 -29.00,858.30 -28.38,859.06 -27.71,859.79 -27.02,860.49 -25.59,861.84 -23.36,863.78 -21.84,865.03"/>
    </edge>
    <edge id=":64_3" function="internal">
        <lane id=":64_3_0" index="0" disallow="pedestrian tram rail_urban rail rail_electric rail_fast ship" speed="36.11" length="20.34" width="3.50" shape="-27.01,853.98 -34.32,856.97 -45.98,861.31"/>
    </edge>
    <edge id=":64_4" function="internal">
        <lane id=":64_4_0" index="0" disallow="pedestrian tram rail_urban rail rail_electric rail_fast ship" speed="36.11" length="34.56" width="3.50" shape="-48.71,843.29 -35.28,854.16 -21.84,865.03"/>
    </edge>
    <edge id=":64_5" function="internal">
        <lane id=":64_5_0" index="0" disallow="pedestrian tram rail_urban rail rail_electric rail_fast ship" speed="7.96" length="19.84" width="3.50" shape="-50.92,846.01 -47.73,848.76 -45.71,850.75 -44.74,851.86 -43.83,853.08 -43.06,854.53 -42.67,856.24 -42.89,857.90 -43.56,859.41 -45.98,861.31"/>
    </edge>
    <edge id=":64_6" function="internal">
        <lane id=":64_6_0" index="0" disallow="pedestrian tram rail_urban rail rail_electric rail_fast ship" speed="6.64" length="13.02" width="3.50" shape="-47.15,858.03 -45.79,857.08 -45.92,856.08 -46.43,855.18 -47.05,854.35 -47.74,853.58 -48.46,852.83 -49.21,852.11 -50.74,850.73 -53.12,848.73"/>
    </edge>
    <edge id=":64_7" function="internal">
        <lane id=":64_7_0" index="0" disallow="pedestrian tram rail_urban rail rail_electric rail_fast ship" speed="36.11" length="15.52" width="3.43" shape="-47.15,858.03 -32.63,852.54"/>
    </edge>
    <edge id=":64_8" function="internal">
        <lane id=":64_8_0" index="0" disallow="pedestrian tram rail_urban rail rail_electric rail_fast ship" speed="13.95" length="27.58" width="3.50" shape="-47.15,858.03 -44.44,857.19 -42.31,856.85 -39.62,856.81 -36.96,857.15 -34.35,857.82 -31.34,858.98 -28.00,860.72 -24.84,862.76 -21.84,865.03"/>
    </edge>
    <edge id=":66_0" function="internal">
        <lane id=":66_0_0" index="0" disallow="pedestrian tram rail_urban rail rail_electric rail_fast ship" speed="36.11" length="8.04" width="3.50" shape="-2.99,887.75 -8.80,883.79 -9.62,883.21"/>
        <lane id=":66_0_1" index="1" disallow="pedestrian tram rail_urban rail rail_electric rail_fast ship" speed="36.11" length="8.04" width="3.50" shape="-2.29,886.88 -8.11,881.33"/>
    </edge>

    <edge id="77931" from="60" to="35" priority="3" type="highway.residential" spreadType="center" length="55.33" shape="-130.40,898.79 -205.77,921.83">
        <lane id="77931_0" index="0" disallow="pedestrian tram rail_urban rail rail_electric rail_fast ship" speed="36.11" length="55.33" width="3.50" customShape="1" shape="-153.92,902.53 -179.85,912.18 -205.77,921.83"/>
    </edge>
    <edge id="77932" from="49" to="60" priority="3" type="highway.residential" spreadType="center" length="55.37" shape="-207.01,918.56 -131.43,895.44">
        <lane id="77932_0" index="0" disallow="pedestrian tram rail_urban rail rail_electric rail_fast ship" speed="36.11" length="55.37" width="3.50" customShape="1" shape="-207.01,918.56 -181.07,908.90 -155.12,899.24"/>
    </edge>
    <edge id="77934" from="14" to="60" priority="3" type="highway.residential" spreadType="center" length="7.82" shape="-104.91,884.65 -130.19,898.70">
        <lane id="77934_0" index="0" disallow="pedestrian tram rail_urban rail rail_electric rail_fast ship" speed="36.11" length="7.82" width="3.50" customShape="1" shape="-106.30,885.17 -109.27,886.27 -113.63,887.89"/>
    </edge>
    <edge id="77935" from="60" to="54" priority="3" type="highway.residential" spreadType="center" length="5.28" shape="-131.89,895.65 -106.13,881.37">
        <lane id="77935_0" index="0" disallow="pedestrian tram rail_urban rail rail_electric rail_fast ship" speed="36.11" length="5.28" width="3.50" customShape="1" shape="-114.83,884.60 -110.49,882.99 -109.88,882.76"/>
    </edge>
    <edge id="77951" from="60" to="58" priority="3" type="highway.residential" spreadType="center" length="64.94">
        <lane id="77951_0" index="0" disallow="pedestrian tram rail_urban rail rail_electric rail_fast ship" speed="36.11" length="64.94" width="3.50" customShape="1" shape="-132.55,901.31 -105.84,918.89 -78.30,937.01"/>
    </edge>
    <edge id="78422" from="58" to="57" priority="3" type="highway.residential" spreadType="center" length="42.57" shape="-81.41,938.59 -10.02,911.25">
        <lane id="78422_0" index="0" disallow="pedestrian tram rail_urban rail rail_electric rail_fast ship" speed="36.11" length="42.57" width="3.50" customShape="1" shape="-58.84,933.99 -39.19,925.84 -19.52,917.68"/>
    </edge>
    <edge id="78423" from="57" to="58" priority="3" type="highway.residential" spreadType="center" length="42.57" shape="-8.76,914.52 -80.16,941.86">
        <lane id="78423_0" index="0" disallow="pedestrian tram rail_urban rail rail_electric rail_fast ship" speed="36.11" length="42.57" width="3.50" customShape="1" shape="-18.18,920.91 -37.84,929.07 -57.50,937.22"/>
    </edge>
    <edge id="78425" from="10" to="58" priority="3" type="highway.residential" spreadType="center" length="45.60" shape="-139.15,967.92 -81.50,938.63">
        <lane id="78425_0" index="0" disallow="pedestrian tram rail_urban rail rail_electric rail_fast ship" speed="36.11" length="45.60" width="3.50" customShape="1" shape="-139.15,967.92 -118.15,959.01 -97.17,950.12"/>
    </edge>
    <edge id="78426" from="58" to="8" priority="3" type="highway.residential" spreadType="center" length="45.58" shape="-79.91,941.75 -137.77,971.13">
        <lane id="78426_0" index="0" disallow="pedestrian tram rail_urban rail rail_electric rail_fast ship" speed="36.11" length="45.58" width="3.50" customShape="1" shape="-95.80,953.34 -116.78,962.23 -137.77,971.13"/>
    </edge>
    <edge id="78547" from="45" to="46" priority="3" type="highway.residential" spreadType="center" length="17.35">
        <lane id="78547_0" index="0" disallow="pedestrian tram rail_urban rail rail_electric rail_fast ship" speed="36.11" length="17.35" width="3.50" customShape="1" shape="9.02,892.25 15.18,897.25 22.49,903.19"/>
    </edge>
    <edge id="78548" from="47" to="66" priority="3" type="highway.residential" spreadType="center" length="29.51">
        <lane id="78548_0" index="0" disallow="pedestrian tram rail_urban rail rail_electric rail_fast ship" speed="36.11" length="29.51" width="3.50" customShape="1" shape="20.28,905.90 12.98,899.97 -2.63,887.30"/>
    </edge>
    <edge id="78795" from="59" to="62" priority="3" type="highway.residential" spreadType="center" length="6.31">
        <lane id="78795_0" index="0" disallow="pedestrian tram rail_urban rail rail_electric rail_fast ship" speed="36.11" length="6.31" width="3.50" customShape="1" shape="-61.86,855.11 -61.76,855.19 -66.43,851.14"/>
    </edge>
    <edge id="78842" from="61" to="62" priority="3" type="highway.residential" spreadType="center" length="0.25">
        <lane id="78842_0" index="0" disallow="pedestrian tram rail_urban rail rail_electric rail_fast ship" speed="36.11" length="0.25" width="3.50" customShape="1" shape="-72.53,859.60 -72.52,859.48 -72.50,859.35"/>
    </edge>
    <edge id="78846" from="50" to="64" priority="3" type="highway.residential" spreadType="center" length="2.71" shape="-24.52,852.91 -38.34,859.16">
        <lane id="78846_0" index="0" disallow="pedestrian tram rail_urban rail rail_electric rail_fast ship" speed="36.11" length="2.71" width="3.44" customShape="1" shape="-24.52,852.91 -27.01,853.98"/>
    </edge>
    <edge id="78866" from="64" to="59" priority="3" type="highway.residential" spreadType="center" length="0.20" shape="-38.03,859.06 -52.94,865.13">
        <lane id="78866_0" index="0" disallow="pedestrian tram rail_urban rail rail_electric rail_fast ship" speed="36.11" length="0.20" width="3.50" customShape="1" shape="-45.98,861.31 -46.17,861.37"/>
    </edge>
    <edge id="78867" from="59" to="64" priority="3" type="highway.residential" spreadType="center" length="0.20" shape="-54.24,861.93 -39.34,855.87">
        <lane id="78867_0" index="0" disallow="pedestrian tram rail_urban rail rail_electric rail_fast ship" speed="36.11" length="0.20" width="3.43" customShape="1" shape="-47.33,858.11 -47.15,858.03"/>
    </edge>
    <edge id="78873" from="51" to="64" priority="3" type="highway.residential" spreadType="center" length="13.03" shape="-59.93,836.45 -36.39,855.05">
        <lane id="78873_0" index="0" disallow="pedestrian tram rail_urban rail rail_electric rail_fast ship" speed="36.11" length="13.03" width="3.50" customShape="1" shape="-58.83,835.09 -53.77,839.19 -48.71,843.30"/>
        <lane id="78873_1" index="1" disallow="pedestrian tram rail_urban rail rail_electric rail_fast ship" speed="36.11" length="13.03" width="3.50" customShape="1" shape="-61.04,837.81 -55.98,841.91 -50.91,846.01"/>
    </edge>
    <edge id="78875" from="64" to="34" priority="3" type="highway.residential" spreadType="center" length="13.05" shape="-39.87,858.96 -63.26,840.51">
        <lane id="78875_0" index="0" disallow="pedestrian tram rail_urban rail rail_electric rail_fast ship" speed="36.11" length="13.05" width="3.50" customShape="1" shape="-53.12,848.73 -58.18,844.63 -63.26,840.51"/>
    </edge>
    <edge id="78906" from="59" to="61" priority="3" type="highway.residential" spreadType="center" length="0.25" shape="-53.14,865.20 -73.03,870.51">
        <lane id="78906_0" index="0" disallow="pedestrian tram rail_urban rail rail_electric rail_fast ship" speed="36.11" length="0.25" width="3.50" customShape="1" shape="-62.73,869.57 -62.84,869.61 -62.96,869.66"/>
    </edge>
    <edge id="78908" from="61" to="59" priority="3" type="highway.residential" spreadType="center" length="0.23" shape="-74.80,865.61 -54.50,860.13">
        <lane id="78908_0" index="0" disallow="pedestrian tram rail_urban rail rail_electric rail_fast ship" speed="36.11" length="0.26" width="3.50" customShape="1" shape="-65.55,863.16 -65.43,863.11 -65.31,863.07"/>
        <lane id="78908_1" index="1" disallow="pedestrian tram rail_urban rail rail_electric rail_fast ship" speed="36.11" length="0.23" width="3.50" customShape="1" shape="-64.25,866.41 -64.04,866.32"/>
    </edge>
    <edge id="79252" from="54" to="61" priority="3" type="highway.residential" spreadType="center" length="19.83" shape="-106.13,881.37 -74.59,865.53">
        <lane id="79252_0" index="0" disallow="pedestrian tram rail_urban rail rail_electric rail_fast ship" speed="36.11" length="19.83" width="3.50" customShape="1" shape="-102.49,879.82 -101.91,879.57 -96.00,876.50 -89.22,872.90 -85.02,871.00 -84.91,870.95 -84.79,870.90"/>
        <lane id="79252_1" index="1" disallow="pedestrian tram rail_urban rail rail_electric rail_fast ship" speed="36.11" length="19.84" width="3.50" customShape="1" shape="-102.39,880.08 -102.01,879.95 -88.64,876.02 -83.67,874.23 -83.47,874.14"/>
    </edge>
    <edge id="79296" from="12" to="59" priority="3" type="highway.residential" spreadType="center" length="1.98">
        <lane id="79296_0" index="0" disallow="pedestrian tram rail_urban rail rail_electric rail_fast ship" speed="36.11" length="1.98" width="3.50" customShape="1" shape="-33.46,879.78 -35.04,878.58"/>
        <lane id="79296_1" index="1" disallow="pedestrian tram rail_urban rail rail_electric rail_fast ship" speed="36.11" length="2.02" width="3.50" customShape="1" shape="-31.33,877.00 -32.94,875.78"/>
    </edge>
    <edge id="79378" from="64" to="44" priority="3" type="highway.residential" spreadType="center" length="10.15" shape="-38.01,855.99 -13.84,871.49">
        <lane id="79378_0" index="0" disallow="pedestrian tram rail_urban rail rail_electric rail_fast ship" speed="36.11" length="10.15" width="3.50" customShape="1" shape="-21.84,865.03 -17.84,868.26 -13.94,871.41"/>
    </edge>
    <edge id="79380" from="66" to="64" priority="3" type="highway.residential" spreadType="center" length="20.92" shape="-6.29,885.48 -41.14,860.18">
        <lane id="79380_0" index="0" disallow="pedestrian tram rail_urban rail rail_electric rail_fast ship" speed="36.11" length="20.94" width="3.50" customShape="1" shape="-9.95,883.63 -22.23,873.71 -26.24,870.48"/>
        <lane id="79380_1" index="1" disallow="pedestrian tram rail_urban rail rail_electric rail_fast ship" speed="36.11" length="20.92" width="3.50" customShape="1" shape="-7.76,880.89 -20.04,870.98 -24.04,867.75"/>
    </edge>
    <edge id="79696" from="38" to="57" priority="3" type="highway.residential" spreadType="center" length="6.78">
        <lane id="79696_0" index="0" disallow="pedestrian tram rail_urban rail rail_electric rail_fast ship" speed="36.11" length="6.78" width="3.50" customShape="1" shape="12.59,916.60 13.68,917.44 9.39,914.16"/>
    </edge>
    <edge id="82414" from="62" to="63" priority="3" type="highway.residential" spreadType="center" length="22.79">
        <lane id="82414_0" index="0" disallow="pedestrian tram rail_urban rail rail_electric rail_fast ship" speed="36.11" length="22.79" width="3.50" customShape="1" shape="-63.78,853.46 -71.46,846.87 -81.07,838.62"/>
    </edge>
    <edge id="82498" from="44" to="45" priority="3" type="highway.residential" spreadType="center" length="27.81">
        <lane id="82498_0" index="0" disallow="pedestrian tram rail_urban rail rail_electric rail_fast ship" speed="36.11" length="27.81" width="3.50" customShape="1" shape="-13.74,871.57 -9.06,875.60 3.11,887.20 6.76,890.35"/>
    </edge>