<routes>
	<vehicle depart="0.1" departLane="0" departPos="26.192394054199454" departSpeed="0.79075009" id="33" type="passenger">
		<route edges=":58_1 78422"/>
	</vehicle>
	<vehicle depart="0.1" departLane="0" departPos="23.02641616340283" departSpeed="2.7804012" id="36" type="passenger">
		<route edges="77951 78422"/>
	</vehicle>
	<vehicle depart="0.1" departLane="0" departPos="19.183716250250406" departSpeed="0.0" id="312" type="passenger">
		<route edges=":58_1 78422"/>
	</vehicle>
	<vehicle depart="0.1" departLane="0" departPos="40.81018202928661" departSpeed="10.412138" id="330" type="passenger">
		<route edges="78422 83589 79296"/>
	</vehicle>
	<vehicle depart="0.1" departLane="0" departPos="30.254893175980705" departSpeed="8.6591592" id="332" type="passenger">
		<route edges="78422 83589"/>
	</vehicle>
	<vehicle depart="0.1" departLane="0" departPos="9.803259822188423" departSpeed="10.04432" id="335" type="passenger">
		<route edges="78422 83589"/>
	</vehicle>
	<vehicle depart="0.1" departLane="0" departPos="39.914882305709554" departSpeed="10.425212" id="339" type="passenger">
		<route edges=":58_3 78422 83589"/>
	</vehicle>
	<vehicle depart="0.1" departLane="0" departPos="28.117270423991997" departSpeed="5.7637901" id="347" type="truck">
		<route edges="78425 78422"/>
	</vehicle>
</routes>
