<routes>
	<vehicle depart="0.1" departLane="0" departPos="1.0" departSpeed="0.68963224" id="315" type="bicycle">
		<route edges="52550 54894"/>
	</vehicle>
	<vehicle depart="0.1" departLane="0" departPos="23.300255003461732" departSpeed="0.50380276" id="35" type="passenger">
		<route edges=":28_3 54405"/>
	</vehicle>
	<vehicle depart="0.1" departLane="1" departPos="15.678375747768404" departSpeed="4.1067141" id="37" type="passenger">
		<route edges="52154 52162 54245"/>
	</vehicle>
	<vehicle depart="0.1" departLane="0" departPos="18.49272630732115" departSpeed="0.1134819" id="318" type="passenger">
		<route edges="52542 52550 54894"/>
	</vehicle>
	<vehicle depart="0.1" departLane="1" departPos="9.466794064953959" departSpeed="1.3469536" id="320" type="passenger">
		<route edges="52550 54405"/>
	</vehicle>
	<vehicle depart="0.1" departLane="0" departPos="7.72116879943542" departSpeed="0.34455906" id="323" type="passenger">
		<route edges="52542 52550"/>
	</vehicle>
	<vehicle depart="0.1" departLane="1" departPos="9.823517479917403" departSpeed="0.007813175" id="324" type="passenger">
		<route edges="52542 52550"/>
	</vehicle>
	<vehicle depart="0.1" departLane="0" departPos="22.2400430669373" departSpeed="0.25667376" id="325" type="passenger">
		<route edges="54534 52542"/>
	</vehicle>
	<vehicle depart="0.1" departLane="0" departPos="16.352489418025392" departSpeed="10.063292" id="340" type="passenger">
		<route edges=":28_5 54894 52152 54918"/>
	</vehicle>
	<vehicle depart="0.1" departLane="0" departPos="9.914194006923694" departSpeed="0.0" id="30" type="truck">
		<route edges="52098 54245"/>
	</vehicle>
</routes>
