<routes>
	<vehicle depart="0.1" departLane="0" departPos="386.16777642777765" departSpeed="15.6521" id="31" type="passenger">
		<route edges="233"/>
	</vehicle>
	<vehicle depart="0.1" departLane="0" departPos="339.13337418077055" departSpeed="15.9962" id="32" type="passenger">
		<route edges="233 233"/>
	</vehicle>
	<vehicle depart="0.1" departLane="0" departPos="363.1255503559195" departSpeed="15.6149" id="33" type="passenger">
		<route edges="233 233"/>
	</vehicle>
	<vehicle depart="0.1" departLane="1" departPos="408.54394941267134" departSpeed="29.1209" id="34" type="passenger">
		<route edges="233"/>
	</vehicle>
	<vehicle depart="0.1" departLane="1" departPos="377.7885238794751" departSpeed="27.823" id="35" type="passenger">
		<route edges="233"/>
	</vehicle>
	<vehicle depart="0.1" departLane="0" departPos="0" departSpeed="6.6088" id="36" type="passenger">
		<route edges="233"/>
	</vehicle>
	<vehicle depart="0.1" departLane="1" departPos="0" departSpeed="15.6099" id="37" type="passenger">
		<route edges="233 233"/>
	</vehicle>
	<vehicle depart="0.1" departLane="1" departPos="0" departSpeed="16.4165" id="39" type="passenger">
		<route edges="233"/>
	</vehicle>
	<vehicle depart="0.1" departLane="0" departPos="0" departSpeed="8.8741" id="310" type="passenger">
		<route edges="233"/>
	</vehicle>
	<vehicle depart="0.1" departLane="1" departPos="0" departSpeed="11.6104" id="311" type="passenger">
		<route edges="233"/>
	</vehicle>
	<vehicle depart="0.1" departLane="0" departPos="0" departSpeed="11.1744" id="312" type="passenger">
		<route edges="233"/>
	</vehicle>
	<vehicle depart="0.1" departLane="1" departPos="0" departSpeed="10.7764" id="313" type="passenger">
		<route edges="233"/>
	</vehicle>
	<vehicle depart="0.1" departLane="1" departPos="0" departSpeed="10.2719" id="314" type="passenger">
		<route edges="233 233"/>
	</vehicle>
	<vehicle depart="0.1" departLane="1" departPos="0" departSpeed="8.1305" id="315" type="passenger">
		<route edges="233"/>
	</vehicle>
	<vehicle depart="0.1" departLane="1" departPos="0" departSpeed="5.3912" id="316" type="passenger">
		<route edges="233 233"/>
	</vehicle>
</routes>
