<!-- generated on 2020-12-18 15:57:04.463701 by ipykernel_launcher.py v1_2_0+5214-53edc58fcd
-->
<nodes>
	<node id="1" type="from" x="-2.8088833333333336" y="8.131416666666667"/>
	<node id="2" type="to" x="-5.358566666666666" y="-36.85408333333333"/>
	<node id="3" type="to" x="-5.936133333333334" y="-47.8692"/>
	<node id="4" type="to" x="3.54985" y="-58.92245"/>
	<node id="5" type="to" x="12.99995" y="-60.56725"/>
	<node id="6" type="to" x="50.238625" y="-58.137649999999994"/>
	<node id="7" type="to" x="-8.35115" y="-64.17654999999999"/>
	<node id="8" type="to" x="-8.777450000000002" y="-72.178725"/>
	<node id="9" type="to" x="-9.84595" y="-97.05132499999999"/>
	<node id="10" type="to" x="-9.010349999999999" y="-116.7658"/>
	<node id="11" type="to" x="-9.048475000000002" y="-124.10409999999999"/>
	<node id="12" type="to" x="-18.476399999999998" y="-49.26275"/>
	<node id="13" type="to" x="-31.16205" y="-51.418175000000005"/>
	<node id="14" type="to" x="-59.060375" y="-56.79515"/>
	<node id="15" type="to" x="-72.006625" y="-61.798525"/>
	<node id="16" type="from" x="-2.656275" y="-124.32955"/>
	<node id="17" type="to" x="-2.30475" y="-117.021475"/>
	<node id="18" type="to" x="-2.7140500000000003" y="-97.22713333333333"/>
	<node id="19" type="to" x="-1.2707166666666667" y="-72.61155000000001"/>
	<node id="20" type="to" x="-0.8369666666666666" y="-64.1064"/>
	<node id="21" type="to" x="-0.015516666666666476" y="-47.96965"/>
	<node id="22" type="to" x="-10.73075" y="-52.6255"/>
	<node id="23" type="to" x="2.0096999999999996" y="-37.074025000000006"/>
	<node id="24" type="to" x="4.5768249999999995" y="7.697175"/>
	<node id="25" type="from" x="-68.44731666666667" y="-69.46063333333333"/>
	<node id="26" type="to" x="-56.062549999999995" y="-64.64685"/>
	<node id="27" type="to" x="-30.292899999999996" y="-61.491375"/>
	<node id="28" type="to" x="-18.152925" y="-60.82875"/>
	<node id="29" type="to" x="-11.111683333333332" y="-59.069849999999995"/>
	<node id="30" type="from" x="49.72305" y="-50.28073333333333"/>
	<node id="31" type="to" x="12.484433333333333" y="-52.71033333333333"/>
	<node id="32" type="to" x="3.88035" y="-52.67165"/>
</nodes>
