<?xml version="1.0" encoding="UTF-8"?>

<!-- generated on Fri Dec 18 15:57:04 2020 by Eclipse SUMO netconvert Version 1.8.0
<configuration xmlns:xsi="http://www.w3.org/2001/XMLSchema-instance" xsi:noNamespaceSchemaLocation="http://sumo.dlr.de/xsd/netconvertConfiguration.xsd">

    <input>
        <node-files value="./converted_scenarios/NGSIM/Peachtree/USA_Peach-4_7_I-1-1/nodes.net.xml"/>
        <edge-files value="./converted_scenarios/NGSIM/Peachtree/USA_Peach-4_7_I-1-1/edges.net.xml"/>
        <connection-files value="./converted_scenarios/NGSIM/Peachtree/USA_Peach-4_7_I-1-1/_connections.net.xml"/>
        <tllogic-files value="./converted_scenarios/NGSIM/Peachtree/USA_Peach-4_7_I-1-1/_tll.net.xml"/>
    </input>

    <output>
        <output-file value="./converted_scenarios/NGSIM/Peachtree/USA_Peach-4_7_I-1-1/USA_Peach-4_7_I-1-1.net.xml"/>
    </output>

    <processing>
        <plain.extend-edge-shape value="true"/>
        <geometry.remove.keep-edges.explicit value="true"/>
        <geometry.avoid-overlap value="true"/>
        <offset.disable-normalization value="true"/>
    </processing>

    <junctions>
        <no-turnarounds value="true"/>
        <junctions.internal-link-detail value="20"/>
    </junctions>

    <report>
        <aggregate-warnings value="5"/>
    </report>

    <random_number>
        <seed value="1234"/>
    </random_number>

</configuration>
-->

<net version="1.6" junctionCornerDetail="5" junctionLinkDetail="20" limitTurnSpeed="5.50" xmlns:xsi="http://www.w3.org/2001/XMLSchema-instance" xsi:noNamespaceSchemaLocation="http://sumo.dlr.de/xsd/net_file.xsd">

    <location netOffset="0.00,0.00" convBoundary="-72.01,-124.33,50.24,8.13" origBoundary="-72.69,-124.38,50.35,8.30" projParameter="!"/>

    <edge id=":10_0" function="internal">
        <lane id=":10_0_0" index="0" disallow="bus truck rail_fast" speed="36.11" length="3.17" width="2.37" shape="-10.61,-115.17 -10.57,-118.32"/>
        <lane id=":10_0_1" index="1" disallow="rail_fast" speed="36.11" length="3.17" width="3.54" shape="-7.49,-115.20 -7.47,-118.40"/>
    </edge>
    <edge id=":12_0" function="internal">
        <lane id=":12_0_0" index="0" disallow="bus truck rail_fast" speed="36.11" length="10.39" width="3.10" shape="-11.09,-48.11 -11.80,-48.34 -12.45,-48.53 -13.05,-48.70 -13.59,-48.84 -14.09,-48.96 -14.56,-49.05 -15.00,-49.13 -15.43,-49.19 -15.85,-49.23 -16.27,-49.26 -16.69,-49.28 -17.13,-49.30 -17.60,-49.30 -18.10,-49.31 -18.63,-49.32 -19.22,-49.33 -19.85,-49.34 -20.56,-49.36 -21.33,-49.39"/>
    </edge>
    <edge id=":12_1" function="internal">
        <lane id=":12_1_0" index="0" disallow="rail_fast" speed="36.11" length="10.86" width="3.10" shape="-10.40,-49.37 -21.33,-49.39"/>
        <lane id=":12_1_1" index="1" disallow="rail_fast" speed="36.11" length="10.86" width="3.26" shape="-10.44,-52.63 -21.23,-52.69"/>
    </edge>
    <edge id=":13_0" function="internal">
        <lane id=":13_0_0" index="0" disallow="rail_fast" speed="36.11" length="3.01" width="3.10" shape="-29.72,-49.76 -32.75,-49.92"/>
        <lane id=":13_0_1" index="1" disallow="bus rail_fast" speed="36.11" length="3.01" width="2.98" shape="-29.52,-52.95 -32.51,-53.11"/>
    </edge>
    <edge id=":14_0" function="internal">
        <lane id=":14_0_0" index="0" disallow="rail_fast" speed="36.11" length="2.96" width="3.19" shape="-58.18,-54.75 -61.01,-55.76"/>
        <lane id=":14_0_1" index="1" disallow="bus rail_fast" speed="36.11" length="2.96" width="3.30" shape="-57.07,-57.90 -59.81,-58.88"/>
    </edge>
    <edge id=":17_0" function="internal">
        <lane id=":17_0_0" index="0" disallow="rail_fast" speed="36.11" length="7.89" width="2.91" shape="-0.93,-120.95 -0.54,-113.01"/>
        <lane id=":17_0_1" index="1" disallow="rail_fast" speed="36.11" length="7.89" width="2.91" shape="-4.05,-120.82 -3.60,-112.98"/>
        <lane id=":17_0_2" index="2" disallow="rail_fast" speed="36.11" length="7.89" width="2.91" shape="-4.05,-120.82 -4.02,-120.23 -4.00,-119.70 -3.98,-119.22 -3.96,-118.79 -3.95,-118.39 -3.94,-118.03 -3.93,-117.69 -3.93,-117.36 -3.93,-117.05 -3.94,-116.74 -3.95,-116.42 -3.96,-116.10 -3.98,-115.76 -4.00,-115.39 -4.03,-115.00 -4.06,-114.56 -4.10,-114.09 -4.14,-113.56 -4.18,-112.97"/>
    </edge>
    <edge id=":18_0" function="internal">
        <lane id=":18_0_0" index="0" disallow="rail_fast" speed="36.11" length="3.18" width="2.68" shape="0.11,-99.22 0.26,-96.12"/>
        <lane id=":18_0_1" index="1" disallow="rail_fast" speed="36.11" length="3.18" width="2.73" shape="-2.81,-99.18 -2.64,-96.01"/>
        <lane id=":18_0_2" index="2" disallow="rail_fast" speed="36.11" length="3.18" width="2.91" shape="-5.43,-99.15 -5.45,-98.90 -5.48,-98.68 -5.50,-98.49 -5.52,-98.31 -5.53,-98.14 -5.55,-97.99 -5.56,-97.85 -5.57,-97.71 -5.58,-97.58 -5.59,-97.46 -5.60,-97.32 -5.60,-97.19 -5.60,-97.05 -5.60,-96.90 -5.59,-96.73 -5.58,-96.55 -5.58,-96.35 -5.56,-96.13 -5.55,-95.89"/>
    </edge>
    <edge id=":19_0" function="internal">
        <lane id=":19_0_0" index="0" disallow="bus truck rail_fast" speed="8.36" length="12.54" width="2.68" shape="1.33,-75.46 1.40,-74.27 1.47,-73.14 1.55,-72.07 1.64,-71.07 1.74,-70.12 1.84,-69.24 1.94,-68.42 2.06,-67.67 2.18,-66.97 2.30,-66.34 2.44,-65.77 2.58,-65.26 2.72,-64.81 2.87,-64.43 3.03,-64.11 3.20,-63.85 3.37,-63.65 3.55,-63.52 3.74,-63.44"/>
    </edge>
    <edge id=":19_1" function="internal">
        <lane id=":19_1_0" index="0" disallow="rail_fast" speed="36.11" length="12.94" width="2.67" shape="1.33,-75.46 2.03,-62.47"/>
        <lane id=":19_1_1" index="1" disallow="rail_fast" speed="36.11" length="12.94" width="2.73" shape="-1.39,-75.31 -0.69,-62.39"/>
        <lane id=":19_1_2" index="2" disallow="rail_fast" speed="36.11" length="12.94" width="2.95" shape="-4.23,-75.14 -3.58,-62.29"/>
    </edge>
    <edge id=":2_0" function="internal">
        <lane id=":2_0_0" index="0" disallow="bus truck rail_fast" speed="12.44" length="25.62" width="2.69" shape="-7.50,-22.87 -7.65,-25.38 -7.80,-27.77 -7.96,-30.02 -8.12,-32.14 -8.28,-34.12 -8.45,-35.98 -8.62,-37.70 -8.79,-39.29 -8.97,-40.75 -9.15,-42.07 -9.33,-43.27 -9.51,-44.33 -9.70,-45.25 -9.89,-46.05 -10.09,-46.71 -10.29,-47.25 -10.49,-47.64 -10.69,-47.91 -10.90,-48.05"/>
    </edge>
    <edge id=":2_1" function="internal">
        <lane id=":2_1_0" index="0" disallow="rail_fast" speed="36.11" length="26.24" width="2.98" shape="-7.50,-22.87 -9.02,-49.07"/>
        <lane id=":2_1_1" index="1" disallow="rail_fast" speed="36.11" length="26.24" width="2.86" shape="-4.58,-22.98 -6.02,-49.18"/>
        <lane id=":2_1_2" index="2" disallow="rail_fast" speed="36.11" length="26.24" width="3.06" shape="-1.59,-23.10 -2.97,-49.28"/>
    </edge>
    <edge id=":20_0" function="internal">
        <lane id=":20_0_0" index="0" disallow="rail_fast" speed="36.11" length="5.88" width="2.64" shape="2.04,-62.27 2.36,-56.37"/>
        <lane id=":20_0_1" index="1" disallow="rail_fast" speed="36.11" length="5.88" width="2.78" shape="-0.68,-62.19 -0.38,-56.32"/>
        <lane id=":20_0_2" index="2" disallow="rail_fast" speed="36.11" length="5.88" width="2.99" shape="-3.57,-62.09 -3.30,-56.26"/>
    </edge>
    <edge id=":20_3" function="internal">
        <lane id=":20_3_0" index="0" disallow="bus truck rail_fast" speed="7.81" length="10.60" width="2.76" shape="-3.57,-62.09 -3.55,-61.33 -3.55,-60.60 -3.58,-59.90 -3.64,-59.24 -3.72,-58.60 -3.83,-58.00 -3.97,-57.44 -4.13,-56.90 -4.32,-56.40 -4.54,-55.93 -4.78,-55.49 -5.05,-55.09 -5.35,-54.71 -5.67,-54.37 -6.02,-54.07 -6.39,-53.79 -6.79,-53.55 -7.22,-53.34 -7.68,-53.16"/>
    </edge>
    <edge id=":21_0" function="internal">
        <lane id=":21_0_0" index="0" disallow="rail_fast" speed="36.11" length="6.89" width="2.61" shape="2.37,-56.17 2.74,-49.32"/>
        <lane id=":21_0_1" index="1" disallow="rail_fast" speed="36.11" length="6.89" width="2.87" shape="-0.37,-56.12 -0.01,-49.21"/>
    </edge>
    <edge id=":21_2" function="internal">
        <lane id=":21_2_0" index="0" disallow="bus truck rail_fast" speed="36.11" length="1.24" width="2.87" shape="0.06,-47.97 -0.01,-49.21"/>
    </edge>
    <edge id=":22_0" function="internal">
        <lane id=":22_0_0" index="0" disallow="rail_fast" speed="36.11" length="10.14" width="3.16" shape="-0.03,-49.52 -10.20,-49.38"/>
        <lane id=":22_0_1" index="1" disallow="rail_fast" speed="36.11" length="10.14" width="3.35" shape="-0.14,-52.66 -10.24,-52.63"/>
    </edge>
    <edge id=":22_2" function="internal">
        <lane id=":22_2_0" index="0" disallow="bus truck rail_fast" speed="36.11" length="0.49" width="3.35" shape="-10.73,-52.63 -10.24,-52.63"/>
    </edge>
    <edge id=":23_0" function="internal">
        <lane id=":23_0_0" index="0" disallow="bus truck rail_fast" speed="36.11" length="11.79" width="2.61" shape="3.37,-47.39 3.49,-35.60"/>
    </edge>
    <edge id=":23_1" function="internal">
        <lane id=":23_1_0" index="0" disallow="rail_fast" speed="36.11" length="13.55" width="2.61" shape="2.75,-49.12 3.49,-35.60"/>
        <lane id=":23_1_1" index="1" disallow="rail_fast" speed="36.11" length="13.55" width="2.93" shape="0.00,-49.01 0.72,-35.48"/>
    </edge>
    <edge id=":26_0" function="internal">
        <lane id=":26_0_0" index="0" disallow="bus rail_fast" speed="36.11" length="7.58" width="2.89" shape="-57.96,-69.19 -57.44,-68.98 -56.97,-68.80 -56.55,-68.64 -56.16,-68.50 -55.80,-68.38 -55.47,-68.26 -55.16,-68.17 -54.87,-68.08 -54.58,-68.00 -54.29,-67.93 -54.00,-67.87 -53.69,-67.81 -53.37,-67.75 -53.03,-67.69 -52.66,-67.63 -52.25,-67.57 -51.80,-67.51 -51.30,-67.43 -50.74,-67.35"/>
        <lane id=":26_0_1" index="1" disallow="rail_fast" speed="36.11" length="7.58" width="3.30" shape="-57.96,-69.19 -57.44,-68.98 -56.98,-68.80 -56.55,-68.64 -56.17,-68.49 -55.82,-68.36 -55.49,-68.24 -55.19,-68.13 -54.90,-68.03 -54.62,-67.94 -54.34,-67.85 -54.06,-67.76 -53.76,-67.67 -53.45,-67.57 -53.12,-67.48 -52.76,-67.37 -52.36,-67.26 -51.93,-67.14 -51.45,-67.00 -50.91,-66.85"/>
        <lane id=":26_0_2" index="2" disallow="rail_fast" speed="36.11" length="7.58" width="3.33" shape="-59.24,-65.85 -58.71,-65.64 -58.23,-65.45 -57.80,-65.29 -57.41,-65.14 -57.05,-65.00 -56.72,-64.88 -56.41,-64.77 -56.11,-64.67 -55.82,-64.57 -55.53,-64.48 -55.24,-64.39 -54.94,-64.30 -54.62,-64.20 -54.28,-64.11 -53.91,-64.00 -53.51,-63.89 -53.06,-63.77 -52.57,-63.63 -52.02,-63.48"/>
        <lane id=":26_0_3" index="3" disallow="rail_fast" speed="36.11" length="7.58" width="3.11" shape="-60.49,-62.60 -53.13,-60.09"/>
    </edge>
    <edge id=":27_0" function="internal">
        <lane id=":27_0_0" index="0" disallow="bus rail_fast" speed="36.11" length="3.87" width="2.89" shape="-32.09,-66.70 -31.80,-66.71 -31.54,-66.72 -31.30,-66.72 -31.09,-66.73 -30.89,-66.73 -30.71,-66.74 -30.54,-66.74 -30.38,-66.74 -30.22,-66.74 -30.07,-66.74 -29.91,-66.74 -29.75,-66.74 -29.58,-66.73 -29.40,-66.73 -29.20,-66.72 -28.99,-66.70 -28.75,-66.69 -28.49,-66.68 -28.20,-66.66"/>
        <lane id=":27_0_1" index="1" disallow="rail_fast" speed="36.11" length="3.87" width="3.59" shape="-32.33,-63.49 -28.47,-63.18"/>
        <lane id=":27_0_2" index="2" disallow="rail_fast" speed="36.11" length="3.87" width="3.33" shape="-32.60,-59.81 -28.76,-59.53"/>
        <lane id=":27_0_3" index="3" disallow="rail_fast" speed="36.11" length="3.87" width="3.01" shape="-32.85,-56.45 -29.02,-56.23"/>
    </edge>
    <edge id=":28_0" function="internal">
        <lane id=":28_0_0" index="0" disallow="bus truck rail_fast" speed="36.11" length="84.70" width="2.94" shape="-20.50,-66.16 -105.20,-66.37"/>
    </edge>
    <edge id=":28_1" function="internal">
        <lane id=":28_1_0" index="0" disallow="rail_fast" speed="36.11" length="4.03" width="3.57" shape="-20.61,-62.64 -16.63,-62.46"/>
        <lane id=":28_1_1" index="1" disallow="rail_fast" speed="36.11" length="4.03" width="3.33" shape="-20.73,-59.13 -16.70,-59.00"/>
        <lane id=":28_1_2" index="2" disallow="rail_fast" speed="36.11" length="4.03" width="3.01" shape="-20.83,-55.92 -16.77,-55.83"/>
    </edge>
    <edge id=":29_0" function="internal">
        <lane id=":29_0_0" index="0" disallow="rail_fast" speed="36.11" length="7.10" width="3.50" shape="-9.91,-62.41 -2.80,-62.36"/>
        <lane id=":29_0_1" index="1" disallow="rail_fast" speed="36.11" length="7.10" width="3.30" shape="-9.78,-58.97 -2.68,-58.95"/>
        <lane id=":29_0_2" index="2" disallow="rail_fast" speed="36.11" length="7.10" width="3.02" shape="-9.66,-55.80 -2.57,-55.78"/>
    </edge>
    <edge id=":29_3" function="internal">
        <lane id=":29_3_0" index="0" disallow="bus truck rail_fast" speed="7.90" length="13.13" width="2.17" shape="-9.66,-55.80 -8.72,-55.78 -7.82,-55.72 -6.98,-55.63 -6.18,-55.50 -5.43,-55.33 -4.73,-55.13 -4.08,-54.89 -3.47,-54.61 -2.92,-54.30 -2.41,-53.95 -1.95,-53.57 -1.54,-53.14 -1.18,-52.69 -0.86,-52.19 -0.60,-51.66 -0.38,-51.09 -0.22,-50.49 -0.10,-49.85 -0.02,-49.17"/>
    </edge>
    <edge id=":3_0" function="internal">
        <lane id=":3_0_0" index="0" disallow="rail_fast" speed="36.11" length="1.56" width="2.99" shape="-9.04,-49.27 -8.94,-47.72"/>
        <lane id=":3_0_1" index="1" disallow="rail_fast" speed="36.11" length="1.56" width="3.02" shape="-6.03,-49.38 -5.95,-47.82"/>
    </edge>
    <edge id=":3_2" function="internal">
        <lane id=":3_2_0" index="0" disallow="bus truck rail_fast" speed="36.11" length="0.55" width="2.98" shape="-2.98,-49.48 -3.23,-49.97"/>
    </edge>
    <edge id=":31_0" function="internal">
        <lane id=":31_0_0" index="0" disallow="bus truck rail_fast" speed="6.60" length="9.65" width="2.61" shape="12.10,-49.70 11.21,-49.75 10.37,-49.78 9.58,-49.80 8.83,-49.79 8.14,-49.77 7.49,-49.73 6.89,-49.67 6.33,-49.60 5.83,-49.51 5.37,-49.39 4.96,-49.27 4.59,-49.12 4.28,-48.95 4.01,-48.77 3.79,-48.57 3.61,-48.35 3.49,-48.11 3.41,-47.86 3.38,-47.59"/>
    </edge>
    <edge id=":31_1" function="internal">
        <lane id=":31_1_0" index="0" disallow="rail_fast" speed="36.11" length="11.28" width="3.02" shape="12.10,-49.70 1.03,-49.53"/>
        <lane id=":31_1_1" index="1" disallow="rail_fast" speed="36.11" length="11.28" width="3.04" shape="12.29,-52.72 1.04,-52.67"/>
        <lane id=":31_1_2" index="2" disallow="rail_fast" speed="5.16" length="11.28" width="3.03" shape="12.49,-55.75 0.96,-55.77"/>
    </edge>
    <edge id=":32_0" function="internal">
        <lane id=":32_0_0" index="0" disallow="rail_fast" speed="36.11" length="21.63" width="3.07" shape="0.83,-49.53 22.51,-49.83"/>
        <lane id=":32_0_1" index="1" disallow="rail_fast" speed="36.11" length="21.63" width="3.15" shape="0.84,-52.67 22.41,-52.75"/>
    </edge>
    <edge id=":32_2" function="internal">
        <lane id=":32_2_0" index="0" disallow="bus truck rail_fast" speed="36.11" length="21.46" width="2.34" shape="0.93,-55.77 22.38,-55.52"/>
    </edge>
    <edge id=":4_0" function="internal">
        <lane id=":4_0_0" index="0" disallow="rail_fast" speed="36.11" length="5.76" width="3.46" shape="-2.60,-62.36 3.23,-62.32"/>
        <lane id=":4_0_1" index="1" disallow="rail_fast" speed="36.11" length="5.76" width="3.28" shape="-2.48,-58.95 3.21,-58.92"/>
    </edge>
    <edge id=":4_2" function="internal">
        <lane id=":4_2_0" index="0" disallow="bus truck rail_fast" speed="7.83" length="11.81" width="3.28" shape="-3.20,-50.16 -3.02,-51.06 -2.83,-51.91 -2.61,-52.72 -2.38,-53.47 -2.14,-54.18 -1.87,-54.83 -1.59,-55.44 -1.29,-56.00 -0.97,-56.51 -0.63,-56.97 -0.27,-57.38 0.10,-57.74 0.49,-58.06 0.90,-58.32 1.32,-58.54 1.77,-58.71 2.23,-58.83 2.71,-58.90 3.21,-58.92"/>
    </edge>
    <edge id=":5_0" function="internal">
        <lane id=":5_0_0" index="0" disallow="bus truck rail_fast" speed="36.11" length="10.81" width="3.46" shape="3.94,-63.40 4.67,-63.24 5.34,-63.10 5.95,-62.98 6.52,-62.87 7.04,-62.78 7.53,-62.70 8.00,-62.63 8.45,-62.57 8.89,-62.52 9.33,-62.48 9.78,-62.44 10.24,-62.41 10.74,-62.38 11.26,-62.35 11.82,-62.32 12.44,-62.28 13.11,-62.24 13.85,-62.20 14.66,-62.15"/>
    </edge>
    <edge id=":5_1" function="internal">
        <lane id=":5_1_0" index="0" disallow="rail_fast" speed="36.11" length="11.13" width="3.46" shape="3.43,-62.32 14.66,-62.15"/>
        <lane id=":5_1_1" index="1" disallow="rail_fast" speed="36.11" length="11.13" width="3.28" shape="3.41,-58.92 14.44,-58.79"/>
    </edge>
    <edge id=":7_0" function="internal">
        <lane id=":7_0_0" index="0" disallow="rail_fast" speed="36.11" length="7.30" width="2.94" shape="-9.37,-54.95 -9.81,-62.24"/>
        <lane id=":7_0_1" index="1" disallow="rail_fast" speed="36.11" length="7.30" width="3.25" shape="-6.32,-55.02 -6.69,-62.31"/>
    </edge>
    <edge id=":7_2" function="internal">
        <lane id=":7_2_0" index="0" disallow="bus truck rail_fast" speed="7.33" length="7.97" width="3.25" shape="-2.00,-56.45 -2.46,-56.65 -2.90,-56.86 -3.31,-57.09 -3.70,-57.32 -4.07,-57.57 -4.41,-57.83 -4.73,-58.10 -5.02,-58.39 -5.29,-58.68 -5.54,-58.99 -5.76,-59.31 -5.96,-59.65 -6.14,-59.99 -6.29,-60.35 -6.42,-60.72 -6.52,-61.10 -6.60,-61.49 -6.66,-61.89 -6.69,-62.31"/>
    </edge>
    <edge id=":8_0" function="internal">
        <lane id=":8_0_0" index="0" disallow="rail_fast" speed="36.11" length="8.73" width="2.52" shape="-9.95,-64.91 -10.42,-73.63"/>
        <lane id=":8_0_1" index="1" disallow="rail_fast" speed="36.11" length="8.73" width="2.84" shape="-6.84,-65.09 -7.29,-73.80"/>
    </edge>
    <edge id=":8_2" function="internal">
        <lane id=":8_2_0" index="0" disallow="bus truck rail_fast" speed="6.95" length="9.35" width="2.52" shape="-14.71,-66.36 -14.24,-66.47 -13.80,-66.61 -13.38,-66.78 -13.00,-66.98 -12.64,-67.21 -12.30,-67.47 -12.00,-67.76 -11.72,-68.08 -11.46,-68.44 -11.24,-68.82 -11.04,-69.23 -10.87,-69.68 -10.72,-70.15 -10.60,-70.65 -10.51,-71.19 -10.45,-71.76 -10.41,-72.35 -10.40,-72.98 -10.42,-73.63"/>
    </edge>
    <edge id=":9_0" function="internal">
        <lane id=":9_0_0" index="0" disallow="bus truck rail_fast" speed="36.11" length="2.73" width="2.51" shape="-11.16,-95.69 -11.12,-98.49"/>
        <lane id=":9_0_1" index="1" disallow="rail_fast" speed="36.11" length="2.73" width="2.84" shape="-8.44,-95.76 -8.45,-95.96 -8.46,-96.14 -8.47,-96.31 -8.47,-96.45 -8.48,-96.59 -8.48,-96.71 -8.48,-96.83 -8.48,-96.94 -8.48,-97.05 -8.48,-97.15 -8.48,-97.26 -8.48,-97.37 -8.47,-97.48 -8.46,-97.61 -8.45,-97.74 -8.44,-97.89 -8.43,-98.05 -8.42,-98.23 -8.40,-98.43"/>
    </edge>

    <edge id="43205" from="23" to="24" priority="1" spreadType="center" length="44.80">
        <lane id="43205_0" index="0" disallow="rail_fast" speed="36.11" length="44.80" width="2.61" customShape="1" shape="3.49,-35.60 4.29,-22.09 5.18,-7.06 6.05,7.61"/>
        <lane id="43205_1" index="1" disallow="rail_fast" speed="36.11" length="44.80" width="2.93" customShape="1" shape="0.72,-35.48 1.51,-22.00 2.27,-6.97 3.10,7.78"/>
    </edge>
    <edge id="43343" from="1" to="2" priority="1" spreadType="center" length="44.97">
        <lane id="43343_0" index="0" disallow="rail_fast" speed="36.11" length="44.97" width="2.89" customShape="1" shape="-5.70,8.30 -6.56,-6.70 -7.43,-21.73 -7.50,-22.87"/>
        <lane id="43343_1" index="1" disallow="rail_fast" speed="36.11" length="44.97" width="2.86" customShape="1" shape="-2.79,8.13 -3.65,-6.79 -4.51,-21.82 -4.58,-22.98"/>
        <lane id="43343_2" index="2" disallow="rail_fast" speed="36.11" length="44.97" width="2.78" customShape="1" shape="0.06,7.97 -0.77,-6.88 -1.52,-21.91 -1.59,-23.10"/>
    </edge>
    <edge id="43382" from="8" to="9" priority="1" spreadType="center" length="24.84">
        <lane id="43382_0" index="0" disallow="rail_fast" speed="36.11" length="24.84" width="2.52" customShape="1" shape="-10.42,-73.63 -10.91,-84.58 -11.16,-95.69"/>
        <lane id="43382_1" index="1" disallow="rail_fast" speed="36.11" length="24.84" width="2.84" customShape="1" shape="-7.29,-73.80 -7.89,-84.59 -8.44,-95.76"/>
    </edge>
    <edge id="43386" from="9" to="10" priority="1" spreadType="center" length="19.69">
        <lane id="43386_0" index="0" disallow="bus truck rail_fast" speed="36.11" length="19.69" width="2.51" customShape="1" shape="-11.12,-98.49 -10.75,-106.91 -10.61,-115.17"/>
        <lane id="43386_1" index="1" disallow="rail_fast" speed="36.11" length="19.69" width="2.84" customShape="1" shape="-8.40,-98.43 -7.76,-106.96 -7.49,-115.20"/>
    </edge>
    <edge id="43390" from="10" to="11" priority="1" spreadType="center" length="7.33">
        <lane id="43390_0" index="0" disallow="rail_fast" speed="36.11" length="7.33" width="2.37" customShape="1" shape="-10.57,-118.32 -10.55,-120.38 -10.53,-124.12"/>
        <lane id="43390_1" index="1" disallow="rail_fast" speed="36.11" length="7.33" width="3.54" customShape="1" shape="-7.47,-118.40 -7.50,-120.49 -7.57,-124.16"/>
    </edge>
    <edge id="43394" from="16" to="17" priority="1" spreadType="center" length="7.31">
        <lane id="43394_0" index="0" disallow="rail_fast" speed="36.11" length="7.31" width="2.93" customShape="1" shape="-1.11,-124.40 -0.93,-120.95"/>
        <lane id="43394_1" index="1" disallow="rail_fast" speed="36.11" length="7.31" width="3.19" customShape="1" shape="-4.21,-124.27 -4.05,-120.82"/>
    </edge>
    <edge id="43400" from="17" to="18" priority="1" spreadType="center" length="19.77">
        <lane id="43400_0" index="0" disallow="rail_fast" speed="36.11" length="19.77" width="2.91" customShape="1" shape="-0.54,-113.01 -0.27,-107.20 0.11,-99.22"/>
        <lane id="43400_1" index="1" disallow="rail_fast" speed="36.11" length="19.77" width="2.91" customShape="1" shape="-3.60,-112.98 -3.19,-107.10 -2.81,-99.18"/>
        <lane id="43400_2" index="2" disallow="rail_fast" speed="36.11" length="19.77" width="2.91" customShape="1" shape="-4.18,-112.97 -4.65,-107.05 -5.43,-99.15"/>
    </edge>
    <edge id="43406" from="18" to="19" priority="1" spreadType="center" length="24.58">
        <lane id="43406_0" index="0" disallow="rail_fast" speed="36.11" length="24.58" width="2.68" customShape="1" shape="0.26,-96.12 0.84,-85.03 1.33,-75.46"/>
        <lane id="43406_1" index="1" disallow="rail_fast" speed="36.11" length="24.58" width="2.73" customShape="1" shape="-2.64,-96.01 -1.97,-84.86 -1.39,-75.31"/>
        <lane id="43406_2" index="2" disallow="rail_fast" speed="36.11" length="24.58" width="2.91" customShape="1" shape="-5.55,-95.89 -4.84,-84.70 -4.23,-75.14"/>
    </edge>
    <edge id="43456" from="25" to="26" priority="1" spreadType="center" length="13.04">
        <lane id="43456_0" index="0" disallow="rail_fast" speed="36.11" length="13.04" width="3.26" customShape="1" shape="-67.17,-72.78 -60.87,-70.32 -57.96,-69.19"/>
        <lane id="43456_1" index="1" disallow="rail_fast" speed="36.11" length="13.04" width="3.79" customShape="1" shape="-68.45,-69.46 -62.26,-67.03 -59.24,-65.85"/>
        <lane id="43456_2" index="2" disallow="rail_fast" speed="36.11" length="13.04" width="3.11" customShape="1" shape="-69.72,-66.14 -63.63,-63.81 -60.49,-62.60"/>
    </edge>
    <edge id="43464" from="26" to="27" priority="1" spreadType="center" length="25.05">
        <lane id="43464_0" index="0" disallow="bus rail_fast" speed="36.11" length="25.05" width="2.89" customShape="1" shape="-50.74,-67.35 -48.59,-67.03 -42.33,-66.61 -36.02,-66.59 -32.09,-66.70"/>
        <lane id="43464_1" index="1" disallow="rail_fast" speed="36.11" length="25.05" width="3.30" customShape="1" shape="-50.91,-66.85 -48.72,-66.23 -42.60,-64.76 -36.34,-63.84 -32.33,-63.49"/>
        <lane id="43464_2" index="2" disallow="rail_fast" speed="36.11" length="25.05" width="3.33" customShape="1" shape="-52.02,-63.48 -49.75,-62.85 -43.43,-61.30 -36.88,-60.21 -32.60,-59.81"/>
        <lane id="43464_3" index="3" disallow="rail_fast" speed="36.11" length="25.05" width="3.11" customShape="1" shape="-53.13,-60.09 -50.81,-59.37 -44.29,-57.80 -37.42,-56.81 -32.85,-56.45"/>
    </edge>
    <edge id="43472" from="27" to="28" priority="1" spreadType="center" length="11.85">
        <lane id="43472_0" index="0" disallow="rail_fast" speed="36.11" length="11.85" width="2.89" customShape="1" shape="-28.20,-66.66 -23.92,-66.38 -20.50,-66.16"/>
        <lane id="43472_1" index="1" disallow="rail_fast" speed="36.11" length="11.85" width="3.59" customShape="1" shape="-28.47,-63.18 -24.12,-62.89 -20.61,-62.64"/>
        <lane id="43472_2" index="2" disallow="rail_fast" speed="36.11" length="11.85" width="3.33" customShape="1" shape="-28.76,-59.53 -24.33,-59.31 -20.73,-59.13"/>
        <lane id="43472_3" index="3" disallow="rail_fast" speed="36.11" length="11.85" width="3.01" customShape="1" shape="-29.02,-56.23 -24.52,-56.06 -20.83,-55.92"/>
    </edge>
    <edge id="43476" from="12" to="13" priority="1" spreadType="center" length="12.65">
        <lane id="43476_0" index="0" disallow="rail_fast" speed="36.11" length="12.65" width="3.10" customShape="1" shape="-21.33,-49.39 -24.89,-49.55 -29.72,-49.76"/>
        <lane id="43476_1" index="1" disallow="rail_fast" speed="36.11" length="12.65" width="3.26" customShape="1" shape="-21.23,-52.69 -24.70,-52.80 -29.52,-52.95"/>
    </edge>
    <edge id="43480" from="13" to="14" priority="1" spreadType="center" length="28.07">
        <lane id="43480_0" index="0" disallow="rail_fast" speed="36.11" length="28.07" width="3.10" customShape="1" shape="-32.75,-49.92 -38.39,-50.25 -45.58,-51.42 -52.72,-52.99 -58.18,-54.75"/>
        <lane id="43480_1" index="1" disallow="bus rail_fast" speed="36.11" length="28.07" width="2.98" customShape="1" shape="-32.51,-53.11 -37.94,-53.52 -44.99,-54.61 -51.69,-56.15 -57.07,-57.90"/>
    </edge>
    <edge id="43484" from="14" to="15" priority="1" spreadType="center" length="13.77">
        <lane id="43484_0" index="0" disallow="rail_fast" speed="36.11" length="13.77" width="3.19" customShape="1" shape="-61.01,-55.76 -66.17,-57.78 -72.60,-60.29"/>
        <lane id="43484_1" index="1" disallow="rail_fast" speed="36.11" length="13.77" width="3.30" customShape="1" shape="-59.81,-58.88 -64.89,-60.81 -71.42,-63.30"/>
    </edge>
    <edge id="43488" from="5" to="6" priority="1" spreadType="center" length="37.32">
        <lane id="43488_0" index="0" disallow="rail_fast" speed="36.11" length="37.32" width="3.46" customShape="1" shape="14.66,-62.15 31.66,-61.04 50.35,-59.82"/>
        <lane id="43488_1" index="1" disallow="rail_fast" speed="36.11" length="37.32" width="3.28" customShape="1" shape="14.44,-58.79 31.47,-57.67 50.13,-56.46"/>
    </edge>
    <edge id="43494" from="30" to="31" priority="1" spreadType="center" length="37.32">
        <lane id="43494_0" index="0" disallow="rail_fast" speed="36.11" length="37.32" width="3.02" customShape="1" shape="49.53,-47.26 30.98,-48.47 12.10,-49.70"/>
        <lane id="43494_1" index="1" disallow="rail_fast" speed="36.11" length="37.32" width="3.04" customShape="1" shape="49.72,-50.28 31.14,-51.49 12.29,-52.72"/>
        <lane id="43494_2" index="2" disallow="rail_fast" speed="36.11" length="37.32" width="3.04" customShape="1" shape="49.92,-53.31 31.30,-54.52 12.49,-55.75"/>
    </edge>
    <edge id="43594" from="2" to="3" priority="1" spreadType="center" length="10.99">
        <lane id="43594_0" index="0" disallow="rail_fast" speed="36.11" length="10.99" width="2.98" customShape="1" shape="-9.02,-49.07 -9.04,-49.27"/>
        <lane id="43594_1" index="1" disallow="rail_fast" speed="36.11" length="10.99" width="2.86" customShape="1" shape="-6.02,-49.18 -6.03,-49.38"/>
        <lane id="43594_2" index="2" disallow="rail_fast" speed="36.11" length="10.99" width="3.06" customShape="1" shape="-2.97,-49.28 -2.98,-49.48"/>
    </edge>
    <edge id="43598" from="21" to="23" priority="1" spreadType="center" length="10.92">
        <lane id="43598_0" index="0" disallow="rail_fast" speed="36.11" length="10.92" width="2.61" acceleration="1" customShape="1" shape="2.74,-49.32 2.75,-49.12"/>
        <lane id="43598_1" index="1" disallow="rail_fast" speed="36.11" length="10.92" width="2.87" customShape="1" shape="-0.01,-49.21 0.00,-49.01"/>
    </edge>
    <edge id="43602" from="4" to="5" priority="1" spreadType="center" length="9.34">
        <lane id="43602_0" index="0" disallow="rail_fast" speed="36.11" length="9.34" width="3.46" acceleration="1" customShape="1" shape="3.23,-62.32 3.43,-62.32"/>
        <lane id="43602_1" index="1" disallow="rail_fast" speed="36.11" length="9.34" width="3.28" customShape="1" shape="3.21,-58.92 3.41,-58.92"/>
    </edge>
    <edge id="43608" from="31" to="32" priority="1" spreadType="center" length="8.24">
        <lane id="43608_0" index="0" disallow="rail_fast" speed="36.11" length="8.24" width="3.02" customShape="1" shape="1.03,-49.53 0.83,-49.53"/>
        <lane id="43608_1" index="1" disallow="rail_fast" speed="36.11" length="8.24" width="3.04" customShape="1" shape="1.04,-52.67 0.84,-52.67"/>
        <lane id="43608_2" index="2" disallow="rail_fast" speed="36.11" length="8.24" width="3.03" customShape="1" shape="0.96,-55.77 8.20,-55.75 0.93,-55.77"/>
    </edge>
    <edge id="43614" from="28" to="29" priority="1" spreadType="center" length="6.80">
        <lane id="43614_0" index="0" disallow="rail_fast" speed="36.11" length="6.80" width="3.57" customShape="1" shape="-16.63,-62.46 -14.71,-62.45 -9.91,-62.41"/>
        <lane id="43614_1" index="1" disallow="rail_fast" speed="36.11" length="6.80" width="3.33" customShape="1" shape="-16.70,-59.00 -14.66,-58.99 -9.78,-58.97"/>
        <lane id="43614_2" index="2" disallow="rail_fast" speed="36.11" length="6.80" width="3.01" customShape="1" shape="-16.77,-55.83 -14.61,-55.82 -9.66,-55.80"/>
    </edge>
    <edge id="43618" from="22" to="12" priority="1" spreadType="center" length="7.65">
        <lane id="43618_0" index="0" disallow="rail_fast" speed="36.11" length="7.65" width="3.16" acceleration="1" customShape="1" shape="-10.20,-49.38 -10.40,-49.37"/>