<routes>
	<vehicle depart="0.1" departLane="0" departPos="17.662765407294994" departSpeed="1.8126672" id="338" type="bus">
		<route edges="8723 8717"/>
	</vehicle>
	<vehicle depart="0.1" departLane="0" departPos="23.02158772746664" departSpeed="8.2621342" id="36" type="passenger">
		<route edges=":48_5 8770 8773"/>
	</vehicle>
	<vehicle depart="0.1" departLane="0" departPos="71.22304685199632" departSpeed="5.2538788" id="312" type="passenger">
		<route edges="8723 8717"/>
	</vehicle>
	<vehicle depart="0.1" departLane="0" departPos="52.355964920033266" departSpeed="5.6846232" id="318" type="passenger">
		<route edges="8723 8717"/>
	</vehicle>
	<vehicle depart="0.1" departLane="0" departPos="37.76875459225632" departSpeed="1.9204133" id="321" type="passenger">
		<route edges="8723 8717"/>
	</vehicle>
	<vehicle depart="0.1" departLane="0" departPos="2.5" departSpeed="0.80858577" id="330" type="passenger">
		<route edges=":49_0 8718"/>
	</vehicle>
	<vehicle depart="0.1" departLane="0" departPos="2.5" departSpeed="2.9381548" id="355" type="passenger">
		<route edges=":50_1 8992"/>
	</vehicle>
	<vehicle depart="0.1" departLane="0" departPos="29.680199784280664" departSpeed="0.53579532" id="33" type="motorcycle">
		<route edges=":50_0 8998"/>
	</vehicle>
	<vehicle depart="0.1" departLane="0" departPos="11.547237976143077" departSpeed="1.4135114" id="328" type="truck">
		<route edges=":49_0 8718"/>
	</vehicle>
</routes>
