<routes>
	<vehicle depart="0.1" departLane="0" departPos="17.884516578849652" departSpeed="1.8155764" id="38" type="bicycle">
		<route edges=":29_5 8091"/>
	</vehicle>
	<vehicle depart="0.1" departLane="0" departPos="28.060676749711597" departSpeed="0.0" id="31" type="passenger">
		<route edges=":29_6 8105"/>
	</vehicle>
	<vehicle depart="0.1" departLane="0" departPos="15.937277519494115" departSpeed="0.51883041" id="311" type="passenger">
		<route edges=":29_5 8091 8797"/>
	</vehicle>
	<vehicle depart="0.1" departLane="0" departPos="8.671437123099796" departSpeed="7.9479166" id="315" type="passenger">
		<route edges=":29_1 8142"/>
	</vehicle>
	<vehicle depart="0.1" departLane="0" departPos="25.39207574642937" departSpeed="0.99260893" id="324" type="passenger">
		<route edges="8269 8105"/>
	</vehicle>
	<vehicle depart="0.1" departLane="0" departPos="50.12230506358283" departSpeed="11.475205" id="325" type="passenger">
		<route edges=":29_8 8105 8733 8371"/>
	</vehicle>
	<vehicle depart="0.1" departLane="0" departPos="31.506423800745754" departSpeed="7.1144882" id="341" type="passenger">
		<route edges="8141 8105"/>
	</vehicle>
	<vehicle depart="0.1" departLane="0" departPos="31.399142098404212" departSpeed="0.0" id="321" type="motorcycle">
		<route edges="8269 8105"/>
	</vehicle>
	<vehicle depart="0.1" departLane="0" departPos="26.495787301805397" departSpeed="12.279867" id="327" type="motorcycle">
		<route edges=":29_7 8091 8797"/>
	</vehicle>
	<vehicle depart="0.1" departLane="0" departPos="53.00839392089511" departSpeed="7.653273" id="331" type="motorcycle">
		<route edges="8141 8091"/>
	</vehicle>
</routes>
