<routes>
	<vehicle depart="0.1" departLane="0" departPos="19.33910136233067" departSpeed="0.94252132" id="310" type="bicycle">
		<route edges="51400 51474"/>
	</vehicle>
	<vehicle depart="0.1" departLane="0" departPos="26.407081942562613" departSpeed="2.2960638" id="312" type="passenger">
		<route edges="51400 51474"/>
	</vehicle>
	<vehicle depart="0.1" departLane="0" departPos="48.640991358390686" departSpeed="0.11790263" id="316" type="passenger">
		<route edges="51518 51400"/>
	</vehicle>
	<vehicle depart="0.1" departLane="0" departPos="17.913364183406607" departSpeed="1.1793815" id="322" type="passenger">
		<route edges="51400 51474"/>
	</vehicle>
	<vehicle depart="0.1" departLane="0" departPos="18.959251774097492" departSpeed="5.2922174" id="328" type="passenger">
		<route edges=":41_5 51400"/>
	</vehicle>
	<vehicle depart="0.1" departLane="0" departPos="69.02229432503647" departSpeed="0.0" id="332" type="passenger">
		<route edges="51520 51517"/>
	</vehicle>
	<vehicle depart="0.1" departLane="0" departPos="10.343577960062767" departSpeed="1.7121602" id="34" type="motorcycle">
		<route edges="51399 51517"/>
	</vehicle>
	<vehicle depart="0.1" departLane="0" departPos="61.26146837736283" departSpeed="0.27032913" id="336" type="motorcycle">
		<route edges="51520 51517"/>
	</vehicle>
	<vehicle depart="0.1" departLane="0" departPos="15.995476370672979" departSpeed="1.6011352" id="317" type="truck">
		<route edges=":40_4 51399"/>
	</vehicle>
</routes>
