<routes>
	<vehicle depart="0.1" departLane="0" departPos="42.72237324951036" departSpeed="8.8292632" id="1" type="passenger">
		<route edges="50201 50213 50197"/>
	</vehicle>
	<vehicle depart="0.1" departLane="0" departPos="108.28231146829214" departSpeed="2.0365511" id="2" type="passenger">
		<route edges="50195 50211 50199"/>
	</vehicle>
	<vehicle depart="0.1" departLane="0" departPos="145.7454721938961" departSpeed="1.551586" id="4" type="passenger">
		<route edges="50205 50207 50197"/>
	</vehicle>
	<vehicle depart="0.1" departLane="0" departPos="153.74555127748098" departSpeed="3.3789857" id="5" type="passenger">
		<route edges="50205 50217 50199"/>
	</vehicle>
	<vehicle depart="0.1" departLane="0" departPos="34.72150545055622" departSpeed="1.7336924" id="7" type="passenger">
		<route edges="50201 50213 50197"/>
	</vehicle>
</routes>
