<routes>
	<vehicle depart="0.1" departLane="0" departPos="69.61198009602613" departSpeed="0.0" id="37" type="bicycle">
		<route edges="164 71"/>
	</vehicle>
	<vehicle depart="0.1" departLane="0" departPos="74.69827461638901" departSpeed="6.5687462" id="39" type="bicycle">
		<route edges="62 65 68"/>
	</vehicle>
	<vehicle depart="0.1" departLane="0" departPos="113.99860364571609" departSpeed="5.9335798" id="31" type="passenger">
		<route edges="142 383 7"/>
	</vehicle>
	<vehicle depart="0.1" departLane="0" departPos="17.126278786350593" departSpeed="0.0" id="35" type="passenger">
		<route edges="7 65"/>
	</vehicle>
	<vehicle depart="0.1" departLane="0" departPos="24.30212928299136" departSpeed="0.0" id="38" type="passenger">
		<route edges="161 68 71 74"/>
	</vehicle>
	<vehicle depart="0.1" departLane="0" departPos="69.82331164190201" departSpeed="0.0" id="315" type="passenger">
		<route edges="164 71"/>
	</vehicle>
	<vehicle depart="0.1" departLane="0" departPos="7.600464729071772" departSpeed="3.5491768" id="317" type="passenger">
		<route edges="383 7"/>
	</vehicle>
	<vehicle depart="0.1" departLane="0" departPos="20.357226480894106" departSpeed="12.328305" id="318" type="passenger">
		<route edges="142 383"/>
	</vehicle>
	<vehicle depart="0.1" departLane="0" departPos="41.792921320048" departSpeed="0.0" id="322" type="passenger">
		<route edges="145 10"/>
	</vehicle>
	<vehicle depart="0.1" departLane="0" departPos="2.5" departSpeed="21.779437" id="327" type="passenger">
		<route edges=":49_4 10"/>
	</vehicle>
	<vehicle depart="0.1" departLane="0" departPos="34.565053241007284" departSpeed="0.0" id="328" type="passenger">
		<route edges="145 10"/>
	</vehicle>
	<vehicle depart="0.1" departLane="0" departPos="62.54746864914874" departSpeed="0.0080089601" id="331" type="passenger">
		<route edges="164 71"/>
	</vehicle>
	<vehicle depart="0.1" departLane="0" departPos="17.432106353365203" departSpeed="0.0" id="334" type="passenger">
		<route edges="161 64 61"/>
	</vehicle>
	<vehicle depart="0.1" departLane="0" departPos="69.89916722968246" departSpeed="0.0" id="335" type="passenger">
		<route edges="11 142"/>
	</vehicle>
	<vehicle depart="0.1" departLane="0" departPos="62.3984716294829" departSpeed="0.0" id="336" type="passenger">
		<route edges="11 142"/>
	</vehicle>
	<vehicle depart="0.1" departLane="0" departPos="22.596400585790164" departSpeed="2.960048e-05" id="337" type="passenger">
		<route edges="145 10"/>
	</vehicle>
	<vehicle depart="0.1" departLane="0" departPos="55.0123241635881" departSpeed="0.059802566" id="339" type="passenger">
		<route edges="164 71"/>
	</vehicle>
	<vehicle depart="0.1" departLane="0" departPos="55.26918896723294" departSpeed="0.0" id="342" type="passenger">
		<route edges="11 142"/>
	</vehicle>
	<vehicle depart="0.1" departLane="0" departPos="47.412129440440765" departSpeed="0.23465904" id="343" type="passenger">
		<route edges="164 71"/>
	</vehicle>
	<vehicle depart="0.1" departLane="0" departPos="6.56444495841269" departSpeed="10.384521" id="344" type="passenger">
		<route edges=":52_1 61 10"/>
	</vehicle>
	<vehicle depart="0.1" departLane="0" departPos="15.347064933463733" departSpeed="0.00017866298" id="346" type="passenger">
		<route edges="145 10"/>
	</vehicle>
	<vehicle depart="0.1" departLane="0" departPos="48.53987658408548" departSpeed="0.0" id="347" type="passenger">
		<route edges="11 142"/>
	</vehicle>
	<vehicle depart="0.1" departLane="0" departPos="41.666214548130114" departSpeed="8.2368948e-05" id="349" type="passenger">
		<route edges="11 142"/>
	</vehicle>
	<vehicle depart="0.1" departLane="0" departPos="6.55900794783725" departSpeed="15.102875" id="350" type="passenger">
		<route edges=":51_3 67 64 61 146"/>
	</vehicle>
	<vehicle depart="0.1" departLane="0" departPos="34.392196195741256" departSpeed="0.00046674957" id="352" type="passenger">
		<route edges="11 142"/>
	</vehicle>
	<vehicle depart="0.1" departLane="0" departPos="27.289564042140004" departSpeed="0.0020371504" id="353" type="passenger">
		<route edges="11 142"/>
	</vehicle>
	<vehicle depart="0.1" departLane="0" departPos="8.151189274531939" departSpeed="0.00076070754" id="356" type="passenger">
		<route edges="145 10"/>
	</vehicle>
	<vehicle depart="0.1" departLane="0" departPos="20.58188065352129" departSpeed="0.007186343" id="357" type="passenger">
		<route edges="11 142"/>
	</vehicle>
	<vehicle depart="0.1" departLane="0" departPos="24.04829839718767" departSpeed="13.173578" id="360" type="passenger">
		<route edges="70 67 64 8 242 143 62"/>
	</vehicle>
	<vehicle depart="0.1" departLane="0" departPos="13.46048527985128" departSpeed="0.020805834" id="361" type="passenger">
		<route edges="11 142"/>
	</vehicle>
	<vehicle depart="0.1" departLane="0" departPos="2.5" departSpeed="7.4328567" id="362" type="passenger">
		<route edges="70 67 64 61"/>
	</vehicle>
	<vehicle depart="0.1" departLane="0" departPos="5.911304618218682" departSpeed="0.050132791" id="364" type="passenger">
		<route edges="11 142"/>
	</vehicle>
	<vehicle depart="0.1" departLane="0" departPos="42.12777328196598" departSpeed="0.0" id="33" type="motorcycle">
		<route edges="145 10"/>
	</vehicle>
	<vehicle depart="0.1" departLane="0" departPos="27.31531065559079" departSpeed="0.0" id="333" type="motorcycle">
		<route edges="145 10"/>
	</vehicle>
	<vehicle depart="0.1" departLane="0" departPos="9.34810208357014" departSpeed="1.2723916" id="325" type="truck">
		<route edges="7 65"/>
	</vehicle>
	<vehicle depart="0.1" departLane="0" departPos="10.330317451958432" departSpeed="0.0" id="341" type="truck">
		<route edges="161 68"/>
	</vehicle>
</routes>
