<routes>
	<vehicle depart="0.1" departLane="0" departPos="32.178251186333895" departSpeed="4.6324319" id="31" type="passenger">
		<route edges="1629 165 3718"/>
	</vehicle>
	<vehicle depart="0.1" departLane="0" departPos="18.661690304168012" departSpeed="2.2585902" id="310" type="passenger">
		<route edges="1629 3377"/>
	</vehicle>
	<vehicle depart="0.1" departLane="0" departPos="22.262718687662822" departSpeed="0.50979498" id="312" type="passenger">
		<route edges="3043 101"/>
	</vehicle>
	<vehicle depart="0.1" departLane="0" departPos="11.221385467110133" departSpeed="0.71127359" id="313" type="passenger">
		<route edges="3043 101"/>
	</vehicle>
	<vehicle depart="0.1" departLane="0" departPos="30.72380869476238" departSpeed="0.69826539" id="323" type="passenger">
		<route edges="3043 101"/>
	</vehicle>
	<vehicle depart="0.1" departLane="0" departPos="13.858976337631123" departSpeed="9.3523844" id="331" type="passenger">
		<route edges=":36_0 1630 1633"/>
	</vehicle>
	<vehicle depart="0.1" departLane="0" departPos="16.709250602885703" departSpeed="8.8985686" id="339" type="passenger">
		<route edges=":36_4 1630 1633"/>
	</vehicle>
	<vehicle depart="0.1" departLane="0" departPos="15.424917816859965" departSpeed="36.288145" id="353" type="passenger">
		<route edges=":36_3 3378 99 539 843"/>
	</vehicle>
	<vehicle depart="0.1" departLane="0" departPos="11.47465611647689" departSpeed="26.058834" id="355" type="passenger">
		<route edges="163 3378 99 539"/>
	</vehicle>
	<vehicle depart="0.1" departLane="0" departPos="8.34257455804419" departSpeed="1.3844741" id="322" type="truck">
		<route edges="101 29 1630"/>
	</vehicle>
</routes>
