<!-- generated on Tue Feb  9 22:10:51 2021 by Eclipse SUMO netconvert Version 1.8.0
<configuration xmlns:xsi="http://www.w3.org/2001/XMLSchema-instance" xsi:noNamespaceSchemaLocation="http://sumo.dlr.de/xsd/netconvertConfiguration.xsd">

    <input>
        <node-files value="./converted_scenarios/scenario-factory/DEU_Meckenheim-1_4_I-1-1/DEU_Meckenheim-1_4_I-1-1.nod.xml"/>
        <edge-files value="./converted_scenarios/scenario-factory/DEU_Meckenheim-1_4_I-1-1/DEU_Meckenheim-1_4_I-1-1.edg.xml"/>
        <connection-files value="./converted_scenarios/scenario-factory/DEU_Meckenheim-1_4_I-1-1/DEU_Meckenheim-1_4_I-1-1.con.xml"/>
        <tllogic-files value="./converted_scenarios/scenario-factory/DEU_Meckenheim-1_4_I-1-1/DEU_Meckenheim-1_4_I-1-1.tll.xml"/>
        <type-files value="/home/zen/commonroad-interactive-benchmarks/install/commonroad-map-tool/crmapconverter/sumo_map/templates/DEU.typ.xml"/>
    </input>

    <output>
        <output-file value="./converted_scenarios/scenario-factory/DEU_Meckenheim-1_4_I-1-1/DEU_Meckenheim-1_4_I-1-1.net.xml"/>
    </output>

    <processing>
        <geometry.remove.keep-edges.explicit value="true"/>
        <geometry.avoid-overlap value="true"/>
        <offset.disable-normalization value="true"/>
    </processing>

    <junctions>
        <no-turnarounds value="true"/>
        <junctions.internal-link-detail value="20"/>
    </junctions>

    <report>
        <aggregate-warnings value="5"/>
    </report>

    <random_number>
        <seed value="1234"/>
    </random_number>

</configuration>
--><net xmlns:xsi="http://www.w3.org/2001/XMLSchema-instance" version="1.6" junctionCornerDetail="5" junctionLinkDetail="20" limitTurnSpeed="5.50" xsi:noNamespaceSchemaLocation="http://sumo.dlr.de/xsd/net_file.xsd">

    <location netOffset="0.00,0.00" convBoundary="49.31,727.76,185.42,944.20" origBoundary="49.31,727.76,185.42,944.20" projParameter="!"/>

    <type id="highway.bridleway" priority="1" speed="2.78" allow="pedestrian" oneway="1" width="2.00"/>
    <type id="highway.bus_guideway" priority="1" speed="27.78" allow="bus" oneway="1"/>
    <type id="highway.cycleway" priority="1" speed="8.33" allow="bicycle" oneway="0" width="1.00"/>
    <type id="highway.footway" priority="1" speed="2.78" allow="pedestrian" oneway="1" width="2.00"/>
    <type id="highway.ford" priority="1" speed="2.78" allow="army" oneway="0"/>
    <type id="highway.living_street" priority="2" speed="2.78" disallow="tram rail_urban rail rail_electric rail_fast ship" oneway="0"/>
    <type id="highway.motorway" priority="14" speed="39.44" allow="private emergency authority army vip passenger hov taxi bus coach delivery truck trailer motorcycle evehicle custom1 custom2" oneway="1"/>
    <type id="highway.motorway_link" priority="9" speed="22.22" allow="private emergency authority army vip passenger hov taxi bus coach delivery truck trailer motorcycle evehicle custom1 custom2" oneway="1"/>
    <type id="highway.path" priority="1" speed="2.78" allow="pedestrian bicycle" oneway="0" width="2.00"/>
    <type id="highway.pedestrian" priority="1" speed="2.78" allow="pedestrian" oneway="1" width="2.00"/>
    <type id="highway.primary" priority="12" speed="27.78" disallow="pedestrian tram rail_urban rail rail_electric rail_fast ship" oneway="0"/>
    <type id="highway.primary_link" priority="7" speed="22.22" disallow="pedestrian tram rail_urban rail rail_electric rail_fast ship" oneway="0"/>
    <type id="highway.raceway" priority="15" speed="83.33" allow="vip" oneway="0"/>
    <type id="highway.residential" priority="3" speed="13.89" disallow="pedestrian tram rail_urban rail rail_electric rail_fast ship" oneway="0"/>
    <type id="highway.secondary" priority="11" speed="27.78" disallow="pedestrian tram rail_urban rail rail_electric rail_fast ship" oneway="0"/>
    <type id="highway.secondary_link" priority="6" speed="22.22" disallow="pedestrian tram rail_urban rail rail_electric rail_fast ship" oneway="0"/>
    <type id="highway.service" priority="1" speed="5.56" allow="pedestrian delivery bicycle" oneway="0"/>
    <type id="highway.stairs" priority="1" speed="1.39" allow="pedestrian" oneway="1" width="2.00"/>
    <type id="highway.step" priority="1" speed="1.39" allow="pedestrian" oneway="1" width="2.00"/>
    <type id="highway.steps" priority="1" speed="1.39" allow="pedestrian" oneway="1" width="2.00"/>
    <type id="highway.tertiary" priority="10" speed="22.22" disallow="pedestrian tram rail_urban rail rail_electric rail_fast ship" oneway="0"/>
    <type id="highway.tertiary_link" priority="5" speed="22.22" disallow="pedestrian tram rail_urban rail rail_electric rail_fast ship" oneway="0"/>
    <type id="highway.track" priority="1" speed="5.56" allow="pedestrian motorcycle moped bicycle" oneway="0"/>
    <type id="highway.trunk" priority="13" speed="27.78" disallow="pedestrian bicycle tram rail_urban rail rail_electric rail_fast ship" oneway="0"/>
    <type id="highway.trunk_link" priority="8" speed="22.22" disallow="pedestrian bicycle tram rail_urban rail rail_electric rail_fast ship" oneway="0"/>
    <type id="highway.unclassified" priority="4" speed="13.89" disallow="pedestrian tram rail_urban rail rail_electric rail_fast ship" oneway="0"/>
    <type id="highway.unsurfaced" priority="1" speed="8.33" disallow="tram rail_urban rail rail_electric rail_fast ship" oneway="0"/>
    <type id="railway.highspeed" priority="21" speed="69.44" allow="rail_fast" oneway="1"/>
    <type id="railway.light_rail" priority="19" speed="27.78" allow="rail_urban" oneway="1"/>
    <type id="railway.preserved" priority="16" speed="27.78" allow="rail" oneway="1"/>
    <type id="railway.rail" priority="20" speed="44.44" allow="rail" oneway="1"/>
    <type id="railway.subway" priority="18" speed="27.78" allow="rail_urban" oneway="1"/>
    <type id="railway.tram" priority="17" speed="13.89" allow="tram" oneway="1"/>

    <edge id=":14_0" function="internal">
        <lane id=":14_0_0" index="0" disallow="pedestrian tram rail_urban rail rail_electric rail_fast ship" speed="36.11" length="2.97" width="3.50" shape="66.56,755.35 64.83,752.94"/>
    </edge>
    <edge id=":15_0" function="internal">
        <lane id=":15_0_0" index="0" disallow="pedestrian tram rail_urban rail rail_electric rail_fast ship" speed="36.11" length="0.27" width="3.50" shape="127.55,838.68 127.39,838.46"/>
    </edge>
    <edge id=":16_0" function="internal">
        <lane id=":16_0_0" index="0" disallow="pedestrian tram rail_urban rail rail_electric rail_fast ship" speed="36.11" length="2.99" width="3.50" shape="109.78,812.75 107.93,810.40"/>
    </edge>
    <edge id=":20_0" function="internal">
        <lane id=":20_0_0" index="0" disallow="pedestrian tram rail_urban rail rail_electric rail_fast ship" speed="36.11" length="3.30" width="3.50" shape="106.23,797.23 108.38,799.73"/>
    </edge>
    <edge id=":20_1" function="internal">
        <lane id=":20_1_0" index="0" disallow="pedestrian tram rail_urban rail rail_electric rail_fast ship" speed="36.11" length="3.55" width="3.50" shape="103.54,799.09 103.67,799.32 103.79,799.53 103.90,799.71 104.01,799.88 104.10,800.03 104.20,800.16 104.29,800.29 104.38,800.41 104.46,800.52 104.55,800.63 104.65,800.74 104.74,800.85 104.84,800.96 104.95,801.09 105.07,801.23 105.20,801.38 105.34,801.54 105.49,801.73 105.66,801.93"/>
    </edge>
    <edge id=":33_0" function="internal">
        <lane id=":33_0_0" index="0" disallow="pedestrian tram rail_urban rail rail_electric rail_fast ship" speed="36.11" length="2.84" width="3.49" shape="102.85,804.02 101.15,801.75"/>
    </edge>
    <edge id=":35_0" function="internal">
        <lane id=":35_0_0" index="0" disallow="pedestrian tram rail_urban rail rail_electric rail_fast ship" speed="10.36" length="31.25" width="3.50" shape="96.44,862.94 94.09,861.89 91.72,861.02 89.33,860.36 86.89,859.98 85.74,859.94 84.59,859.99 83.47,860.17 82.40,860.47 81.40,860.90 80.47,861.47 79.63,862.16 78.86,862.98 78.18,863.89 77.58,864.89 77.07,865.93 76.22,868.25 75.62,870.66 75.07,874.47"/>
    </edge>
    <edge id=":35_1" function="internal">
        <lane id=":35_1_0" index="0" disallow="pedestrian tram rail_urban rail rail_electric rail_fast ship" speed="15.73" length="38.57" width="3.50" shape="96.44,862.94 92.28,860.77 89.29,858.94 86.43,856.91 83.75,854.65 81.30,852.14 79.15,849.38 77.91,847.40 76.85,845.31 75.99,843.14 75.33,840.90 74.88,838.61 74.63,836.28 74.58,833.95"/>
    </edge>
    <edge id=":35_2" function="internal">
        <lane id=":35_2_0" index="0" disallow="pedestrian tram rail_urban rail rail_electric rail_fast ship" speed="14.92" length="34.59" width="3.50" shape="78.08,834.00 78.13,836.08 78.35,838.13 78.75,840.14 79.34,842.11 80.12,844.01 81.07,845.83 82.17,847.56 84.11,850.02 86.33,852.25 88.76,854.28 91.37,856.12 94.11,857.78 97.96,859.78"/>
    </edge>
    <edge id=":35_3" function="internal">
        <lane id=":35_3_0" index="0" disallow="pedestrian tram rail_urban rail rail_electric rail_fast ship" speed="36.11" length="40.59" width="3.50" shape="78.08,834.00 77.85,840.28 76.94,853.77 75.07,874.47"/>
    </edge>
    <edge id=":35_4" function="internal">
        <lane id=":35_4_0" index="0" disallow="pedestrian tram rail_urban rail rail_electric rail_fast ship" speed="36.11" length="40.31" width="3.50" shape="71.59,874.14 73.45,853.53 74.36,840.14 74.58,833.95"/>
    </edge>
    <edge id=":35_5" function="internal">
        <lane id=":35_5_0" index="0" disallow="pedestrian tram rail_urban rail rail_electric rail_fast ship" speed="11.42" length="38.27" width="3.50" shape="71.59,874.14 72.23,869.74 72.93,866.88 73.94,864.12 74.58,862.80 75.33,861.54 76.21,860.36 77.22,859.29 78.35,858.36 79.60,857.59 80.95,857.00 82.36,856.59 83.81,856.36 85.28,856.29 86.75,856.34 89.65,856.79 92.49,857.56 95.25,858.58 97.96,859.78"/>
    </edge>
    <edge id=":36_0" function="internal">
        <lane id=":36_0_0" index="0" disallow="pedestrian tram rail_urban rail rail_electric rail_fast ship" speed="7.67" length="18.24" width="3.50" shape="95.86,792.31 94.54,790.74 93.56,790.53 92.59,790.82 91.73,791.36 90.96,792.02 90.25,792.75 89.58,793.51 88.95,794.31 87.76,795.95 86.11,798.51 84.56,801.14 84.08,801.98"/>
    </edge>
    <edge id=":36_1" function="internal">
        <lane id=":36_1_0" index="0" disallow="pedestrian tram rail_urban rail rail_electric rail_fast ship" speed="36.11" length="23.65" width="3.50" shape="95.86,792.31 92.41,787.80 86.87,781.74 82.76,777.14 80.54,774.32"/>
    </edge>
    <edge id=":36_2" function="internal">
        <lane id=":36_2_0" index="0" disallow="pedestrian tram rail_urban rail rail_electric rail_fast ship" speed="36.11" length="23.38" width="3.50" shape="86.17,770.17 88.77,773.99 93.17,781.54 96.36,786.82 98.59,789.96"/>
    </edge>
    <edge id=":36_3" function="internal">
        <lane id=":36_3_0" index="0" disallow="pedestrian tram rail_urban rail rail_electric rail_fast ship" speed="36.11" length="23.39" width="3.48" shape="86.17,770.17 88.77,773.99 93.17,781.54 96.36,786.82 98.54,790.01"/>
    </edge>
    <edge id=":36_4" function="internal">
        <lane id=":36_4_0" index="0" disallow="pedestrian tram rail_urban rail rail_electric rail_fast ship" speed="14.56" length="31.64" width="3.50" shape="83.35,772.24 84.05,773.22 85.81,776.21 86.79,778.38 87.55,780.62 88.09,782.94 88.38,785.31 88.42,787.68 88.24,790.04 87.84,792.37 86.90,795.72 85.62,798.95 84.08,801.98"/>
    </edge>
    <edge id=":36_5" function="internal">
        <lane id=":36_5_0" index="0" disallow="pedestrian tram rail_urban rail rail_electric rail_fast ship" speed="13.67" length="27.77" width="3.50" shape="80.96,800.41 82.39,797.58 83.54,794.72 84.37,791.76 84.73,789.74 84.90,787.70 84.87,785.65 84.63,783.62 84.18,781.62 83.53,779.67 82.69,777.80 81.13,775.15 80.54,774.32"/>
    </edge>
    <edge id=":36_6" function="internal">
        <lane id=":36_6_0" index="0" disallow="pedestrian tram rail_urban rail rail_electric rail_fast ship" speed="9.21" length="24.81" width="3.50" shape="80.96,800.41 81.63,799.22 83.58,795.99 85.74,792.86 87.38,790.86 88.32,789.88 89.36,788.97 90.56,788.15 91.96,787.54 93.51,787.28 95.09,787.43 96.71,788.08 98.59,789.96"/>
    </edge>
    <edge id=":36_7" function="internal">
        <lane id=":36_7_0" index="0" disallow="pedestrian tram rail_urban rail rail_electric rail_fast ship" speed="8.85" length="24.81" width="3.48" shape="80.96,800.41 81.63,799.22 83.58,795.99 85.74,792.86 87.38,790.86 88.32,789.88 89.36,788.97 90.56,788.15 91.96,787.54 93.51,787.28 95.09,787.43 96.71,788.08 98.54,790.01"/>
    </edge>
    <edge id=":37_0" function="internal">
        <lane id=":37_0_0" index="0" disallow="pedestrian tram rail_urban rail rail_electric rail_fast ship" speed="36.11" length="7.89" width="3.50" shape="136.25,850.27 131.50,843.97"/>
    </edge>
    <edge id=":37_1" function="internal">
        <lane id=":37_1_0" index="0" disallow="pedestrian tram rail_urban rail rail_electric rail_fast ship" speed="36.11" length="8.06" width="3.50" shape="139.92,837.69 144.68,844.20"/>
    </edge>
    <edge id=":37_2" function="internal">
        <lane id=":37_2_0" index="0" disallow="pedestrian tram rail_urban rail rail_electric rail_fast ship" speed="36.11" length="7.94" width="3.50" shape="134.31,841.88 139.11,848.21"/>
    </edge>
    <edge id=":39_0" function="internal">
        <lane id=":39_0_0" index="0" disallow="pedestrian tram rail_urban rail rail_electric rail_fast ship" speed="36.11" length="8.07" width="3.50" shape="122.50,816.68 127.89,822.69"/>
        <lane id=":39_0_1" index="1" disallow="pedestrian tram rail_urban rail rail_electric rail_fast ship" speed="36.11" length="8.02" width="3.50" shape="121.60,817.40 126.02,824.09"/>
        <lane id=":39_0_2" index="2" disallow="pedestrian tram rail_urban rail rail_electric rail_fast ship" speed="36.11" length="7.91" width="3.50" shape="118.87,819.58 123.22,826.19"/>
    </edge>
    <edge id=":40_0" function="internal">
        <lane id=":40_0_0" index="0" disallow="pedestrian tram rail_urban rail rail_electric rail_fast ship" speed="36.11" length="3.17" width="3.50" shape="67.56,750.74 69.41,753.31"/>
    </edge>
    <edge id=":40_1" function="internal">
        <lane id=":40_1_0" index="0" disallow="pedestrian tram rail_urban rail rail_electric rail_fast ship" speed="36.11" length="2.99" width="3.50" shape="70.44,748.84 72.23,751.24"/>
    </edge>

    <edge id="101" from="16" to="33" priority="3" type="highway.residential" spreadType="center" length="8.16">
        <lane id="101_0" index="0" disallow="pedestrian tram rail_urban rail rail_electric rail_fast ship" speed="36.11" length="8.16" width="3.50" customShape="1" shape="107.93,810.40 105.41,807.24 102.85,804.02"/>
    </edge>
    <edge id="1629" from="35" to="36" priority="3" type="highway.residential" spreadType="center" length="34.49" shape="80.54,856.42 85.31,788.09">
        <lane id="1629_0" index="0" disallow="pedestrian tram rail_urban rail rail_electric rail_fast ship" speed="36.11" length="34.49" width="3.50" customShape="1" shape="74.58,833.95 74.74,828.18 75.18,821.39 75.85,816.19 76.77,811.56 78.03,807.02 79.36,803.60 80.96,800.41"/>
    </edge>
    <edge id="163" from="40" to="36" priority="3" type="highway.residential" spreadType="center" length="23.52" shape="69.92,751.06 90.23,786.80">
        <lane id="163_0" index="0" disallow="pedestrian tram rail_urban rail rail_electric rail_fast ship" speed="36.11" length="23.52" width="3.50" customShape="1" shape="72.23,751.24 78.75,760.10 86.18,770.18"/>
        <lane id="163_1" index="1" disallow="pedestrian tram rail_urban rail rail_electric rail_fast ship" speed="36.11" length="23.52" width="3.50" customShape="1" shape="69.41,753.31 75.93,762.17 83.36,772.25"/>
    </edge>
    <edge id="1630" from="36" to="35" priority="3" type="highway.residential" spreadType="center" length="32.95" shape="88.80,788.34 84.03,856.66">
        <lane id="1630_0" index="0" disallow="pedestrian tram rail_urban rail rail_electric rail_fast ship" speed="36.11" length="32.95" width="3.50" customShape="1" shape="84.08,801.98 82.53,805.07 81.31,808.25 80.13,812.55 79.27,816.94 78.65,821.90 78.23,828.44 78.08,834.04"/>
    </edge>
    <edge id="1632" from="29" to="35" priority="3" type="highway.residential" spreadType="center" length="70.00" shape="65.46,943.83 80.57,856.21">
        <lane id="1632_0" index="0" disallow="pedestrian tram rail_urban rail rail_electric rail_fast ship" speed="36.11" length="70.00" width="3.50" customShape="1" shape="65.46,943.83 68.31,908.88 71.59,874.10"/>
    </edge>
    <edge id="1633" from="35" to="8" priority="3" type="highway.residential" spreadType="center" length="70.00" shape="84.02,856.80 68.95,944.20">
        <lane id="1633_0" index="0" disallow="pedestrian tram rail_urban rail rail_electric rail_fast ship" speed="36.11" length="70.00" width="3.50" customShape="1" shape="75.07,874.47 71.82,908.99 68.95,944.20"/>
    </edge>
    <edge id="165" from="36" to="14" priority="3" type="highway.residential" spreadType="center" length="23.56" shape="85.57,789.19 65.68,754.16">
        <lane id="165_0" index="0" disallow="pedestrian tram rail_urban rail rail_electric rail_fast ship" speed="36.11" length="23.56" width="3.50" customShape="1" shape="80.54,774.32 73.12,764.25 66.56,755.35"/>
    </edge>
    <edge id="1753" from="21" to="35" priority="3" type="highway.residential" spreadType="center" length="70.04" shape="138.23,914.61 81.03,857.75">
        <lane id="1753_0" index="0" disallow="pedestrian tram rail_urban rail rail_electric rail_fast ship" speed="36.11" length="70.04" width="3.50" customShape="1" shape="138.23,914.61 136.28,907.56 134.27,900.37 132.68,895.66 130.95,891.53 129.09,888.01 127.19,885.09 125.02,882.36 121.95,879.10 118.62,876.11 114.67,873.09 110.08,870.09 104.45,866.92 96.40,862.92"/>
    </edge>
    <edge id="1754" from="35" to="9" priority="3" type="highway.residential" spreadType="center" length="70.00" shape="83.48,855.26 140.81,910.81">
        <lane id="1754_0" index="0" disallow="pedestrian tram rail_urban rail rail_electric rail_fast ship" speed="36.11" length="70.00" width="3.50" customShape="1" shape="97.96,859.78 106.14,863.86 111.95,867.13 116.70,870.24 120.82,873.39 124.31,876.52 127.53,879.92 129.84,882.79 131.88,885.87 133.88,889.56 135.74,893.87 137.43,898.75 139.51,906.10 140.81,910.81"/>
    </edge>
    <edge id="2812" from="41" to="40" priority="3" type="highway.residential" spreadType="center" length="27.75">
        <lane id="2812_0" index="0" disallow="pedestrian tram rail_urban rail rail_electric rail_fast ship" speed="36.11" length="27.75" width="3.50" customShape="1" shape="52.03,727.76 55.21,731.95 59.30,738.06 65.51,747.80 67.56,750.74"/>
    </edge>
    <edge id="2813" from="41" to="40" priority="3" type="highway.residential" spreadType="center" length="27.99">
        <lane id="2813_0" index="0" disallow="pedestrian tram rail_urban rail rail_electric rail_fast ship" speed="36.11" length="27.99" width="3.50" customShape="1" shape="52.03,727.76 56.66,733.16 66.24,743.69 70.11,748.40 70.44,748.84"/>
    </edge>
    <edge id="29" from="33" to="36" priority="3" type="highway.residential" spreadType="center" length="10.83" shape="101.96,802.91 85.83,789.50">
        <lane id="29_0" index="0" disallow="pedestrian tram rail_urban rail rail_electric rail_fast ship" speed="36.11" length="10.83" width="3.49" customShape="1" shape="101.15,801.75 100.71,801.13 99.12,798.28 97.16,794.39 95.86,792.31"/>
    </edge>
    <edge id="3040" from="37" to="38" priority="3" type="highway.residential" spreadType="center" length="65.96">
        <lane id="3040_0" index="0" disallow="pedestrian tram rail_urban rail rail_electric rail_fast ship" speed="36.11" length="65.96" width="3.50" customShape="1" shape="144.68,844.20 149.09,850.32 157.28,862.42 167.97,878.30 174.44,887.31 180.00,894.47 182.92,897.90"/>
    </edge>
    <edge id="3043" from="15" to="16" priority="3" type="highway.residential" spreadType="center" length="31.17">
        <lane id="3043_0" index="0" disallow="pedestrian tram rail_urban rail rail_electric rail_fast ship" speed="36.11" length="31.17" width="3.50" customShape="1" shape="127.39,838.46 123.67,833.22 114.04,818.62 110.20,813.30 109.78,812.75"/>
    </edge>
    <edge id="3377" from="36" to="20" priority="3" type="highway.residential" spreadType="center" length="10.56" shape="87.95,786.76 106.09,799.66">
        <lane id="3377_0" index="0" disallow="pedestrian tram rail_urban rail rail_electric rail_fast ship" speed="36.11" length="10.56" width="3.50" customShape="1" shape="98.59,789.96 99.93,791.52 102.60,793.94 105.70,796.65 106.23,797.23"/>
    </edge>
    <edge id="3378" from="36" to="20" priority="3" type="highway.residential" spreadType="center" length="10.37">
        <lane id="3378_0" index="0" disallow="pedestrian tram rail_urban rail rail_electric rail_fast ship" speed="36.11" length="10.37" width="3.48" customShape="1" shape="98.54,790.01 100.09,792.49 102.06,796.40 103.54,799.09"/>
    </edge>
    <edge id="3718" from="14" to="25" priority="3" type="highway.residential" spreadType="center" length="27.75">
        <lane id="3718_0" index="0" disallow="pedestrian tram rail_urban rail rail_electric rail_fast ship" speed="36.11" length="27.75" width="3.50" customShape="1" shape="64.83,752.94 62.65,749.82 56.45,740.09 52.41,734.05 49.31,729.95"/>
    </edge>
    <edge id="539" from="39" to="37" priority="3" type="highway.residential" spreadType="center" length="19.20" shape="122.33,821.88 163.08,871.94">
        <lane id="539_0" index="0" disallow="pedestrian tram rail_urban rail rail_electric rail_fast ship" speed="36.11" length="19.21" width="3.50" customShape="1" shape="128.42,822.30 139.10,836.60 139.92,837.69"/>
        <lane id="539_1" index="1" disallow="pedestrian tram rail_urban rail rail_electric rail_fast ship" speed="36.11" length="19.21" width="3.50" customShape="1" shape="125.62,824.40 136.30,838.70 137.11,839.79"/>
        <lane id="539_2" index="2" disallow="pedestrian tram rail_urban rail rail_electric rail_fast ship" speed="36.11" length="19.20" width="3.50" customShape="1" shape="122.82,826.50 133.49,840.79 134.31,841.88"/>
    </edge>
    <edge id="542" from="37" to="15" priority="3" type="highway.residential" spreadType="center" length="6.60" shape="157.43,876.06 127.47,838.57">
        <lane id="542_0" index="0" disallow="pedestrian tram rail_urban rail rail_electric rail_fast ship" speed="36.11" length="6.60" width="3.50" customShape="1" shape="131.50,843.97 130.69,842.88 127.55,838.68"/>
    </edge>
    <edge id="843" from="37" to="28" priority="3" type="highway.residential" spreadType="center" length="76.92" shape="160.14,873.85 185.42,909.65">
        <lane id="843_0" index="0" disallow="pedestrian tram rail_urban rail rail_electric rail_fast ship" speed="36.11" length="76.92" width="3.50" customShape="1" shape="140.69,847.07 182.41,905.46 182.50,905.59 185.42,909.65"/>
    </edge>
    <edge id="844" from="32" to="37" priority="3" type="highway.residential" spreadType="center" length="76.91" shape="182.57,911.68 157.29,875.87">
        <lane id="844_0" index="0" disallow="pedestrian tram rail_urban rail rail_electric rail_fast ship" speed="36.11" length="76.91" width="3.50" customShape="1" shape="182.57,911.68 179.65,907.62 179.57,907.50 137.85,849.11"/>
    </edge>
    <edge id="99" from="20" to="39" priority="3" type="highway.residential" spreadType="center" length="22.03">
        <lane id="99_0" index="0" disallow="pedestrian tram rail_urban rail rail_electric rail_fast ship" speed="36.11" length="22.06" width="3.50" acceleration="1" customShape="1" shape="108.38,799.73 110.89,802.88 122.12,816.99"/>
        <lane id="99_1" index="1" disallow="pedestrian tram rail_urban rail rail_electric rail_fast ship" speed="36.11" length="22.03" width="3.50" customShape="1" shape="105.66,801.93 108.15,805.06 119.38,819.17"/>
    </edge>

    <junction id="14" type="priority" x="65.68" y="754.16" incLanes="165_0" intLanes=":14_0_0" shape="65.16,756.39 67.97,754.32 66.27,751.94 63.40,753.94" rightOfWay="edgePriority">
        <request index="0" response="0" foes="0" cont="0"/>
    </junction>
    <junction id="15" type="priority" x="127.47" y="838.57" incLanes="542_0" intLanes=":15_0_0" shape="126.15,839.73 128.95,837.64 128.82,837.45 125.96,839.48" rightOfWay="edgePriority">
        <request index="0" response="0" foes="0" cont="0"/>
    </junction>
    <junction id="16" type="priority" x="108.86" y="811.57" incLanes="3043_0" intLanes=":16_0_0" shape="108.40,813.83 111.16,811.68 109.30,809.31 106.56,811.49" rightOfWay="edgePriority">
        <request index="0" response="0" foes="0" cont="0"/>
    </junction>
    <junction id="20" type="priority" x="106.09" y="799.66" incLanes="3377_0 3378_0" intLanes=":20_0_0 :20_1_0" shape="104.30,803.04 109.74,798.63 108.90,797.77 108.56,797.52 108.20,797.28 107.80,796.96 107.31,796.48 102.11,800.08 102.80,801.22 103.10,801.61 103.41,801.98 103.80,802.42" rightOfWay="edgePriority">
        <request index="0" response="00" foes="00" cont="0"/>
        <request index="1" response="00" foes="00" cont="0"/>
    </junction>
    <junction id="21" type="dead_end" x="138.23" y="914.61" incLanes="" intLanes="" shape="139.92,914.15 136.55,915.08" rightOfWay="edgePriority"/>
    <junction id="25" type="dead_end" x="49.31" y="729.95" incLanes="3718_0" intLanes="" shape="47.91,731.01 50.70,728.90" rightOfWay="edgePriority"/>
    <junction id="28" type="dead_end" x="185.42" y="909.65" incLanes="843_0" intLanes="" shape="186.84,908.63 184.00,910.67" rightOfWay="edgePriority"/>
    <junction id="29" type="dead_end" x="65.46" y="943.83" incLanes="" intLanes="" shape="67.20,943.97 63.72,943.69" rightOfWay="edgePriority"/>
    <junction id="32" type="dead_end" x="182.57" y="911.68" incLanes="" intLanes="" shape="183.99,910.66 181.14,912.70" rightOfWay="edgePriority"/>
    <junction id="33" type="priority" x="101.96" y="802.91" incLanes="101_0" intLanes=":33_0_0" shape="101.48,805.11 104.22,802.93 102.57,800.75 99.72,802.76" rightOfWay="edgePriority">
        <request index="0" response="0" foes="0" cont="0"/>
    </junction>
    <junction id="35" type="priority" x="82.29" y="856.54" incLanes="1753_0 1630_0 1632_0" intLanes=":35_0_0 :35_1_0 :35_2_0 :35_3_0 :35_4_0 :35_5_0" shape="95.62,864.48 98.74,858.22 92.86,854.88 88.06,851.27 84.37,847.38 81.76,843.22 80.25,838.79 79.83,834.09 72.84,833.90 69.85,873.97 76.81,874.63 77.82,869.17 79.68,865.22 82.39,862.78 85.95,861.84 90.36,862.41">
        <request index="0" response="001000" foes="001000" cont="0"/>
        <request index="1" response="111000" foes="111000" cont="0"/>
        <request index="2" response="000000" foes="100000" cont="0"/>
        <request index="3" response="000000" foes="100011" cont="0"/>
        <request index="4" response="000000" foes="000010" cont="0"/>
        <request index="5" response="001100" foes="001110" cont="0"/>
    </junction>
    <junction id="36" type="priority" x="87.05" y="788.26" incLanes="29_0 163_0 163_1 1629_0" intLanes=":36_0_0 :36_1_0 :36_2_0 :36_3_0 :36_4_0 :36_5_0 :36_6_0 :36_7_0" shape="94.52,793.45 99.92,788.82 96.86,784.95 94.90,781.88 93.50,779.18 92.17,776.44 90.37,773.23 87.58,769.13 79.13,775.36 81.20,778.83 82.45,782.53 82.90,786.46 82.54,790.62 81.38,795.00 79.40,799.62 85.65,802.77 87.72,798.89 89.55,795.95 91.15,793.93 92.51,792.84 93.63,792.68">
        <request index="0" response="00000000" foes="00010000" cont="0"/>
        <request index="1" response="00000000" foes="11110000" cont="0"/>
        <request index="2" response="00000000" foes="01000000" cont="0"/>
        <request index="3" response="00000000" foes="11000000" cont="0"/>
        <request index="4" response="00000011" foes="11000011" cont="0"/>
        <request index="5" response="00000010" foes="00000010" cont="0"/>
        <request index="6" response="00011110" foes="00011110" cont="0"/>
        <request index="7" response="00011010" foes="00011010" cont="0"/>
    </junction>
    <junction id="37" type="priority" x="158.76" y="874.91" incLanes="844_0 539_0 539_1 539_2" intLanes=":37_0_0 :37_1_0 :37_2_0" shape="136.43,850.14 146.10,843.18 141.32,836.65 130.10,845.02 132.30,847.06 133.29,847.56 134.28,848.06 135.31,848.83">
        <request index="0" response="000" foes="000" cont="0"/>
        <request index="1" response="000" foes="000" cont="0"/>
        <request index="2" response="000" foes="000" cont="0"/>
    </junction>
    <junction id="38" type="dead_end" x="182.92" y="897.90" incLanes="3040_0" intLanes="" shape="184.25,896.77 181.58,899.03"/>
    <junction id="39" type="priority" x="122.33" y="821.88" incLanes="99_0 99_1" intLanes=":39_0_0 :39_0_1 :39_0_2" shape="121.42,827.54 129.82,821.25 127.65,819.10 126.69,818.54 125.72,817.98 124.68,817.19 123.49,815.89 118.02,820.26 119.48,822.83 119.75,823.87 120.02,824.92 120.50,826.11">
        <request index="0" response="000" foes="000" cont="0"/>
        <request index="1" response="000" foes="000" cont="0"/>
        <request index="2" response="000" foes="000" cont="0"/>
    </junction>
    <junction id="40" type="priority" x="69.92" y="751.06" incLanes="2812_0 2813_0" intLanes=":40_0_0 :40_1_0" shape="68.00,754.35 73.64,750.20 71.82,747.76 66.13,751.74">
        <request index="0" response="00" foes="00" cont="0"/>
        <request index="1" response="00" foes="00" cont="0"/>
    </junction>
    <junction id="41" type="dead_end" x="52.03" y="727.76" incLanes="" intLanes="" shape="50.64,728.81 53.42,726.70 50.70,728.89 53.36,726.62"/>
    <junction id="8" type="dead_end" x="68.95" y="944.20" incLanes="1633_0" intLanes="" shape="70.69,944.34 67.20,944.05" rightOfWay="edgePriority"/>
    <junction id="9" type="dead_end" x="140.81" y="910.81" incLanes="1754_0" intLanes="" shape="142.50,910.35 139.12,911.28" rightOfWay="edgePriority"/>
