<routes>
	<vehicle depart="0.1" departLane="0" departPos="47.133295334549295" departSpeed="1.4882977" id="311" type="bicycle">
		<route edges="5648 5651"/>
	</vehicle>
	<vehicle depart="0.1" departLane="0" departPos="62.743594469807974" departSpeed="4.3543096" id="35" type="passenger">
		<route edges="5648 5784"/>
	</vehicle>
	<vehicle depart="0.1" departLane="0" departPos="34.83684601628415" departSpeed="0.13326559" id="312" type="passenger">
		<route edges="5648 5651"/>
	</vehicle>
	<vehicle depart="0.1" departLane="0" departPos="55.244554279172675" departSpeed="1.6238311" id="316" type="passenger">
		<route edges="5648 5651"/>
	</vehicle>
	<vehicle depart="0.1" departLane="0" departPos="15.002941566472492" departSpeed="1.3679493" id="325" type="passenger">
		<route edges="5648 5651"/>
	</vehicle>
	<vehicle depart="0.1" departLane="0" departPos="28.261255920325993" departSpeed="9.5256204" id="351" type="passenger">
		<route edges=":25_5 5784 5811"/>
	</vehicle>
	<vehicle depart="0.1" departLane="0" departPos="57.242337899344" departSpeed="11.686123" id="353" type="passenger">
		<route edges="5650 5647"/>
	</vehicle>
	<vehicle depart="0.1" departLane="0" departPos="39.84151589768793" departSpeed="0.93109542" id="34" type="motorcycle">
		<route edges="5648 5651"/>
	</vehicle>
	<vehicle depart="0.1" departLane="0" departPos="41.11348672551258" departSpeed="10.729666" id="349" type="motorcycle">
		<route edges=":25_2 5784 5792"/>
	</vehicle>
</routes>
