<!-- generated on Tue Feb  9 22:17:16 2021 by Eclipse SUMO netconvert Version 1.8.0
<configuration xmlns:xsi="http://www.w3.org/2001/XMLSchema-instance" xsi:noNamespaceSchemaLocation="http://sumo.dlr.de/xsd/netconvertConfiguration.xsd">

    <input>
        <node-files value="./converted_scenarios/scenario-factory/BEL_Putte-1_2_I-1-1/BEL_Putte-1_2_I-1-1.nod.xml"/>
        <edge-files value="./converted_scenarios/scenario-factory/BEL_Putte-1_2_I-1-1/BEL_Putte-1_2_I-1-1.edg.xml"/>
        <connection-files value="./converted_scenarios/scenario-factory/BEL_Putte-1_2_I-1-1/BEL_Putte-1_2_I-1-1.con.xml"/>
        <tllogic-files value="./converted_scenarios/scenario-factory/BEL_Putte-1_2_I-1-1/BEL_Putte-1_2_I-1-1.tll.xml"/>
        <type-files value="/home/zen/commonroad-interactive-benchmarks/install/commonroad-map-tool/crmapconverter/sumo_map/templates/DEU.typ.xml"/>
    </input>

    <output>
        <output-file value="./converted_scenarios/scenario-factory/BEL_Putte-1_2_I-1-1/BEL_Putte-1_2_I-1-1.net.xml"/>
    </output>

    <processing>
        <geometry.remove.keep-edges.explicit value="true"/>
        <geometry.avoid-overlap value="true"/>
        <offset.disable-normalization value="true"/>
    </processing>

    <junctions>
        <no-turnarounds value="true"/>
        <junctions.internal-link-detail value="20"/>
    </junctions>

    <report>
        <aggregate-warnings value="5"/>
    </report>

    <random_number>
        <seed value="1234"/>
    </random_number>

</configuration>
--><net xmlns:xsi="http://www.w3.org/2001/XMLSchema-instance" version="1.6" junctionCornerDetail="5" junctionLinkDetail="20" limitTurnSpeed="5.50" xsi:noNamespaceSchemaLocation="http://sumo.dlr.de/xsd/net_file.xsd">

    <location netOffset="0.00,0.00" convBoundary="-215.21,-1023.62,38.45,-857.98" origBoundary="-215.21,-1023.62,38.45,-857.98" projParameter="!"/>

    <type id="highway.bridleway" priority="1" speed="2.78" allow="pedestrian" oneway="1" width="2.00"/>
    <type id="highway.bus_guideway" priority="1" speed="27.78" allow="bus" oneway="1"/>
    <type id="highway.cycleway" priority="1" speed="8.33" allow="bicycle" oneway="0" width="1.00"/>
    <type id="highway.footway" priority="1" speed="2.78" allow="pedestrian" oneway="1" width="2.00"/>
    <type id="highway.ford" priority="1" speed="2.78" allow="army" oneway="0"/>
    <type id="highway.living_street" priority="2" speed="2.78" disallow="tram rail_urban rail rail_electric rail_fast ship" oneway="0"/>
    <type id="highway.motorway" priority="14" speed="39.44" allow="private emergency authority army vip passenger hov taxi bus coach delivery truck trailer motorcycle evehicle custom1 custom2" oneway="1"/>
    <type id="highway.motorway_link" priority="9" speed="22.22" allow="private emergency authority army vip passenger hov taxi bus coach delivery truck trailer motorcycle evehicle custom1 custom2" oneway="1"/>
    <type id="highway.path" priority="1" speed="2.78" allow="pedestrian bicycle" oneway="0" width="2.00"/>
    <type id="highway.pedestrian" priority="1" speed="2.78" allow="pedestrian" oneway="1" width="2.00"/>
    <type id="highway.primary" priority="12" speed="27.78" disallow="pedestrian tram rail_urban rail rail_electric rail_fast ship" oneway="0"/>
    <type id="highway.primary_link" priority="7" speed="22.22" disallow="pedestrian tram rail_urban rail rail_electric rail_fast ship" oneway="0"/>
    <type id="highway.raceway" priority="15" speed="83.33" allow="vip" oneway="0"/>
    <type id="highway.residential" priority="3" speed="13.89" disallow="pedestrian tram rail_urban rail rail_electric rail_fast ship" oneway="0"/>
    <type id="highway.secondary" priority="11" speed="27.78" disallow="pedestrian tram rail_urban rail rail_electric rail_fast ship" oneway="0"/>
    <type id="highway.secondary_link" priority="6" speed="22.22" disallow="pedestrian tram rail_urban rail rail_electric rail_fast ship" oneway="0"/>
    <type id="highway.service" priority="1" speed="5.56" allow="pedestrian delivery bicycle" oneway="0"/>
    <type id="highway.stairs" priority="1" speed="1.39" allow="pedestrian" oneway="1" width="2.00"/>
    <type id="highway.step" priority="1" speed="1.39" allow="pedestrian" oneway="1" width="2.00"/>
    <type id="highway.steps" priority="1" speed="1.39" allow="pedestrian" oneway="1" width="2.00"/>
    <type id="highway.tertiary" priority="10" speed="22.22" disallow="pedestrian tram rail_urban rail rail_electric rail_fast ship" oneway="0"/>
    <type id="highway.tertiary_link" priority="5" speed="22.22" disallow="pedestrian tram rail_urban rail rail_electric rail_fast ship" oneway="0"/>
    <type id="highway.track" priority="1" speed="5.56" allow="pedestrian motorcycle moped bicycle" oneway="0"/>
    <type id="highway.trunk" priority="13" speed="27.78" disallow="pedestrian bicycle tram rail_urban rail rail_electric rail_fast ship" oneway="0"/>
    <type id="highway.trunk_link" priority="8" speed="22.22" disallow="pedestrian bicycle tram rail_urban rail rail_electric rail_fast ship" oneway="0"/>
    <type id="highway.unclassified" priority="4" speed="13.89" disallow="pedestrian tram rail_urban rail rail_electric rail_fast ship" oneway="0"/>
    <type id="highway.unsurfaced" priority="1" speed="8.33" disallow="tram rail_urban rail rail_electric rail_fast ship" oneway="0"/>
    <type id="railway.highspeed" priority="21" speed="69.44" allow="rail_fast" oneway="1"/>
    <type id="railway.light_rail" priority="19" speed="27.78" allow="rail_urban" oneway="1"/>
    <type id="railway.preserved" priority="16" speed="27.78" allow="rail" oneway="1"/>
    <type id="railway.rail" priority="20" speed="44.44" allow="rail" oneway="1"/>
    <type id="railway.subway" priority="18" speed="27.78" allow="rail_urban" oneway="1"/>
    <type id="railway.tram" priority="17" speed="13.89" allow="tram" oneway="1"/>

    <edge id=":25_0" function="internal">
        <lane id=":25_0_0" index="0" disallow="pedestrian tram rail_urban rail rail_electric rail_fast ship" speed="36.11" length="59.33" width="3.50" shape="-107.33,-951.34 -110.57,-951.66 -113.66,-952.26 -117.69,-953.40 -128.57,-957.20 -132.60,-958.34 -135.69,-958.92 -138.82,-959.14 -140.92,-959.04 -142.98,-958.72 -145.01,-958.17 -164.35,-951.51"/>
    </edge>
    <edge id=":25_1" function="internal">
        <lane id=":25_1_0" index="0" disallow="pedestrian tram rail_urban rail rail_electric rail_fast ship" speed="11.94" length="55.84" width="3.50" shape="-107.33,-951.34 -113.87,-951.83 -118.11,-952.45 -120.21,-952.89 -122.28,-953.46 -124.30,-954.20 -126.20,-955.19 -127.86,-956.53 -129.01,-958.32 -129.34,-960.41 -128.91,-962.51 -128.01,-964.45 -126.83,-966.24 -125.50,-967.92 -124.05,-969.50 -120.94,-972.47 -117.66,-975.23 -112.52,-979.12 -109.01,-981.58"/>
    </edge>
    <edge id=":25_2" function="internal">
        <lane id=":25_2_0" index="0" disallow="pedestrian tram rail_urban rail rail_electric rail_fast ship" speed="10.79" length="45.27" width="3.50" shape="-106.96,-978.74 -110.12,-976.53 -114.63,-973.13 -117.48,-970.75 -120.18,-968.20 -121.40,-966.89 -122.53,-965.51 -123.51,-964.09 -124.25,-962.65 -124.62,-961.26 -124.55,-960.05 -123.98,-959.01 -122.95,-958.09 -121.56,-957.31 -119.98,-956.69 -118.28,-956.20 -116.53,-955.82 -112.88,-955.27 -107.24,-954.84"/>
    </edge>
    <edge id=":25_3" function="internal">
        <lane id=":25_3_0" index="0" disallow="pedestrian tram rail_urban rail rail_electric rail_fast ship" speed="36.11" length="63.78" width="3.50" shape="-106.96,-978.73 -114.09,-974.07 -121.33,-969.73 -128.73,-965.70 -136.31,-961.98 -144.03,-958.60 -164.35,-951.51"/>
    </edge>
    <edge id=":25_4" function="internal">
        <lane id=":25_4_0" index="0" disallow="pedestrian tram rail_urban rail rail_electric rail_fast ship" speed="36.11" length="62.92" width="3.50" shape="-165.65,-954.78 -145.38,-961.83 -137.77,-965.16 -130.33,-968.81 -123.06,-972.77 -115.95,-977.03 -109.01,-981.58"/>
    </edge>
    <edge id=":25_5" function="internal">
        <lane id=":25_5_0" index="0" disallow="pedestrian tram rail_urban rail rail_electric rail_fast ship" speed="36.11" length="60.70" width="3.50" shape="-165.65,-954.78 -146.17,-961.47 -143.95,-962.08 -141.66,-962.44 -139.34,-962.56 -135.95,-962.34 -132.63,-961.75 -128.39,-960.59 -117.28,-956.82 -113.29,-955.71 -110.30,-955.14 -107.24,-954.84"/>
    </edge>
    <edge id=":26_0" function="internal">
        <lane id=":26_0_0" index="0" disallow="pedestrian tram rail_urban rail rail_electric rail_fast ship" speed="18.84" length="48.87" width="3.50" shape="-43.85,-932.35 -44.52,-933.15 -48.04,-937.13 -51.77,-940.86 -54.92,-943.62 -58.25,-946.16 -61.75,-948.43 -64.47,-949.91 -67.30,-951.18 -70.20,-952.22 -73.18,-953.00 -76.21,-953.50 -79.26,-953.72 -82.33,-953.64 -85.44,-953.27"/>
    </edge>
    <edge id=":26_1" function="internal">
        <lane id=":26_1_0" index="0" disallow="pedestrian tram rail_urban rail rail_electric rail_fast ship" speed="16.21" length="51.74" width="3.50" shape="-31.17,-956.82 -32.25,-956.81 -36.64,-956.53 -39.85,-956.07 -43.01,-955.37 -46.08,-954.40 -49.03,-953.15 -51.83,-951.61 -54.43,-949.77 -56.82,-947.65 -58.96,-945.28 -60.85,-942.70 -62.49,-939.92 -63.89,-937.01 -65.07,-933.97 -66.05,-930.86 -67.08,-926.57"/>
    </edge>
    <edge id=":26_2" function="internal">
        <lane id=":26_2_0" index="0" disallow="pedestrian tram rail_urban rail rail_electric rail_fast ship" speed="36.11" length="54.44" width="3.50" shape="-31.17,-956.82 -42.49,-956.66 -55.84,-956.18 -67.10,-955.44 -77.29,-954.42 -85.44,-953.27"/>
    </edge>
    <edge id=":26_3" function="internal">
        <lane id=":26_3_0" index="0" disallow="pedestrian tram rail_urban rail rail_electric rail_fast ship" speed="36.11" length="54.92" width="3.50" shape="-85.95,-956.74 -77.74,-957.89 -67.43,-958.92 -56.06,-959.67 -42.60,-960.16 -31.20,-960.32"/>
    </edge>
    <edge id=":26_4" function="internal">
        <lane id=":26_4_0" index="0" disallow="pedestrian tram rail_urban rail rail_electric rail_fast ship" speed="19.51" length="52.48" width="3.50" shape="-85.95,-956.74 -82.62,-957.13 -79.27,-957.22 -75.93,-957.00 -72.63,-956.47 -69.38,-955.64 -66.22,-954.53 -63.16,-953.18 -60.20,-951.59 -56.45,-949.18 -52.89,-946.48 -49.52,-943.55 -45.57,-939.61 -41.86,-935.43 -41.15,-934.57"/>
    </edge>
    <edge id=":26_5" function="internal">
        <lane id=":26_5_0" index="0" disallow="pedestrian tram rail_urban rail rail_electric rail_fast ship" speed="12.41" length="44.93" width="3.50" shape="-85.95,-956.74 -83.07,-957.09 -80.18,-957.19 -77.29,-956.94 -75.87,-956.65 -74.49,-956.23 -73.15,-955.67 -71.89,-954.96 -70.73,-954.10 -69.68,-953.10 -68.76,-951.97 -67.99,-950.75 -67.34,-949.46 -66.82,-948.11 -66.41,-946.72 -65.87,-943.87 -65.63,-940.98 -65.68,-936.64 -66.11,-932.31 -67.08,-926.57"/>
    </edge>
    <edge id=":26_6" function="internal">
        <lane id=":26_6_0" index="0" disallow="pedestrian tram rail_urban rail rail_electric rail_fast ship" speed="11.44" length="37.93" width="3.50" shape="-70.51,-927.27 -69.63,-932.43 -69.24,-936.28 -69.16,-940.12 -69.33,-942.61 -69.75,-945.06 -70.06,-946.20 -70.46,-947.32 -70.95,-948.38 -71.52,-949.36 -72.20,-950.26 -72.97,-951.06 -73.83,-951.75 -74.78,-952.32 -75.80,-952.79 -76.89,-953.15 -78.00,-953.41 -80.43,-953.65 -82.89,-953.59 -85.44,-953.27"/>
    </edge>
    <edge id=":26_7" function="internal">
        <lane id=":26_7_0" index="0" disallow="pedestrian tram rail_urban rail rail_electric rail_fast ship" speed="16.94" length="56.54" width="3.50" shape="-70.51,-927.27 -69.40,-931.87 -68.35,-935.24 -67.06,-938.53 -65.53,-941.72 -63.72,-944.75 -61.64,-947.61 -59.27,-950.22 -56.63,-952.57 -53.74,-954.60 -50.65,-956.31 -47.39,-957.68 -44.02,-958.74 -40.57,-959.50 -37.08,-960.00 -32.38,-960.30 -31.20,-960.32"/>
    </edge>

    <edge id="5647" from="25" to="19" priority="3" type="highway.residential" spreadType="center" length="50.58" shape="-120.25,-962.52 -213.91,-941.61">
        <lane id="5647_0" index="0" disallow="pedestrian tram rail_urban rail rail_electric rail_fast ship" speed="36.11" length="50.58" width="3.50" customShape="1" shape="-164.35,-951.51 -171.43,-949.56 -180.77,-947.40 -194.16,-944.81 -209.60,-942.23 -213.91,-941.61"/>
    </edge>
    <edge id="5648" from="23" to="25" priority="3" type="highway.residential" spreadType="center" length="50.56" shape="-215.21,-944.96 -121.01,-965.94">
        <lane id="5648_0" index="0" disallow="pedestrian tram rail_urban rail rail_electric rail_fast ship" speed="36.11" length="50.56" width="3.50" customShape="1" shape="-215.21,-944.96 -210.29,-945.66 -194.95,-948.22 -181.66,-950.79 -172.41,-952.92 -165.65,-954.78"/>
    </edge>
    <edge id="5650" from="20" to="25" priority="3" type="highway.residential" spreadType="center" length="70.01" shape="-51.06,-1020.73 -119.56,-962.86">
        <lane id="5650_0" index="0" disallow="pedestrian tram rail_urban rail rail_electric rail_fast ship" speed="36.11" length="70.01" width="3.50" customShape="1" shape="-51.06,-1020.73 -55.25,-1017.41 -75.52,-1001.83 -95.23,-987.17 -107.03,-978.69"/>
    </edge>
    <edge id="5651" from="25" to="18" priority="3" type="highway.residential" spreadType="center" length="70.00" shape="-121.82,-965.54 -53.05,-1023.62">
        <lane id="5651_0" index="0" disallow="pedestrian tram rail_urban rail rail_electric rail_fast ship" speed="36.11" length="70.00" width="3.50" customShape="1" shape="-109.01,-981.58 -97.26,-990.02 -77.59,-1004.66 -57.35,-1020.21 -53.05,-1023.62"/>
    </edge>
    <edge id="5679" from="22" to="26" priority="3" type="highway.residential" spreadType="center" length="70.00" shape="0.56,-878.24 -58.35,-942.33">
        <lane id="5679_0" index="0" disallow="pedestrian tram rail_urban rail rail_electric rail_fast ship" speed="36.11" length="70.00" width="3.50" customShape="1" shape="0.56,-878.24 -4.63,-884.56 -43.85,-932.35"/>
    </edge>
    <edge id="5680" from="26" to="13" priority="3" type="highway.residential" spreadType="center" length="70.00" shape="-55.78,-944.70 3.26,-880.46">
        <lane id="5680_0" index="0" disallow="pedestrian tram rail_urban rail rail_electric rail_fast ship" speed="36.11" length="70.00" width="3.50" customShape="1" shape="-41.15,-934.57 -1.93,-886.78 3.26,-880.46"/>
    </edge>
    <edge id="5784" from="25" to="26" priority="3" type="highway.residential" spreadType="center" length="21.41" shape="-120.12,-965.89 -56.46,-945.14">
        <lane id="5784_0" index="0" disallow="pedestrian tram rail_urban rail rail_electric rail_fast ship" speed="36.11" length="21.41" width="3.50" customShape="1" shape="-107.24,-954.84 -105.25,-954.79 -100.14,-954.94 -94.54,-955.47 -85.95,-956.74"/>
    </edge>
    <edge id="5785" from="26" to="25" priority="3" type="highway.residential" spreadType="center" length="22.01" shape="-57.54,-941.81 -121.20,-962.56">
        <lane id="5785_0" index="0" disallow="pedestrian tram rail_urban rail rail_electric rail_fast ship" speed="36.11" length="22.01" width="3.50" customShape="1" shape="-85.44,-953.27 -94.20,-951.99 -99.99,-951.44 -105.29,-951.29 -107.33,-951.34"/>
    </edge>
    <edge id="5792" from="26" to="14" priority="3" type="highway.residential" spreadType="center" length="70.01" shape="-57.44,-945.19 38.42,-965.98">
        <lane id="5792_0" index="0" disallow="pedestrian tram rail_urban rail rail_electric rail_fast ship" speed="36.11" length="70.01" width="3.50" customShape="1" shape="-31.20,-960.32 -23.19,-960.36 -7.18,-960.63 4.32,-961.18 14.29,-962.02 23.23,-963.14 31.62,-964.55 38.42,-965.98"/>
    </edge>
    <edge id="5793" from="24" to="26" priority="3" type="highway.residential" spreadType="center" length="70.01" shape="38.45,-962.41 -56.70,-941.77">
        <lane id="5793_0" index="0" disallow="pedestrian tram rail_urban rail rail_electric rail_fast ship" speed="36.11" length="70.01" width="3.50" customShape="1" shape="38.45,-962.41 32.04,-961.07 23.56,-959.65 14.54,-958.53 4.49,-957.68 -7.08,-957.14 -23.15,-956.87 -31.18,-956.82"/>
    </edge>
    <edge id="5810" from="21" to="26" priority="3" type="highway.residential" spreadType="center" length="70.00" shape="-84.48,-858.68 -58.71,-944.03">
        <lane id="5810_0" index="0" disallow="pedestrian tram rail_urban rail rail_electric rail_fast ship" speed="36.11" length="70.00" width="3.50" customShape="1" shape="-84.48,-858.68 -70.51,-927.27"/>
    </edge>
    <edge id="5811" from="26" to="15" priority="3" type="highway.residential" spreadType="center" length="70.00" shape="-55.36,-943.02 -81.05,-857.98">
        <lane id="5811_0" index="0" disallow="pedestrian tram rail_urban rail rail_electric rail_fast ship" speed="36.11" length="70.00" width="3.50" customShape="1" shape="-67.08,-926.57 -81.05,-857.98"/>
    </edge>

    <junction id="13" type="dead_end" x="3.26" y="-880.46" incLanes="5680_0" intLanes="" shape="4.61,-881.57 1.91,-879.35" rightOfWay="edgePriority"/>
    <junction id="14" type="dead_end" x="38.42" y="-965.98" incLanes="5792_0" intLanes="" shape="38.06,-967.69 38.77,-964.27" rightOfWay="edgePriority"/>
    <junction id="15" type="dead_end" x="-81.05" y="-857.98" incLanes="5811_0" intLanes="" shape="-79.33,-857.63 -82.76,-858.33" rightOfWay="edgePriority"/>
    <junction id="18" type="dead_end" x="-53.05" y="-1023.62" incLanes="5651_0" intLanes="" shape="-54.13,-1024.99 -51.96,-1022.25" rightOfWay="edgePriority"/>
    <junction id="19" type="dead_end" x="-213.91" y="-941.61" incLanes="5647_0" intLanes="" shape="-213.66,-939.88 -214.16,-943.34" rightOfWay="edgePriority"/>
    <junction id="20" type="dead_end" x="-51.06" y="-1020.73" incLanes="" intLanes="" shape="-52.15,-1022.10 -49.97,-1019.36" rightOfWay="edgePriority"/>
    <junction id="21" type="dead_end" x="-84.48" y="-858.68" incLanes="" intLanes="" shape="-82.76,-858.33 -86.19,-859.03" rightOfWay="edgePriority"/>
    <junction id="22" type="dead_end" x="0.56" y="-878.24" incLanes="" intLanes="" shape="1.91,-879.35 -0.79,-877.13" rightOfWay="edgePriority"/>
    <junction id="23" type="dead_end" x="-215.21" y="-944.96" incLanes="" intLanes="" shape="-214.97,-943.22 -215.46,-946.69" rightOfWay="edgePriority"/>
    <junction id="24" type="dead_end" x="38.45" y="-962.41" incLanes="" intLanes="" shape="38.10,-964.13 38.81,-960.70" rightOfWay="edgePriority"/>
    <junction id="25" type="priority" x="-120.66" y="-964.22" incLanes="5785_0 5650_0 5648_0" intLanes=":25_0_0 :25_1_0 :25_2_0 :25_3_0 :25_4_0 :25_5_0" shape="-107.38,-949.59 -107.19,-956.59 -111.76,-957.76 -114.08,-960.60 -114.41,-964.54 -112.99,-969.02 -110.09,-973.46 -105.94,-977.32 -110.03,-983.00 -119.57,-976.42 -128.28,-971.09 -136.74,-966.72 -145.51,-963.01 -155.17,-959.67 -166.30,-956.42 -163.70,-949.87 -152.90,-952.20 -143.94,-952.90 -135.87,-952.48 -127.73,-951.45 -118.56,-950.31">
        <request index="0" response="001000" foes="001000" cont="0"/>
        <request index="1" response="111000" foes="111000" cont="0"/>
        <request index="2" response="000000" foes="100000" cont="0"/>
        <request index="3" response="000000" foes="100011" cont="0"/>
        <request index="4" response="000000" foes="000010" cont="0"/>
        <request index="5" response="001100" foes="001110" cont="0"/>
    </junction>
    <junction id="26" type="priority" x="-57.04" y="-943.49" incLanes="5679_0 5793_0 5784_0 5810_0" intLanes=":26_0_0 :26_1_0 :26_2_0 :26_3_0 :26_4_0 :26_5_0 :26_6_0 :26_7_0" shape="-45.21,-931.24 -39.80,-935.68 -42.57,-940.28 -43.50,-944.74 -42.71,-948.77 -40.31,-952.04 -36.42,-954.24 -31.17,-955.07 -31.21,-962.07 -42.24,-962.01 -51.08,-961.88 -58.81,-961.58 -66.51,-960.99 -75.28,-959.99 -86.20,-958.47 -85.19,-951.54 -78.82,-951.56 -74.51,-949.61 -71.96,-945.96 -70.92,-940.90 -71.10,-934.69 -72.22,-927.62 -65.36,-926.23 -63.58,-931.14 -60.74,-934.53 -57.17,-936.32 -53.17,-936.42 -49.08,-934.75">
        <request index="0" response="00000000" foes="11100110" cont="0"/>
        <request index="1" response="00110001" foes="00110001" cont="0"/>
        <request index="2" response="00110001" foes="11110001" cont="0"/>
        <request index="3" response="00000000" foes="10000000" cont="0"/>
        <request index="4" response="00000000" foes="10000110" cont="0"/>
        <request index="5" response="00000001" foes="10000111" cont="0"/>
        <request index="6" response="00000101" foes="00000101" cont="0"/>
        <request index="7" response="00111101" foes="00111101" cont="0"/>
    </junction>

    <connection from="5648" to="5651" fromLane="0" toLane="0" contPos="-4.00" shape="-147.27,-961.07 -145.38,-961.83 -137.77,-965.16 -130.33,-968.81 -123.06,-972.77 -115.95,-977.03 -109.01,-981.58" via=":25_4_0" dir="s" state="M"/>
    <connection from="5648" to="5784" fromLane="0" toLane="0" contPos="-4.00" shape="-147.27,-961.07 -146.17,-961.47 -143.95,-962.08 -141.66,-962.44 -139.34,-962.56 -135.95,-962.34 -132.63,-961.75 -128.39,-960.59 -117.28,-956.82 -113.29,-955.71 -110.30,-955.14 -107.24,-954.84" via=":25_5_0" dir="L" state="m"/>
    <connection from="5650" to="5784" fromLane="0" toLane="0" contPos="-4.00" shape="-107.03,-978.69 -110.12,-976.53 -114.63,-973.13 -117.48,-970.75 -120.18,-968.20 -121.40,-966.89 -122.53,-965.51 -123.51,-964.09 -124.25,-962.65 -124.62,-961.26 -124.55,-960.05 -123.98,-959.01 -122.95,-958.09 -121.56,-957.31 -119.98,-956.69 -118.28,-956.20 -116.53,-955.82 -112.88,-955.27 -107.24,-954.84" via=":25_2_0" dir="r" state="M"/>
    <connection from="5650" to="5647" fromLane="0" toLane="0" contPos="-4.00" shape="-107.03,-978.69 -114.09,-974.07 -121.33,-969.73 -128.73,-965.70 -136.31,-961.98 -144.03,-958.60 -145.99,-957.81" via=":25_3_0" dir="s" state="M"/>
    <connection from="5679" to="5785" fromLane="0" toLane="0" contPos="-4.00" shape="-43.85,-932.35 -44.52,-933.15 -48.04,-937.13 -51.77,-940.86 -54.92,-943.62 -58.25,-946.16 -61.75,-948.43 -64.47,-949.91 -67.30,-951.18 -70.20,-952.22 -73.18,-953.00 -76.21,-953.50 -79.26,-953.72 -82.33,-953.64 -85.44,-953.27" via=":26_0_0" dir="s" state="M"/>
    <connection from="5784" to="5792" fromLane="0" toLane="0" contPos="-4.00" shape="-85.95,-956.74 -77.74,-957.89 -67.43,-958.92 -56.06,-959.67 -42.60,-960.16 -31.20,-960.32" via=":26_3_0" dir="R" state="M"/>
    <connection from="5784" to="5680" fromLane="0" toLane="0" contPos="-4.00" shape="-85.95,-956.74 -82.62,-957.13 -79.27,-957.22 -75.93,-957.00 -72.63,-956.47 -69.38,-955.64 -66.22,-954.53 -63.16,-953.18 -60.20,-951.59 -56.45,-949.18 -52.89,-946.48 -49.52,-943.55 -45.57,-939.61 -41.86,-935.43 -41.15,-934.57" via=":26_4_0" dir="s" state="M"/>
    <connection from="5784" to="5811" fromLane="0" toLane="0" contPos="-4.00" shape="-85.95,-956.74 -83.07,-957.09 -80.18,-957.19 -77.29,-956.94 -75.87,-956.65 -74.49,-956.23 -73.15,-955.67 -71.89,-954.96 -70.73,-954.10 -69.68,-953.10 -68.76,-951.97 -67.99,-950.75 -67.34,-949.46 -66.82,-948.11 -66.41,-946.72 -65.87,-943.87 -65.63,-940.98 -65.68,-936.64 -66.11,-932.31 -67.08,-926.57" via=":26_5_0" dir="l" state="m"/>
    <connection from="5785" to="5647" fromLane="0" toLane="0" contPos="-4.00" shape="-107.43,-951.35 -110.57,-951.66 -113.66,-952.26 -117.69,-953.40 -128.57,-957.20 -132.60,-958.34 -135.69,-958.92 -138.82,-959.14 -140.92,-959.04 -142.98,-958.72 -145.01,-958.17 -145.99,-957.81" via=":25_0_0" dir="s" state="m"/>
    <connection from="5785" to="5651" fromLane="0" toLane="0" contPos="-4.00" shape="-107.43,-951.35 -113.87,-951.83 -118.11,-952.45 -120.21,-952.89 -122.28,-953.46 -124.30,-954.20 -126.20,-955.19 -127.86,-956.53 -129.01,-958.32 -129.34,-960.41 -128.91,-962.51 -128.01,-964.45 -126.83,-966.24 -125.50,-967.92 -124.05,-969.50 -120.94,-972.47 -117.66,-975.23 -112.52,-979.12 -109.01,-981.58" via=":25_1_0" dir="l" state="m"/>
    <connection from="5793" to="5811" fromLane="0" toLane="0" contPos="-4.00" shape="-31.17,-956.82 -32.25,-956.81 -36.64,-956.53 -39.85,-956.07 -43.01,-955.37 -46.08,-954.40 -49.03,-953.15 -51.83,-951.61 -54.43,-949.77 -56.82,-947.65 -58.96,-945.28 -60.85,-942.70 -62.49,-939.92 -63.89,-937.01 -65.07,-933.97 -66.05,-930.86 -67.08,-926.57" via=":26_1_0" dir="R" state="m"/>
    <connection from="5793" to="5785" fromLane="0" toLane="0" contPos="-4.00" shape="-31.17,-956.82 -42.49,-956.66 -55.84,-956.18 -67.10,-955.44 -77.29,-954.42 -85.44,-953.27" via=":26_2_0" dir="s" state="m"/>
    <connection from="5810" to="5785" fromLane="0" toLane="0" contPos="-4.00" shape="-70.51,-927.27 -69.63,-932.43 -69.24,-936.28 -69.16,-940.12 -69.33,-942.61 -69.75,-945.06 -70.06,-946.20 -70.46,-947.32 -70.95,-948.38 -71.52,-949.36 -72.20,-950.26 -72.97,-951.06 -73.83,-951.75 -74.78,-952.32 -75.80,-952.79 -76.89,-953.15 -78.00,-953.41 -80.43,-953.65 -82.89,-953.59 -85.44,-953.27" via=":26_6_0" dir="r" state="m"/>
    <connection from="5810" to="5792" fromLane="0" toLane="0" contPos="-4.00" shape="-70.51,-927.27 -69.40,-931.87 -68.35,-935.24 -67.06,-938.53 -65.53,-941.72 -63.72,-944.75 -61.64,-947.61 -59.27,-950.22 -56.63,-952.57 -53.74,-954.60 -50.65,-956.31 -47.39,-957.68 -44.02,-958.74 -40.57,-959.50 -37.08,-960.00 -32.38,-960.30 -31.20,-960.32" via=":26_7_0" dir="L" state="m"/>

    <connection from=":25_0" to="5647" fromLane="0" toLane="0" dir="s" state="M"/>
    <connection from=":25_1" to="5651" fromLane="0" toLane="0" dir="l" state="M"/>
    <connection from=":25_2" to="5784" fromLane="0" toLane="0" dir="r" state="M"/>
    <connection from=":25_3" to="5647" fromLane="0" toLane="0" dir="s" state="M"/>
    <connection from=":25_4" to="5651" fromLane="0" toLane="0" dir="s" state="M"/>
    <connection from=":25_5" to="5784" fromLane="0" toLane="0" dir="L" state="M"/>
    <connection from=":26_0" to="5785" fromLane="0" toLane="0" dir="s" state="M"/>
    <connection from=":26_1" to="5811" fromLane="0" toLane="0" dir="R" state="M"/>
    <connection from=":26_2" to="5785" fromLane="0" toLane="0" dir="s" state="M"/>
    <connection from=":26_3" to="5792" fromLane="0" toLane="0" dir="R" state="M"/>
    <connection from=":26_4" to="5680" fromLane="0" toLane="0" dir="s" state="M"/>
    <connection from=":26_5" to="5811" fromLane="0" toLane="0" dir="l" state="M"/>
    <connection from=":26_6" to="5785" fromLane="0" toLane="0" dir="r" state="M"/>
    <connection from=":26_7" to="5792" fromLane="0" toLane="0" dir="L" state="M"/>

</net>