<routes>
	<vehicle depart="0.1" departLane="0" departPos="25.254457967936922" departSpeed="0.41567064" id="310" type="bicycle">
		<route edges=":68_1 68159"/>
	</vehicle>
	<vehicle depart="0.1" departLane="0" departPos="18.984023241897106" departSpeed="0.95165856" id="321" type="passenger">
		<route edges=":68_0 67639 67641 67643 67383"/>
	</vehicle>
	<vehicle depart="0.1" departLane="0" departPos="2.5" departSpeed="1.7114611" id="335" type="passenger">
		<route edges=":68_0 67639 67501"/>
	</vehicle>
	<vehicle depart="0.1" departLane="0" departPos="44.29787139398597" departSpeed="3.4445638" id="338" type="passenger">
		<route edges="68157 68159"/>
	</vehicle>
	<vehicle depart="0.1" departLane="0" departPos="32.63455861095366" departSpeed="4.9002824" id="344" type="passenger">
		<route edges="68157 68159"/>
	</vehicle>
	<vehicle depart="0.1" departLane="0" departPos="21.747965806236426" departSpeed="5.4309097" id="348" type="passenger">
		<route edges="68157 68159"/>
	</vehicle>
	<vehicle depart="0.1" departLane="0" departPos="20.275437738105826" departSpeed="0.32839605" id="36" type="motorcycle">
		<route edges=":68_1 68159"/>
	</vehicle>
	<vehicle depart="0.1" departLane="0" departPos="7.386884780963573" departSpeed="4.2673552" id="350" type="motorcycle">
		<route edges="68157 68159"/>
	</vehicle>
	<vehicle depart="0.1" departLane="0" departPos="3.75" departSpeed="0.021721252" id="32" type="truck">
		<route edges="68406 68408"/>
	</vehicle>
</routes>
