<routes>
	<vehicle depart="0.1" departLane="0" departPos="15.3224658521744" departSpeed="4.2721938" id="37" type="bicycle">
		<route edges=":73_3 64238 64241"/>
	</vehicle>
	<vehicle depart="0.1" departLane="0" departPos="15.521409136551224" departSpeed="5.5398629" id="39" type="bicycle">
		<route edges="63726 63723"/>
	</vehicle>
	<vehicle depart="0.1" departLane="0" departPos="30.507826397126156" departSpeed="1.5555823" id="34" type="passenger">
		<route edges="63727 63832"/>
	</vehicle>
	<vehicle depart="0.1" departLane="0" departPos="30.960604054746682" departSpeed="0.00089761033" id="38" type="passenger">
		<route edges=":80_0 63950"/>
	</vehicle>
	<vehicle depart="0.1" departLane="0" departPos="33.179784857069365" departSpeed="12.792092" id="353" type="passenger">
		<route edges=":78_4 63727 63832"/>
	</vehicle>
	<vehicle depart="0.1" departLane="0" departPos="14.966126161224517" departSpeed="12.393631" id="361" type="passenger">
		<route edges=":78_4 63727 63832"/>
	</vehicle>
	<vehicle depart="0.1" departLane="0" departPos="35.59518661036233" departSpeed="2.56177" id="362" type="passenger">
		<route edges="63819 64241"/>
	</vehicle>
	<vehicle depart="0.1" departLane="0" departPos="28.04300826417252" departSpeed="2.5892752" id="369" type="passenger">
		<route edges="63819 64241"/>
	</vehicle>
	<vehicle depart="0.1" departLane="0" departPos="6.916242886716971" departSpeed="11.485915" id="373" type="passenger">
		<route edges="63724 63727"/>
	</vehicle>
	<vehicle depart="0.1" departLane="0" departPos="16.33266059997993" departSpeed="5.9502855" id="324" type="motorcycle">
		<route edges="63727 63832"/>
	</vehicle>
</routes>
