<!-- generated on Tue Feb  9 22:19:10 2021 by Eclipse SUMO netconvert Version 1.8.0
<configuration xmlns:xsi="http://www.w3.org/2001/XMLSchema-instance" xsi:noNamespaceSchemaLocation="http://sumo.dlr.de/xsd/netconvertConfiguration.xsd">

    <input>
        <node-files value="./converted_scenarios/scenario-factory/BEL_Nivelles-3_2_I-1-1/BEL_Nivelles-3_2_I-1-1.nod.xml"/>
        <edge-files value="./converted_scenarios/scenario-factory/BEL_Nivelles-3_2_I-1-1/BEL_Nivelles-3_2_I-1-1.edg.xml"/>
        <connection-files value="./converted_scenarios/scenario-factory/BEL_Nivelles-3_2_I-1-1/BEL_Nivelles-3_2_I-1-1.con.xml"/>
        <tllogic-files value="./converted_scenarios/scenario-factory/BEL_Nivelles-3_2_I-1-1/BEL_Nivelles-3_2_I-1-1.tll.xml"/>
        <type-files value="/home/zen/commonroad-interactive-benchmarks/install/commonroad-map-tool/crmapconverter/sumo_map/templates/DEU.typ.xml"/>
    </input>

    <output>
        <output-file value="./converted_scenarios/scenario-factory/BEL_Nivelles-3_2_I-1-1/BEL_Nivelles-3_2_I-1-1.net.xml"/>
    </output>

    <processing>
        <geometry.remove.keep-edges.explicit value="true"/>
        <geometry.avoid-overlap value="true"/>
        <offset.disable-normalization value="true"/>
    </processing>

    <junctions>
        <no-turnarounds value="true"/>
        <junctions.internal-link-detail value="20"/>
    </junctions>

    <report>
        <aggregate-warnings value="5"/>
    </report>

    <random_number>
        <seed value="1234"/>
    </random_number>

</configuration>
--><net xmlns:xsi="http://www.w3.org/2001/XMLSchema-instance" version="1.6" junctionCornerDetail="5" junctionLinkDetail="20" limitTurnSpeed="5.50" xsi:noNamespaceSchemaLocation="http://sumo.dlr.de/xsd/net_file.xsd">

    <location netOffset="0.00,0.00" convBoundary="-969.20,-704.51,-773.15,-515.70" origBoundary="-969.20,-704.51,-773.15,-514.55" projParameter="!"/>

    <type id="highway.bridleway" priority="1" speed="2.78" allow="pedestrian" oneway="1" width="2.00"/>
    <type id="highway.bus_guideway" priority="1" speed="27.78" allow="bus" oneway="1"/>
    <type id="highway.cycleway" priority="1" speed="8.33" allow="bicycle" oneway="0" width="1.00"/>
    <type id="highway.footway" priority="1" speed="2.78" allow="pedestrian" oneway="1" width="2.00"/>
    <type id="highway.ford" priority="1" speed="2.78" allow="army" oneway="0"/>
    <type id="highway.living_street" priority="2" speed="2.78" disallow="tram rail_urban rail rail_electric rail_fast ship" oneway="0"/>
    <type id="highway.motorway" priority="14" speed="39.44" allow="private emergency authority army vip passenger hov taxi bus coach delivery truck trailer motorcycle evehicle custom1 custom2" oneway="1"/>
    <type id="highway.motorway_link" priority="9" speed="22.22" allow="private emergency authority army vip passenger hov taxi bus coach delivery truck trailer motorcycle evehicle custom1 custom2" oneway="1"/>
    <type id="highway.path" priority="1" speed="2.78" allow="pedestrian bicycle" oneway="0" width="2.00"/>
    <type id="highway.pedestrian" priority="1" speed="2.78" allow="pedestrian" oneway="1" width="2.00"/>
    <type id="highway.primary" priority="12" speed="27.78" disallow="pedestrian tram rail_urban rail rail_electric rail_fast ship" oneway="0"/>
    <type id="highway.primary_link" priority="7" speed="22.22" disallow="pedestrian tram rail_urban rail rail_electric rail_fast ship" oneway="0"/>
    <type id="highway.raceway" priority="15" speed="83.33" allow="vip" oneway="0"/>
    <type id="highway.residential" priority="3" speed="13.89" disallow="pedestrian tram rail_urban rail rail_electric rail_fast ship" oneway="0"/>
    <type id="highway.secondary" priority="11" speed="27.78" disallow="pedestrian tram rail_urban rail rail_electric rail_fast ship" oneway="0"/>
    <type id="highway.secondary_link" priority="6" speed="22.22" disallow="pedestrian tram rail_urban rail rail_electric rail_fast ship" oneway="0"/>
    <type id="highway.service" priority="1" speed="5.56" allow="pedestrian delivery bicycle" oneway="0"/>
    <type id="highway.stairs" priority="1" speed="1.39" allow="pedestrian" oneway="1" width="2.00"/>
    <type id="highway.step" priority="1" speed="1.39" allow="pedestrian" oneway="1" width="2.00"/>
    <type id="highway.steps" priority="1" speed="1.39" allow="pedestrian" oneway="1" width="2.00"/>
    <type id="highway.tertiary" priority="10" speed="22.22" disallow="pedestrian tram rail_urban rail rail_electric rail_fast ship" oneway="0"/>
    <type id="highway.tertiary_link" priority="5" speed="22.22" disallow="pedestrian tram rail_urban rail rail_electric rail_fast ship" oneway="0"/>
    <type id="highway.track" priority="1" speed="5.56" allow="pedestrian motorcycle moped bicycle" oneway="0"/>
    <type id="highway.trunk" priority="13" speed="27.78" disallow="pedestrian bicycle tram rail_urban rail rail_electric rail_fast ship" oneway="0"/>
    <type id="highway.trunk_link" priority="8" speed="22.22" disallow="pedestrian bicycle tram rail_urban rail rail_electric rail_fast ship" oneway="0"/>
    <type id="highway.unclassified" priority="4" speed="13.89" disallow="pedestrian tram rail_urban rail rail_electric rail_fast ship" oneway="0"/>
    <type id="highway.unsurfaced" priority="1" speed="8.33" disallow="tram rail_urban rail rail_electric rail_fast ship" oneway="0"/>
    <type id="railway.highspeed" priority="21" speed="69.44" allow="rail_fast" oneway="1"/>
    <type id="railway.light_rail" priority="19" speed="27.78" allow="rail_urban" oneway="1"/>
    <type id="railway.preserved" priority="16" speed="27.78" allow="rail" oneway="1"/>
    <type id="railway.rail" priority="20" speed="44.44" allow="rail" oneway="1"/>
    <type id="railway.subway" priority="18" speed="27.78" allow="rail_urban" oneway="1"/>
    <type id="railway.tram" priority="17" speed="13.89" allow="tram" oneway="1"/>

    <edge id=":28_0" function="internal">
        <lane id=":28_0_0" index="0" disallow="pedestrian tram rail_urban rail rail_electric rail_fast ship" speed="3.23" length="2.88" width="3.50" shape="-877.06,-568.67 -879.14,-570.66"/>
    </edge>
    <edge id=":31_0" function="internal">
        <lane id=":31_0_0" index="0" disallow="pedestrian tram rail_urban rail rail_electric rail_fast ship" speed="9.79" length="11.84" width="3.50" shape="-880.52,-627.64 -878.91,-625.52 -877.03,-623.64 -874.90,-622.04 -872.58,-620.75 -871.47,-620.30"/>
    </edge>
    <edge id=":31_1" function="internal">
        <lane id=":31_1_0" index="0" disallow="pedestrian tram rail_urban rail rail_electric rail_fast ship" speed="9.89" length="11.80" width="3.50" shape="-880.25,-614.51 -880.24,-614.67 -880.39,-617.31 -880.87,-619.92 -881.70,-622.43 -882.88,-624.81 -883.43,-625.70"/>
    </edge>
    <edge id=":31_2" function="internal">
        <lane id=":31_2_0" index="0" disallow="pedestrian tram rail_urban rail rail_electric rail_fast ship" speed="5.43" length="4.22" width="3.50" shape="-875.02,-612.44 -874.21,-613.10 -871.96,-614.57 -871.53,-614.79"/>
    </edge>
    <edge id=":32_0" function="internal">
        <lane id=":32_0_0" index="0" disallow="pedestrian tram rail_urban rail rail_electric rail_fast ship" speed="11.07" length="28.96" width="3.50" shape="-885.92,-629.48 -887.89,-632.17 -889.38,-633.83 -891.03,-635.32 -892.85,-636.61 -893.83,-637.14 -894.85,-637.60 -895.90,-637.96 -896.98,-638.23 -898.08,-638.39 -899.19,-638.46 -900.31,-638.42 -901.41,-638.29 -903.58,-637.77 -905.66,-636.98 -907.65,-635.97 -910.46,-634.15"/>
    </edge>
    <edge id=":32_1" function="internal">
        <lane id=":32_1_0" index="0" disallow="pedestrian tram rail_urban rail rail_electric rail_fast ship" speed="36.11" length="41.68" width="3.50" shape="-885.92,-629.48 -888.21,-632.94 -899.31,-649.34 -909.55,-663.81"/>
    </edge>
    <edge id=":32_2" function="internal">
        <lane id=":32_2_0" index="0" disallow="pedestrian tram rail_urban rail rail_electric rail_fast ship" speed="12.77" length="37.02" width="3.50" shape="-885.92,-629.48 -886.59,-630.53 -888.42,-633.72 -889.96,-637.10 -890.78,-639.50 -891.37,-641.99 -891.68,-644.55 -891.64,-647.16 -891.21,-649.76 -890.38,-652.26 -889.19,-654.60 -887.70,-656.72 -885.98,-658.63 -884.09,-660.32 -882.08,-661.82"/>
    </edge>
    <edge id=":32_3" function="internal">
        <lane id=":32_3_0" index="0" disallow="pedestrian tram rail_urban rail rail_electric rail_fast ship" speed="11.81" length="31.52" width="3.50" shape="-880.09,-658.95 -881.83,-657.64 -883.44,-656.18 -884.90,-654.57 -886.14,-652.78 -887.10,-650.83 -887.76,-648.76 -888.09,-646.61 -888.09,-644.43 -887.81,-642.28 -887.29,-640.16 -886.57,-638.11 -885.21,-635.14 -883.58,-632.31 -883.01,-631.42"/>
    </edge>
    <edge id=":32_4" function="internal">
        <lane id=":32_4_0" index="0" disallow="pedestrian tram rail_urban rail rail_electric rail_fast ship" speed="36.11" length="39.23" width="3.50" shape="-880.09,-658.95 -885.08,-655.28 -890.67,-650.71 -903.14,-639.88 -908.80,-635.38 -910.46,-634.15"/>
    </edge>
    <edge id=":32_5" function="internal">
        <lane id=":32_5_0" index="0" disallow="pedestrian tram rail_urban rail rail_electric rail_fast ship" speed="12.27" length="34.08" width="3.50" shape="-880.09,-658.95 -883.43,-656.88 -885.79,-655.73 -888.24,-654.83 -890.79,-654.22 -892.09,-654.06 -893.40,-653.99 -894.71,-654.03 -896.01,-654.18 -897.30,-654.44 -898.55,-654.81 -899.77,-655.28 -902.09,-656.50 -904.22,-658.02 -906.16,-659.78 -907.93,-661.72 -909.55,-663.81"/>
    </edge>
    <edge id=":32_6" function="internal">
        <lane id=":32_6_0" index="0" disallow="pedestrian tram rail_urban rail rail_electric rail_fast ship" speed="11.27" length="28.58" width="3.50" shape="-906.72,-665.86 -905.31,-664.04 -903.79,-662.38 -902.14,-660.88 -900.37,-659.61 -898.43,-658.60 -897.47,-658.23 -896.46,-657.94 -895.43,-657.73 -894.38,-657.61 -893.32,-657.58 -892.26,-657.63 -891.22,-657.77 -889.07,-658.28 -887.00,-659.04 -884.99,-660.02 -882.08,-661.82"/>
    </edge>
    <edge id=":32_7" function="internal">
        <lane id=":32_7_0" index="0" disallow="pedestrian tram rail_urban rail rail_electric rail_fast ship" speed="36.11" length="41.82" width="3.50" shape="-906.72,-665.86 -896.44,-651.33 -885.30,-634.89 -883.01,-631.42"/>
    </edge>
    <edge id=":32_8" function="internal">
        <lane id=":32_8_0" index="0" disallow="pedestrian tram rail_urban rail rail_electric rail_fast ship" speed="12.59" length="36.62" width="3.50" shape="-906.72,-665.86 -904.54,-662.57 -903.28,-660.28 -902.21,-657.90 -901.37,-655.42 -900.83,-652.87 -900.65,-650.26 -900.70,-648.95 -900.87,-647.66 -901.14,-646.38 -901.51,-645.13 -901.98,-643.91 -903.20,-641.59 -904.72,-639.47 -906.47,-637.53 -908.40,-635.76 -910.46,-634.15"/>
    </edge>
    <edge id=":32_9" function="internal">
        <lane id=":32_9_0" index="0" disallow="pedestrian tram rail_urban rail rail_electric rail_fast ship" speed="11.62" length="31.03" width="3.50" shape="-912.51,-636.99 -910.71,-638.39 -909.05,-639.91 -907.56,-641.57 -906.29,-643.35 -905.29,-645.30 -904.92,-646.27 -904.62,-647.29 -904.41,-648.33 -904.28,-649.38 -904.24,-650.42 -904.40,-652.60 -904.87,-654.74 -905.59,-656.85 -906.52,-658.90 -907.62,-660.89 -909.55,-663.81"/>
    </edge>
    <edge id=":32_10" function="internal">
        <lane id=":32_10_0" index="0" disallow="pedestrian tram rail_urban rail rail_electric rail_fast ship" speed="36.11" length="39.29" width="3.50" shape="-912.51,-636.99 -910.89,-638.19 -905.28,-642.65 -892.80,-653.48 -887.15,-658.10 -882.08,-661.82"/>
    </edge>
    <edge id=":32_11" function="internal">
        <lane id=":32_11_0" index="0" disallow="pedestrian tram rail_urban rail rail_electric rail_fast ship" speed="12.08" length="34.69" width="3.50" shape="-912.51,-636.99 -909.27,-639.09 -906.91,-640.28 -904.43,-641.23 -901.83,-641.85 -900.44,-642.02 -899.07,-642.06 -897.68,-641.99 -896.31,-641.78 -894.96,-641.45 -893.65,-641.00 -892.39,-640.44 -891.17,-639.77 -889.00,-638.24 -887.03,-636.46 -885.27,-634.51 -883.01,-631.42"/>
    </edge>
    <edge id=":33_0" function="internal">
        <lane id=":33_0_0" index="0" disallow="pedestrian tram rail_urban rail rail_electric rail_fast ship" speed="17.15" length="17.77" width="3.50" shape="-845.60,-617.95 -839.92,-618.07 -834.31,-618.55 -830.27,-619.21 -827.98,-619.81"/>
    </edge>
    <edge id=":33_1" function="internal">
        <lane id=":33_1_0" index="0" disallow="pedestrian tram rail_urban rail rail_electric rail_fast ship" speed="10.48" length="11.80" width="3.50" shape="-845.62,-615.88 -843.60,-614.97 -840.89,-613.32 -838.39,-611.37 -836.07,-609.10"/>
    </edge>
    <edge id=":34_0" function="internal">
        <lane id=":34_0_0" index="0" disallow="pedestrian tram rail_urban rail rail_electric rail_fast ship" speed="36.11" length="2.89" width="3.50" shape="-835.49,-608.48 -833.73,-606.19"/>
    </edge>
    <edge id=":36_0" function="internal">
        <lane id=":36_0_0" index="0" disallow="pedestrian tram rail_urban rail rail_electric rail_fast ship" speed="9.82" length="11.51" width="3.50" shape="-879.75,-571.45 -880.44,-572.21 -882.27,-574.83 -883.54,-577.18 -884.55,-579.65 -885.09,-581.52"/>
    </edge>
    <edge id=":36_1" function="internal">
        <lane id=":36_1_0" index="0" disallow="pedestrian tram rail_urban rail rail_electric rail_fast ship" speed="16.17" length="12.82" width="3.50" shape="-891.81,-569.87 -890.83,-571.91 -889.22,-576.25 -887.82,-581.20 -887.65,-581.96"/>
        <lane id=":36_1_1" index="1" disallow="pedestrian tram rail_urban rail rail_electric rail_fast ship" speed="16.76" length="13.73" width="3.50" shape="-890.14,-568.48 -889.14,-572.22 -887.73,-579.22 -887.31,-581.91"/>
    </edge>

    <edge id="10691" from="17" to="32" priority="3" type="highway.residential" spreadType="center" length="70.00" shape="-969.20,-595.93 -897.31,-649.23">
        <lane id="10691_0" index="0" disallow="pedestrian tram rail_urban rail rail_electric rail_fast ship" speed="36.11" length="70.00" width="3.50" customShape="1" shape="-969.20,-595.93 -957.20,-604.63 -912.51,-636.99"/>
    </edge>
    <edge id="10692" from="32" to="10" priority="3" type="highway.residential" spreadType="center" length="69.99" shape="-895.22,-646.42 -967.15,-593.10">
        <lane id="10692_0" index="0" disallow="pedestrian tram rail_urban rail rail_electric rail_fast ship" speed="36.11" length="69.99" width="3.50" customShape="1" shape="-910.46,-634.15 -955.14,-601.79 -967.15,-593.10"/>
    </edge>
    <edge id="10700" from="32" to="6" priority="3" type="highway.residential" spreadType="center" length="17.81" shape="-897.41,-649.15 -867.43,-671.94">
        <lane id="10700_0" index="0" disallow="pedestrian tram rail_urban rail rail_electric rail_fast ship" speed="36.11" length="17.81" width="3.50" customShape="1" shape="-882.08,-661.82 -874.75,-666.88 -867.43,-671.94"/>
    </edge>
    <edge id="10701" from="18" to="32" priority="3" type="highway.residential" spreadType="center" length="17.81" shape="-865.44,-669.06 -895.30,-646.37">
        <lane id="10701_0" index="0" disallow="pedestrian tram rail_urban rail rail_electric rail_fast ship" speed="36.11" length="17.81" width="3.50" customShape="1" shape="-865.44,-669.06 -872.77,-664.00 -880.09,-658.94"/>
    </edge>
    <edge id="10709" from="33" to="23" priority="3" type="highway.residential" spreadType="center" length="74.69">
        <lane id="10709_0" index="0" disallow="pedestrian tram rail_urban rail rail_electric rail_fast ship" speed="36.11" length="74.69" width="3.50" customShape="1" shape="-827.46,-619.04 -817.31,-625.81 -811.29,-630.30 -805.12,-635.41 -799.19,-640.80 -792.80,-647.15 -785.99,-654.50 -778.15,-663.60 -773.15,-669.73"/>
    </edge>
    <edge id="10712" from="30" to="36" priority="3" type="highway.residential" spreadType="center" length="77.99">
        <lane id="10712_0" index="0" disallow="pedestrian tram rail_urban rail rail_electric rail_fast ship" speed="36.11" length="77.99" width="3.50" customShape="1" shape="-948.65,-517.13 -943.37,-520.86 -932.50,-528.94 -923.86,-535.79 -916.26,-542.30 -909.66,-548.41 -903.68,-554.44 -897.95,-560.74 -890.84,-569.06"/>
        <lane id="10712_1" index="1" disallow="pedestrian tram rail_urban rail rail_electric rail_fast ship" speed="36.11" length="78.90" width="3.50" customShape="1" shape="-946.63,-514.27 -941.08,-518.20 -930.14,-526.34 -921.44,-533.26 -913.77,-539.83 -907.11,-546.01 -901.06,-552.11 -895.29,-558.47 -888.16,-566.83"/>
    </edge>
    <edge id="10721" from="32" to="31" priority="3" type="highway.residential" spreadType="center" length="4.54" shape="-894.89,-648.85 -874.93,-619.06">
        <lane id="10721_0" index="0" disallow="pedestrian tram rail_urban rail rail_electric rail_fast ship" speed="36.11" length="4.54" width="3.50" customShape="1" shape="-883.01,-631.42 -881.75,-629.52 -880.51,-627.63"/>
    </edge>
    <edge id="10722" from="31" to="32" priority="3" type="highway.residential" spreadType="center" length="4.54" shape="-877.84,-617.12 -897.79,-646.91">
        <lane id="10722_0" index="0" disallow="pedestrian tram rail_urban rail rail_electric rail_fast ship" speed="36.11" length="4.54" width="3.50" customShape="1" shape="-883.43,-625.70 -884.68,-627.59 -885.93,-629.49"/>
    </edge>
    <edge id="10727" from="24" to="32" priority="3" type="highway.residential" spreadType="center" length="47.76" shape="-934.76,-704.51 -894.84,-648.79">
        <lane id="10727_0" index="0" disallow="pedestrian tram rail_urban rail rail_electric rail_fast ship" speed="36.11" length="47.76" width="3.50" customShape="1" shape="-934.76,-704.51 -920.73,-685.18 -906.72,-665.85"/>
    </edge>
    <edge id="10728" from="32" to="8" priority="3" type="highway.residential" spreadType="center" length="47.75" shape="-897.69,-646.75 -937.59,-702.46">
        <lane id="10728_0" index="0" disallow="pedestrian tram rail_urban rail rail_electric rail_fast ship" speed="36.11" length="47.75" width="3.50" customShape="1" shape="-909.55,-663.81 -923.56,-683.12 -937.59,-702.46"/>
    </edge>
    <edge id="10800" from="33" to="34" priority="3" type="highway.residential" spreadType="center" length="0.85">
        <lane id="10800_0" index="0" disallow="pedestrian tram rail_urban rail rail_electric rail_fast ship" speed="36.11" length="0.85" width="3.50" customShape="1" shape="-836.02,-609.14 -835.49,-608.48"/>
    </edge>
    <edge id="10804" from="28" to="36" priority="3" type="highway.residential" spreadType="center" length="3.61">
        <lane id="10804_0" index="0" disallow="pedestrian tram rail_urban rail rail_electric rail_fast ship" speed="36.11" length="3.61" width="3.50" customShape="1" shape="-879.14,-570.66 -878.22,-569.73 -879.84,-571.36"/>
    </edge>
    <edge id="10806" from="36" to="31" priority="3" type="highway.residential" spreadType="center" length="33.30">
        <lane id="10806_0" index="0" disallow="pedestrian tram rail_urban rail rail_electric rail_fast ship" speed="36.11" length="33.30" width="3.50" customShape="1" shape="-887.60,-581.95 -885.19,-595.91 -884.32,-598.91 -878.42,-613.79"/>
    </edge>
    <edge id="10808" from="31" to="33" priority="3" type="highway.residential" spreadType="center" length="25.89">
        <lane id="10808_0" index="0" disallow="pedestrian tram rail_urban rail rail_electric rail_fast ship" speed="36.11" length="25.89" width="3.50" customShape="1" shape="-871.49,-618.32 -856.92,-618.16 -845.60,-618.04"/>
    </edge>
    <edge id="10890" from="29" to="28" priority="3" type="highway.residential" spreadType="center" length="21.08">
        <lane id="10890_0" index="0" disallow="pedestrian tram rail_urban rail rail_electric rail_fast ship" speed="36.11" length="21.08" width="3.50" customShape="1" shape="-858.15,-560.50 -861.28,-560.76 -864.36,-561.38 -867.35,-562.35 -870.21,-563.66 -872.90,-565.28 -875.42,-567.17 -877.06,-568.67"/>
    </edge>
    <edge id="10903" from="34" to="35" priority="3" type="highway.residential" spreadType="center" length="22.66">
        <lane id="10903_0" index="0" disallow="pedestrian tram rail_urban rail rail_electric rail_fast ship" speed="36.11" length="22.66" width="3.50" customShape="1" shape="-833.73,-606.19 -832.72,-604.82 -831.14,-602.11 -829.87,-599.23 -828.95,-596.23 -828.39,-593.13 -828.19,-589.99 -828.34,-586.85 -828.61,-584.77"/>
    </edge>

    <junction id="10" type="dead_end" x="-967.15" y="-593.10" incLanes="10692_0" intLanes="" shape="-966.12,-591.68 -968.18,-594.51" rightOfWay="edgePriority"/>
    <junction id="17" type="dead_end" x="-969.20" y="-595.93" incLanes="" intLanes="" shape="-968.17,-594.52 -970.23,-597.35" rightOfWay="edgePriority"/>
    <junction id="18" type="dead_end" x="-865.44" y="-669.06" incLanes="" intLanes="" shape="-866.44,-670.49 -864.45,-667.62" rightOfWay="edgePriority"/>
    <junction id="23" type="dead_end" x="-773.15" y="-669.73" incLanes="10709_0" intLanes="" shape="-774.50,-670.84 -771.79,-668.63" rightOfWay="edgePriority"/>
    <junction id="24" type="dead_end" x="-934.76" y="-704.51" incLanes="" intLanes="" shape="-936.17,-703.48 -933.34,-705.54" rightOfWay="edgePriority"/>
    <junction id="28" type="priority" x="-878.13" y="-569.64" incLanes="10890_0" intLanes=":28_0_0" shape="-878.24,-567.38 -875.88,-569.96 -877.90,-571.90 -880.39,-569.43" rightOfWay="edgePriority">
        <request index="0" response="0" foes="0" cont="0"/>
    </junction>
    <junction id="29" type="dead_end" x="-858.15" y="-560.50" incLanes="" intLanes="" shape="-858.00,-562.24 -858.29,-558.76" rightOfWay="edgePriority"/>
    <junction id="30" type="dead_end" x="-947.64" y="-515.70" incLanes="" intLanes="" shape="-945.62,-512.84 -949.66,-518.56" rightOfWay="edgePriority"/>
    <junction id="31" type="priority" x="-876.39" y="-618.09" incLanes="10721_0 10806_0" intLanes=":31_0_0 :31_1_0 :31_2_0" shape="-871.51,-616.57 -871.47,-620.07 -873.19,-621.02 -874.36,-622.21 -875.72,-623.86 -877.28,-625.99 -879.05,-628.59 -884.89,-624.74 -883.21,-622.10 -881.87,-619.83 -880.89,-617.93 -880.26,-616.40 -879.98,-615.23 -880.05,-614.43 -876.79,-613.14 -875.60,-615.06 -874.78,-615.73 -873.83,-616.21 -872.74,-616.49">
        <request index="0" response="000" foes="100" cont="0"/>
        <request index="1" response="000" foes="000" cont="0"/>
        <request index="2" response="001" foes="001" cont="0"/>
    </junction>
    <junction id="32" type="priority" x="-896.29" y="-647.81" incLanes="10722_0 10701_0 10727_0 10691_0" intLanes=":32_0_0 :32_1_0 :32_2_0 :32_3_0 :32_4_0 :32_5_0 :32_6_0 :32_7_0 :32_8_0 :32_9_0 :32_10_0 :32_11_0" shape="-887.39,-628.53 -881.54,-632.38 -884.43,-637.55 -885.99,-642.33 -886.24,-646.71 -885.18,-650.70 -882.80,-654.30 -879.10,-657.50 -883.08,-663.26 -887.32,-660.86 -891.35,-659.66 -895.16,-659.66 -898.76,-660.87 -902.14,-663.27 -905.31,-666.89 -910.97,-662.78 -908.07,-658.00 -906.50,-653.51 -906.26,-649.30 -907.35,-645.39 -909.78,-641.75 -913.54,-638.41 -909.43,-632.74 -905.19,-635.25 -901.18,-636.47 -897.40,-636.41 -893.84,-635.07 -890.50,-632.44">
        <request index="0" response="000000010000" foes="000100010000" cont="0"/>
        <request index="1" response="111000110000" foes="111100110000" cont="0"/>
        <request index="2" response="110011110000" foes="110011110000" cont="0"/>
        <request index="3" response="000000000000" foes="100010000000" cont="0"/>
        <request index="4" response="000000000000" foes="100110000111" cont="0"/>
        <request index="5" response="011000000000" foes="011110000110" cont="0"/>
        <request index="6" response="010000000000" foes="010000000100" cont="0"/>
        <request index="7" response="110000111000" foes="110000111100" cont="0"/>
        <request index="8" response="110000110011" foes="110000110011" cont="0"/>
        <request index="9" response="000000000000" foes="000000100010" cont="0"/>
        <request index="10" response="000000000000" foes="000111100110" cont="0"/>
        <request index="11" response="000000011000" foes="000110011110" cont="0"/>
    </junction>
    <junction id="33" type="priority" x="-838.03" y="-615.78" incLanes="10808_0" intLanes=":33_0_0 :33_1_0" shape="-837.38,-608.04 -834.66,-610.24 -834.19,-611.60 -833.11,-612.69 -831.47,-614.05 -829.26,-615.68 -826.49,-617.58 -828.43,-620.49 -831.59,-618.78 -834.14,-618.17 -836.47,-618.32 -838.91,-618.87 -841.83,-619.47 -845.58,-619.78 -845.62,-616.29 -844.00,-615.36 -842.77,-614.22 -841.25,-612.61 -839.46,-610.55">
        <request index="0" response="00" foes="00" cont="0"/>
        <request index="1" response="00" foes="00" cont="0"/>
    </junction>
    <junction id="34" type="priority" x="-834.58" y="-607.36" incLanes="10800_0" intLanes=":34_0_0" shape="-835.14,-605.16 -832.32,-607.23 -834.13,-609.58 -836.85,-607.38">
        <request index="0" response="0" foes="0" cont="0"/>
    </junction>
    <junction id="35" type="dead_end" x="-828.61" y="-584.77" incLanes="10903_0" intLanes="" shape="-826.87,-584.55 -830.34,-585.00"/>
    <junction id="36" type="priority" x="-886.79" y="-575.09" incLanes="10804_0 10712_0 10712_1" intLanes=":36_0_0 :36_1_0 :36_1_1" shape="-881.08,-570.13 -878.60,-572.60 -880.89,-574.95 -882.75,-576.97 -884.18,-578.65 -885.18,-579.99 -885.74,-581.00 -885.88,-581.66 -889.32,-582.25 -889.62,-579.56 -889.64,-577.45 -889.64,-575.69 -889.88,-574.05 -890.64,-572.29 -892.18,-570.18 -886.82,-565.71 -885.36,-567.35 -884.10,-568.64 -883.04,-569.56 -882.19,-570.11 -881.53,-570.30">
        <request index="0" response="110" foes="110" cont="0"/>
        <request index="1" response="100" foes="101" cont="0"/>
        <request index="2" response="000" foes="011" cont="0"/>
    </junction>
    <junction id="6" type="dead_end" x="-867.43" y="-671.94" incLanes="10700_0" intLanes="" shape="-868.43,-673.38 -866.44,-670.50" rightOfWay="edgePriority"/>
    <junction id="8" type="dead_end" x="-937.59" y="-702.46" incLanes="10728_0" intLanes="" shape="-939.01,-701.43 -936.17,-703.48" rightOfWay="edgePriority"/>

    <connection from="10691" to="10728" fromLane="0" toLane="0" contPos="-4.00" shape="-912.51,-636.99 -910.71,-638.39 -909.05,-639.91 -907.56,-641.57 -906.29,-643.35 -905.29,-645.30 -904.92,-646.27 -904.62,-647.29 -904.41,-648.33 -904.28,-649.38 -904.24,-650.42 -904.40,-652.60 -904.87,-654.74 -905.59,-656.85 -906.52,-658.90 -907.62,-660.89 -909.55,-663.81" via=":32_9_0" dir="r" state="M"/>
    <connection from="10691" to="10700" fromLane="0" toLane="0" contPos="-4.00" shape="-912.51,-636.99 -910.89,-638.19 -905.28,-642.65 -892.80,-653.48 -887.15,-658.10 -882.08,-661.82" via=":32_10_0" dir="s" state="M"/>
    <connection from="10691" to="10721" fromLane="0" toLane="0" contPos="-4.00" shape="-912.51,-636.99 -909.27,-639.09 -906.91,-640.28 -904.43,-641.23 -901.83,-641.85 -900.44,-642.02 -899.07,-642.06 -897.68,-641.99 -896.31,-641.78 -894.96,-641.45 -893.65,-641.00 -892.39,-640.44 -891.17,-639.77 -889.00,-638.24 -887.03,-636.46 -885.27,-634.51 -883.01,-631.42" via=":32_11_0" dir="l" state="m"/>
    <connection from="10701" to="10721" fromLane="0" toLane="0" contPos="-4.00" shape="-880.09,-658.95 -881.83,-657.64 -883.44,-656.18 -884.90,-654.57 -886.14,-652.78 -887.10,-650.83 -887.76,-648.76 -888.09,-646.61 -888.09,-644.43 -887.81,-642.28 -887.29,-640.16 -886.57,-638.11 -885.21,-635.14 -883.58,-632.31 -883.01,-631.42" via=":32_3_0" dir="r" state="M"/>
    <connection from="10701" to="10692" fromLane="0" toLane="0" contPos="-4.00" shape="-880.09,-658.95 -885.08,-655.28 -890.67,-650.71 -903.14,-639.88 -908.80,-635.38 -910.46,-634.15" via=":32_4_0" dir="s" state="M"/>
    <connection from="10701" to="10728" fromLane="0" toLane="0" contPos="-4.00" shape="-880.09,-658.95 -883.43,-656.88 -885.79,-655.73 -888.24,-654.83 -890.79,-654.22 -892.09,-654.06 -893.40,-653.99 -894.71,-654.03 -896.01,-654.18 -897.30,-654.44 -898.55,-654.81 -899.77,-655.28 -902.09,-656.50 -904.22,-658.02 -906.16,-659.78 -907.93,-661.72 -909.55,-663.81" via=":32_5_0" dir="l" state="m"/>
    <connection from="10712" to="10806" fromLane="0" toLane="0" contPos="-4.00" shape="-896.34,-562.63 -894.47,-565.11 -892.60,-568.19 -890.83,-571.91 -889.22,-576.25 -887.82,-581.20 -886.64,-586.73 -885.72,-592.84" via=":36_1_0" dir="s" state="m"/>
    <connection from="10712" to="10806" fromLane="1" toLane="0" contPos="-4.00" shape="-893.63,-560.42 -892.78,-561.64 -891.65,-563.93 -890.46,-567.29 -889.14,-572.22 -887.73,-579.22 -886.25,-588.79 -885.72,-592.84" via=":36_1_1" dir="s" state="M"/>
    <connection from="10721" to="10808" fromLane="0" toLane="0" contPos="-4.00" shape="-880.52,-627.64 -878.91,-625.52 -877.03,-623.64 -874.90,-622.04 -872.58,-620.75 -870.12,-619.75 -867.04,-618.90 -863.89,-618.40 -860.18,-618.16 -858.05,-618.17" via=":31_0_0" dir="r" state="M"/>
    <connection from="10722" to="10692" fromLane="0" toLane="0" contPos="-4.00" shape="-885.92,-629.48 -887.89,-632.17 -889.38,-633.83 -891.03,-635.32 -892.85,-636.61 -893.83,-637.14 -894.85,-637.60 -895.90,-637.96 -896.98,-638.23 -898.08,-638.39 -899.19,-638.46 -900.31,-638.42 -901.41,-638.29 -903.58,-637.77 -905.66,-636.98 -907.65,-635.97 -910.46,-634.15" via=":32_0_0" dir="r" state="m"/>
    <connection from="10722" to="10728" fromLane="0" toLane="0" contPos="-4.00" shape="-885.92,-629.48 -888.21,-632.94 -899.31,-649.34 -909.55,-663.81" via=":32_1_0" dir="s" state="m"/>
    <connection from="10722" to="10700" fromLane="0" toLane="0" contPos="-4.00" shape="-885.92,-629.48 -886.59,-630.53 -888.42,-633.72 -889.96,-637.10 -890.78,-639.50 -891.37,-641.99 -891.68,-644.55 -891.64,-647.16 -891.21,-649.76 -890.38,-652.26 -889.19,-654.60 -887.70,-656.72 -885.98,-658.63 -884.09,-660.32 -882.08,-661.82" via=":32_2_0" dir="l" state="m"/>