<routes>
	<vehicle depart="0.1" departLane="0" departPos="66.81430893071946" departSpeed="6.7713366" id="335" type="bicycle">
		<route edges="10691 10700"/>
	</vehicle>
	<vehicle depart="0.1" departLane="0" departPos="4.567268129891864" departSpeed="0.46431219" id="312" type="passenger">
		<route edges=":32_5 10728"/>
	</vehicle>
	<vehicle depart="0.1" departLane="0" departPos="30.01459122306991" departSpeed="0.89863168" id="329" type="passenger">
		<route edges=":32_2 10700"/>
	</vehicle>
	<vehicle depart="0.1" departLane="0" departPos="16.972430510521967" departSpeed="6.3008024" id="331" type="passenger">
		<route edges=":31_0 10808 10709"/>
	</vehicle>
</routes>
