<routes>
	<vehicle depart="0.1" departLane="0" departPos="60.076239011611236" departSpeed="2.376543" id="31" type="passenger">
		<route edges="20609 20210"/>
	</vehicle>
	<vehicle depart="0.1" departLane="0" departPos="7.342293262400193" departSpeed="0.68076307" id="34" type="passenger">
		<route edges=":87_3 20610"/>
	</vehicle>
	<vehicle depart="0.1" departLane="0" departPos="51.72507494453094" departSpeed="0.62301514" id="38" type="passenger">
		<route edges="20207 20610"/>
	</vehicle>
	<vehicle depart="0.1" departLane="0" departPos="41.920962438144734" departSpeed="0.73697938" id="312" type="passenger">
		<route edges="20207 20610"/>
	</vehicle>
	<vehicle depart="0.1" departLane="0" departPos="34.41810979865035" departSpeed="0.39151639" id="313" type="passenger">
		<route edges="20207 20610"/>
	</vehicle>
	<vehicle depart="0.1" departLane="0" departPos="11.422490659129336" departSpeed="9.7970338" id="343" type="passenger">
		<route edges=":87_0 20610 19938"/>
	</vehicle>
	<vehicle depart="0.1" departLane="0" departPos="15.000909057916816" departSpeed="15.132497" id="348" type="passenger">
		<route edges=":86_1 20212 20209"/>
	</vehicle>
	<vehicle depart="0.1" departLane="0" departPos="10.092623277844492" departSpeed="1.751022" id="328" type="motorcycle">
		<route edges="20207 20610"/>
	</vehicle>
	<vehicle depart="0.1" departLane="0" departPos="25.22302342168104" departSpeed="0.94379583" id="323" type="truck">
		<route edges="20207 20610"/>
	</vehicle>
</routes>
