<!-- generated on Tue Feb  9 22:00:22 2021 by Eclipse SUMO netconvert Version 1.8.0
<configuration xmlns:xsi="http://www.w3.org/2001/XMLSchema-instance" xsi:noNamespaceSchemaLocation="http://sumo.dlr.de/xsd/netconvertConfiguration.xsd">

    <input>
        <node-files value="./converted_scenarios/scenario-factory/DEU_Backnang-2_1_I-1-1/DEU_Backnang-2_1_I-1-1.nod.xml"/>
        <edge-files value="./converted_scenarios/scenario-factory/DEU_Backnang-2_1_I-1-1/DEU_Backnang-2_1_I-1-1.edg.xml"/>
        <connection-files value="./converted_scenarios/scenario-factory/DEU_Backnang-2_1_I-1-1/DEU_Backnang-2_1_I-1-1.con.xml"/>
        <tllogic-files value="./converted_scenarios/scenario-factory/DEU_Backnang-2_1_I-1-1/DEU_Backnang-2_1_I-1-1.tll.xml"/>
        <type-files value="/home/zen/commonroad-interactive-benchmarks/install/commonroad-map-tool/crmapconverter/sumo_map/templates/DEU.typ.xml"/>
    </input>

    <output>
        <output-file value="./converted_scenarios/scenario-factory/DEU_Backnang-2_1_I-1-1/DEU_Backnang-2_1_I-1-1.net.xml"/>
    </output>

    <processing>
        <geometry.remove.keep-edges.explicit value="true"/>
        <geometry.avoid-overlap value="true"/>
        <offset.disable-normalization value="true"/>
    </processing>

    <junctions>
        <no-turnarounds value="true"/>
        <junctions.internal-link-detail value="20"/>
    </junctions>

    <report>
        <aggregate-warnings value="5"/>
    </report>

    <random_number>
        <seed value="1234"/>
    </random_number>

</configuration>
--><net xmlns:xsi="http://www.w3.org/2001/XMLSchema-instance" version="1.6" junctionCornerDetail="5" junctionLinkDetail="20" limitTurnSpeed="5.50" xsi:noNamespaceSchemaLocation="http://sumo.dlr.de/xsd/net_file.xsd">

    <location netOffset="0.00,0.00" convBoundary="434.22,802.73,708.00,999.51" origBoundary="434.22,800.01,708.00,999.51" projParameter="!"/>

    <type id="highway.bridleway" priority="1" speed="2.78" allow="pedestrian" oneway="1" width="2.00"/>
    <type id="highway.bus_guideway" priority="1" speed="27.78" allow="bus" oneway="1"/>
    <type id="highway.cycleway" priority="1" speed="8.33" allow="bicycle" oneway="0" width="1.00"/>
    <type id="highway.footway" priority="1" speed="2.78" allow="pedestrian" oneway="1" width="2.00"/>
    <type id="highway.ford" priority="1" speed="2.78" allow="army" oneway="0"/>
    <type id="highway.living_street" priority="2" speed="2.78" disallow="tram rail_urban rail rail_electric rail_fast ship" oneway="0"/>
    <type id="highway.motorway" priority="14" speed="39.44" allow="private emergency authority army vip passenger hov taxi bus coach delivery truck trailer motorcycle evehicle custom1 custom2" oneway="1"/>
    <type id="highway.motorway_link" priority="9" speed="22.22" allow="private emergency authority army vip passenger hov taxi bus coach delivery truck trailer motorcycle evehicle custom1 custom2" oneway="1"/>
    <type id="highway.path" priority="1" speed="2.78" allow="pedestrian bicycle" oneway="0" width="2.00"/>
    <type id="highway.pedestrian" priority="1" speed="2.78" allow="pedestrian" oneway="1" width="2.00"/>
    <type id="highway.primary" priority="12" speed="27.78" disallow="pedestrian tram rail_urban rail rail_electric rail_fast ship" oneway="0"/>
    <type id="highway.primary_link" priority="7" speed="22.22" disallow="pedestrian tram rail_urban rail rail_electric rail_fast ship" oneway="0"/>
    <type id="highway.raceway" priority="15" speed="83.33" allow="vip" oneway="0"/>
    <type id="highway.residential" priority="3" speed="13.89" disallow="pedestrian tram rail_urban rail rail_electric rail_fast ship" oneway="0"/>
    <type id="highway.secondary" priority="11" speed="27.78" disallow="pedestrian tram rail_urban rail rail_electric rail_fast ship" oneway="0"/>
    <type id="highway.secondary_link" priority="6" speed="22.22" disallow="pedestrian tram rail_urban rail rail_electric rail_fast ship" oneway="0"/>
    <type id="highway.service" priority="1" speed="5.56" allow="pedestrian delivery bicycle" oneway="0"/>
    <type id="highway.stairs" priority="1" speed="1.39" allow="pedestrian" oneway="1" width="2.00"/>
    <type id="highway.step" priority="1" speed="1.39" allow="pedestrian" oneway="1" width="2.00"/>
    <type id="highway.steps" priority="1" speed="1.39" allow="pedestrian" oneway="1" width="2.00"/>
    <type id="highway.tertiary" priority="10" speed="22.22" disallow="pedestrian tram rail_urban rail rail_electric rail_fast ship" oneway="0"/>
    <type id="highway.tertiary_link" priority="5" speed="22.22" disallow="pedestrian tram rail_urban rail rail_electric rail_fast ship" oneway="0"/>
    <type id="highway.track" priority="1" speed="5.56" allow="pedestrian motorcycle moped bicycle" oneway="0"/>
    <type id="highway.trunk" priority="13" speed="27.78" disallow="pedestrian bicycle tram rail_urban rail rail_electric rail_fast ship" oneway="0"/>
    <type id="highway.trunk_link" priority="8" speed="22.22" disallow="pedestrian bicycle tram rail_urban rail rail_electric rail_fast ship" oneway="0"/>
    <type id="highway.unclassified" priority="4" speed="13.89" disallow="pedestrian tram rail_urban rail rail_electric rail_fast ship" oneway="0"/>
    <type id="highway.unsurfaced" priority="1" speed="8.33" disallow="tram rail_urban rail rail_electric rail_fast ship" oneway="0"/>
    <type id="railway.highspeed" priority="21" speed="69.44" allow="rail_fast" oneway="1"/>
    <type id="railway.light_rail" priority="19" speed="27.78" allow="rail_urban" oneway="1"/>
    <type id="railway.preserved" priority="16" speed="27.78" allow="rail" oneway="1"/>
    <type id="railway.rail" priority="20" speed="44.44" allow="rail" oneway="1"/>
    <type id="railway.subway" priority="18" speed="27.78" allow="rail_urban" oneway="1"/>
    <type id="railway.tram" priority="17" speed="13.89" allow="tram" oneway="1"/>

    <edge id=":43_0" function="internal">
        <lane id=":43_0_0" index="0" disallow="pedestrian tram rail_urban rail rail_electric rail_fast ship" speed="36.11" length="3.61" width="3.50" shape="665.43,935.05 661.84,935.39"/>
    </edge>
    <edge id=":46_0" function="internal">
        <lane id=":46_0_0" index="0" disallow="pedestrian tram rail_urban rail rail_electric rail_fast ship" speed="36.11" length="2.88" width="3.50" shape="680.77,951.70 680.21,948.88"/>
    </edge>
    <edge id=":48_0" function="internal">
        <lane id=":48_0_0" index="0" disallow="pedestrian tram rail_urban rail rail_electric rail_fast ship" speed="36.11" length="5.22" width="3.50" shape="596.04,804.96 595.67,805.08 595.33,805.20 595.04,805.30 594.77,805.40 594.52,805.50 594.30,805.59 594.09,805.67 593.89,805.76 593.70,805.84 593.51,805.93 593.32,806.02 593.13,806.11 592.92,806.21 592.71,806.32 592.47,806.43 592.21,806.56 591.92,806.69 591.60,806.84 591.25,807.01"/>
    </edge>
    <edge id=":59_0" function="internal">
        <lane id=":59_0_0" index="0" disallow="pedestrian tram rail_urban rail rail_electric rail_fast ship" speed="36.11" length="4.88" width="3.50" shape="589.98,803.74 594.46,801.80"/>
    </edge>
    <edge id=":61_0" function="internal">
        <lane id=":61_0_0" index="0" disallow="pedestrian tram rail_urban rail rail_electric rail_fast ship" speed="36.11" length="0.10" width="3.50" shape="663.28,931.66 663.28,931.66"/>
    </edge>
    <edge id=":66_0" function="internal">
        <lane id=":66_0_0" index="0" disallow="pedestrian tram rail_urban rail rail_electric rail_fast ship" speed="11.02" length="29.21" width="3.50" shape="605.68,861.13 604.25,857.91 603.11,855.94 601.79,854.11 600.24,852.48 599.43,851.81 598.54,851.19 597.61,850.66 596.64,850.22 595.63,849.87 594.59,849.62 593.52,849.45 592.46,849.38 590.21,849.47 587.98,849.86 585.77,850.47 582.47,851.75"/>
    </edge>
    <edge id=":66_1" function="internal">
        <lane id=":66_1_0" index="0" disallow="pedestrian tram rail_urban rail rail_electric rail_fast ship" speed="12.05" length="30.49" width="3.50" shape="605.68,861.13 604.86,858.84 603.84,855.35 603.15,851.75 602.93,849.25 602.98,846.71 603.37,844.19 603.73,842.90 604.20,841.66 604.78,840.47 605.48,839.33 606.29,838.27 607.19,837.29 608.17,836.41 609.24,835.60 611.40,834.33"/>
    </edge>
    <edge id=":66_2" function="internal">
        <lane id=":66_2_0" index="0" disallow="pedestrian tram rail_urban rail rail_electric rail_fast ship" speed="10.97" length="25.34" width="3.50" shape="613.00,837.44 611.19,838.52 610.36,839.16 609.58,839.88 608.89,840.67 608.27,841.53 607.75,842.45 607.31,843.41 606.98,844.41 606.72,845.44 606.46,847.53 606.47,849.64 606.69,851.74 607.32,854.84 608.23,857.88 608.95,859.87"/>
    </edge>
    <edge id=":66_3" function="internal">
        <lane id=":66_3_0" index="0" disallow="pedestrian tram rail_urban rail rail_electric rail_fast ship" speed="36.11" length="33.72" width="3.50" shape="613.00,837.44 599.72,843.86 582.47,851.75"/>
    </edge>
    <edge id=":66_4" function="internal">
        <lane id=":66_4_0" index="0" disallow="pedestrian tram rail_urban rail rail_electric rail_fast ship" speed="36.11" length="33.55" width="3.50" shape="581.02,848.56 598.23,840.69 611.40,834.33"/>
    </edge>
    <edge id=":66_5" function="internal">
        <lane id=":66_5_0" index="0" disallow="pedestrian tram rail_urban rail rail_electric rail_fast ship" speed="12.03" length="35.02" width="3.50" shape="581.02,848.56 584.83,847.09 587.42,846.37 590.07,845.92 592.76,845.81 594.10,845.90 595.43,846.10 596.73,846.42 598.01,846.86 599.23,847.42 600.40,848.09 601.50,848.86 602.53,849.72 604.38,851.67 605.96,853.85 607.30,856.18 608.95,859.87"/>
    </edge>
    <edge id=":67_0" function="internal">
        <lane id=":67_0_0" index="0" disallow="pedestrian tram rail_urban rail rail_electric rail_fast ship" speed="11.03" length="28.85" width="3.50" shape="607.41,922.91 605.84,919.97 604.59,918.13 603.16,916.44 601.51,914.95 600.61,914.31 599.65,913.75 598.65,913.27 597.61,912.89 596.53,912.61 595.44,912.43 594.33,912.34 593.23,912.34 591.02,912.59 588.86,913.10 586.77,913.82 583.74,915.21"/>
    </edge>
    <edge id=":67_1" function="internal">
        <lane id=":67_1_0" index="0" disallow="pedestrian tram rail_urban rail rail_electric rail_fast ship" speed="10.73" length="27.72" width="3.50" shape="607.40,922.92 605.77,919.08 604.46,915.14 603.84,912.43 603.52,909.68 603.52,908.30 603.65,906.92 603.92,905.56 604.37,904.25 605.01,903.02 605.82,901.90 606.80,900.92 607.90,900.09 609.11,899.40 610.38,898.84"/>
    </edge>
    <edge id=":67_2" function="internal">
        <lane id=":67_2_0" index="0" disallow="pedestrian tram rail_urban rail rail_electric rail_fast ship" speed="9.58" length="21.93" width="3.50" shape="611.67,902.09 610.69,902.52 609.83,903.03 609.07,903.64 608.42,904.35 607.90,905.16 607.51,906.06 607.25,907.04 607.10,908.07 607.05,909.14 607.10,910.22 607.43,912.50 607.99,914.75 609.15,918.13 610.57,921.41"/>
    </edge>
    <edge id=":67_3" function="internal">
        <lane id=":67_3_0" index="0" disallow="pedestrian tram rail_urban rail rail_electric rail_fast ship" speed="36.11" length="30.87" width="3.50" shape="611.67,902.09 605.01,904.85 595.70,909.18 583.74,915.21"/>
    </edge>
    <edge id=":67_4" function="internal">
        <lane id=":67_4_0" index="0" disallow="pedestrian tram rail_urban rail rail_electric rail_fast ship" speed="36.11" length="31.25" width="3.50" shape="582.11,912.12 594.21,906.01 603.64,901.63 610.38,898.84"/>
    </edge>
    <edge id=":67_5" function="internal">
        <lane id=":67_5_0" index="0" disallow="pedestrian tram rail_urban rail rail_electric rail_fast ship" speed="12.08" length="34.59" width="3.50" shape="582.11,912.11 585.62,910.51 588.09,909.65 590.66,909.05 593.29,908.76 594.68,908.76 596.04,908.87 597.40,909.10 598.74,909.45 600.04,909.93 601.28,910.52 602.47,911.22 603.60,912.04 605.57,913.82 607.29,915.85 608.76,918.03 610.57,921.41"/>
    </edge>
    <edge id=":68_0" function="internal">
        <lane id=":68_0_0" index="0" disallow="pedestrian tram rail_urban rail rail_electric rail_fast ship" speed="36.11" length="26.89" width="3.50" shape="638.08,896.53 637.07,896.56 631.90,896.97 626.79,897.75 621.74,898.87 616.75,900.31 611.88,902.02"/>
    </edge>
    <edge id=":68_1" function="internal">
        <lane id=":68_1_0" index="0" disallow="pedestrian tram rail_urban rail rail_electric rail_fast ship" speed="13.99" length="33.17" width="3.50" shape="638.08,896.53 634.39,896.45 631.95,896.17 629.54,895.70 627.18,895.00 624.91,894.07 622.75,892.89 620.75,891.47 618.92,889.84 617.27,888.01 615.82,886.03 614.56,883.92 612.99,880.59 612.55,879.44"/>
    </edge>
    <edge id=":68_2" function="internal">
        <lane id=":68_2_0" index="0" disallow="pedestrian tram rail_urban rail rail_electric rail_fast ship" speed="13.07" length="28.84" width="3.50" shape="615.82,878.22 616.21,879.22 617.61,882.19 618.70,884.02 619.96,885.73 621.37,887.30 622.94,888.70 624.65,889.90 626.49,890.91 628.44,891.71 630.47,892.31 632.57,892.72 634.70,892.96 638.02,893.03"/>
    </edge>
    <edge id=":68_3" function="internal">
        <lane id=":68_3_0" index="0" disallow="pedestrian tram rail_urban rail rail_electric rail_fast ship" speed="10.89" length="26.96" width="3.50" shape="615.82,878.22 616.26,879.43 617.38,883.01 618.21,886.71 618.55,889.29 618.60,891.90 618.48,893.27 618.23,894.63 617.83,895.99 617.26,897.31 616.49,898.55 615.53,899.67 614.41,900.64 613.18,901.42 611.88,902.02"/>
    </edge>
    <edge id=":68_4" function="internal">
        <lane id=":68_4_0" index="0" disallow="pedestrian tram rail_urban rail rail_electric rail_fast ship" speed="9.78" length="21.51" width="3.50" shape="610.61,898.75 611.58,898.30 612.48,897.70 613.26,896.97 613.90,896.11 614.40,895.15 614.75,894.13 614.97,893.08 615.10,892.01 615.13,890.94 614.99,888.79 614.66,886.67 613.89,883.53 612.91,880.45 612.55,879.44"/>
    </edge>
    <edge id=":68_5" function="internal">
        <lane id=":68_5_0" index="0" disallow="pedestrian tram rail_urban rail rail_electric rail_fast ship" speed="36.11" length="28.13" width="3.50" shape="610.61,898.75 615.71,896.97 620.90,895.47 626.17,894.31 631.51,893.49 636.90,893.07 638.02,893.03"/>
    </edge>
    <edge id=":69_0" function="internal">
        <lane id=":69_0_0" index="0" disallow="pedestrian tram rail_urban rail rail_electric rail_fast ship" speed="36.11" length="38.30" width="3.50" shape="543.11,937.85 532.42,944.20 510.31,957.62"/>
    </edge>
    <edge id=":69_1" function="internal">
        <lane id=":69_1_0" index="0" disallow="pedestrian tram rail_urban rail rail_electric rail_fast ship" speed="11.91" length="35.48" width="3.50" shape="543.11,937.85 540.71,939.16 538.22,940.28 535.64,941.15 532.97,941.70 531.61,941.82 530.24,941.83 528.88,941.72 527.54,941.47 526.23,941.08 524.97,940.57 523.76,939.93 522.63,939.18 521.56,938.33 519.62,936.40 517.95,934.25 516.51,931.93 514.68,928.27"/>
    </edge>
    <edge id=":69_2" function="internal">
        <lane id=":69_2_0" index="0" disallow="pedestrian tram rail_urban rail rail_electric rail_fast ship" speed="10.89" length="29.45" width="3.50" shape="517.88,926.86 519.47,930.06 520.70,932.02 522.10,933.84 523.71,935.45 524.55,936.11 525.46,936.71 526.41,937.22 527.40,937.63 528.42,937.93 529.47,938.13 530.54,938.22 531.64,938.21 532.70,938.12 534.94,937.66 537.12,936.93 539.25,935.97 541.35,934.82"/>
    </edge>
    <edge id=":69_3" function="internal">
        <lane id=":69_3_0" index="0" disallow="pedestrian tram rail_urban rail rail_electric rail_fast ship" speed="13.06" length="35.19" width="3.50" shape="517.88,926.86 519.22,930.26 520.25,933.78 520.72,936.23 520.97,938.73 520.96,941.26 520.64,943.80 519.98,946.29 518.98,948.66 517.66,950.87 516.08,952.87 514.30,954.66 512.35,956.24 510.31,957.62"/>
    </edge>
    <edge id=":69_4" function="internal">
        <lane id=":69_4_0" index="0" disallow="pedestrian tram rail_urban rail rail_electric rail_fast ship" speed="12.12" length="30.16" width="3.50" shape="508.45,954.66 510.24,953.45 511.91,952.09 513.42,950.56 514.75,948.86 515.83,947.00 516.65,945.01 517.18,942.92 517.43,940.79 517.42,938.63 517.20,936.49 516.78,934.38 515.87,931.28 514.68,928.27"/>
    </edge>
    <edge id=":69_5" function="internal">
        <lane id=":69_5_0" index="0" disallow="pedestrian tram rail_urban rail rail_electric rail_fast ship" speed="36.11" length="38.42" width="3.50" shape="508.45,954.66 530.62,941.20 541.35,934.82"/>
    </edge>
    <edge id=":70_0" function="internal">
        <lane id=":70_0_0" index="0" disallow="pedestrian tram rail_urban rail rail_electric rail_fast ship" speed="10.50" length="30.21" width="3.50" shape="619.32,961.48 618.55,958.07 617.81,955.87 616.83,953.76 616.24,952.77 615.56,951.82 614.80,950.94 613.96,950.15 613.03,949.45 612.02,948.87 610.95,948.42 609.83,948.10 608.69,947.90 607.53,947.81 606.37,947.82 604.06,948.09 601.80,948.63 599.60,949.36 597.45,950.24"/>
    </edge>
    <edge id=":70_1" function="internal">
        <lane id=":70_1_0" index="0" disallow="pedestrian tram rail_urban rail rail_electric rail_fast ship" speed="36.11" length="40.25" width="3.50" shape="619.32,961.48 618.56,957.42 616.99,950.36 615.11,943.38 612.91,936.50 610.38,929.75 607.50,923.12"/>
    </edge>
    <edge id=":70_2" function="internal">
        <lane id=":70_2_0" index="0" disallow="pedestrian tram rail_urban rail rail_electric rail_fast ship" speed="12.35" length="35.82" width="3.50" shape="619.32,961.48 618.81,957.53 618.70,954.88 618.83,952.23 619.25,949.61 620.02,947.07 620.55,945.85 621.18,944.69 621.91,943.58 622.74,942.55 623.67,941.59 624.67,940.73 625.74,939.95 628.05,938.64 630.51,937.66 633.07,936.95 635.68,936.46 637.00,936.29"/>
    </edge>
    <edge id=":70_3" function="internal">
        <lane id=":70_3_0" index="0" disallow="pedestrian tram rail_urban rail rail_electric rail_fast ship" speed="11.35" length="30.09" width="3.50" shape="637.48,939.75 636.26,939.91 633.99,940.33 631.81,940.94 629.75,941.77 627.83,942.86 626.99,943.48 626.19,944.18 625.46,944.95 624.80,945.77 624.22,946.66 623.72,947.60 623.30,948.55 622.67,950.67 622.33,952.87 622.22,955.13 622.32,957.40 622.77,960.87"/>
    </edge>
    <edge id=":70_4" function="internal">
        <lane id=":70_4_0" index="0" disallow="pedestrian tram rail_urban rail rail_electric rail_fast ship" speed="36.11" length="41.54" width="3.50" shape="637.48,939.75 636.40,939.88 629.36,940.88 622.40,942.20 615.52,943.86 608.74,945.89 603.04,947.92 597.45,950.24"/>
    </edge>
    <edge id=":70_5" function="internal">
        <lane id=":70_5_0" index="0" disallow="pedestrian tram rail_urban rail rail_electric rail_fast ship" speed="14.39" length="37.05" width="3.50" shape="637.48,939.76 633.82,940.02 630.25,939.93 626.70,939.45 624.39,938.88 622.14,938.10 619.97,937.10 617.92,935.89 615.99,934.49 614.21,932.91 612.58,931.17 610.42,928.32 608.57,925.26 607.50,923.12"/>
    </edge>
    <edge id=":70_6" function="internal">
        <lane id=":70_6_0" index="0" disallow="pedestrian tram rail_urban rail rail_electric rail_fast ship" speed="13.49" length="32.57" width="3.50" shape="610.67,921.64 611.63,923.55 613.28,926.29 615.20,928.82 616.62,930.33 618.17,931.71 619.84,932.93 621.63,933.97 623.50,934.84 625.47,935.52 627.47,936.01 630.62,936.44 633.80,936.51 637.00,936.29"/>
    </edge>
    <edge id=":70_7" function="internal">
        <lane id=":70_7_0" index="0" disallow="pedestrian tram rail_urban rail rail_electric rail_fast ship" speed="36.11" length="41.17" width="3.50" shape="610.67,921.64 613.62,928.43 616.21,935.34 618.47,942.38 620.39,949.51 621.99,956.72 622.77,960.87"/>
    </edge>
    <edge id=":70_8" function="internal">
        <lane id=":70_8_0" index="0" disallow="pedestrian tram rail_urban rail rail_electric rail_fast ship" speed="12.49" length="36.13" width="3.50" shape="610.67,921.64 611.19,922.82 612.06,925.19 612.71,927.69 613.05,930.27 613.03,932.88 612.86,934.24 612.57,935.55 612.18,936.83 611.68,938.07 611.07,939.29 609.63,941.47 607.92,943.42 606.02,945.15 603.97,946.67 600.78,948.60 597.45,950.24"/>
    </edge>
    <edge id=":70_9" function="internal">
        <lane id=":70_9_0" index="0" disallow="pedestrian tram rail_urban rail rail_electric rail_fast ship" speed="11.50" length="30.51" width="3.50" shape="596.00,947.06 598.96,945.61 601.75,943.92 603.51,942.63 605.13,941.18 606.58,939.56 607.80,937.76 608.30,936.79 608.72,935.79 609.06,934.75 609.30,933.69 609.46,932.62 609.50,930.44 609.23,928.28 608.69,926.17 607.94,924.13 607.50,923.12"/>
    </edge>
    <edge id=":70_10" function="internal">
        <lane id=":70_10_0" index="0" disallow="pedestrian tram rail_urban rail rail_electric rail_fast ship" speed="36.11" length="42.55" width="3.50" shape="596.00,947.06 601.77,944.66 607.63,942.57 614.59,940.49 621.64,938.78 628.77,937.43 635.96,936.41 637.00,936.29"/>
    </edge>
    <edge id=":70_11" function="internal">
        <lane id=":70_11_0" index="0" disallow="pedestrian tram rail_urban rail rail_electric rail_fast ship" speed="11.54" length="36.80" width="3.50" shape="596.00,947.06 598.52,946.02 601.10,945.17 603.79,944.53 606.55,944.21 608.01,944.20 609.46,944.31 610.91,944.57 612.34,944.99 613.72,945.58 615.02,946.33 616.22,947.23 617.30,948.24 618.25,949.35 619.09,950.53 619.83,951.78 620.99,954.30 621.87,956.92 622.77,960.87"/>
    </edge>
    <edge id=":71_0" function="internal">
        <lane id=":71_0_0" index="0" disallow="pedestrian tram rail_urban rail rail_electric rail_fast ship" speed="16.08" length="23.68" width="3.50" shape="636.14,834.48 633.17,833.74 630.10,833.36 627.01,833.36 623.94,833.70 620.91,834.36 617.96,835.29 615.10,836.44 613.23,837.33"/>
    </edge>
    <edge id=":71_1" function="internal">
        <lane id=":71_1_0" index="0" disallow="pedestrian tram rail_urban rail rail_electric rail_fast ship" speed="16.97" length="29.13" width="3.50" shape="636.14,834.48 634.01,833.68 631.95,832.66 629.99,831.45 627.31,829.36 624.91,826.99 622.76,824.40 620.85,821.67 618.64,817.87 616.71,813.93"/>
    </edge>
    <edge id=":71_2" function="internal">
        <lane id=":71_2_0" index="0" disallow="pedestrian tram rail_urban rail rail_electric rail_fast ship" speed="17.41" length="28.45" width="3.50" shape="619.91,812.50 620.61,814.01 621.36,815.46 622.14,816.86 622.95,818.21 623.80,819.50 624.69,820.74 625.61,821.93 626.57,823.06 627.57,824.15 628.60,825.17 629.67,826.15 630.78,827.07 631.92,827.94 633.09,828.75 634.31,829.51 635.56,830.22 636.85,830.88 638.17,831.48 639.53,832.03"/>
    </edge>
    <edge id=":71_3" function="internal">
        <lane id=":71_3_0" index="0" disallow="pedestrian tram rail_urban rail rail_electric rail_fast ship" speed="11.46" length="29.20" width="3.50" shape="619.89,812.47 621.36,816.21 622.08,818.76 622.54,821.37 622.66,824.01 622.57,825.34 622.37,826.65 622.04,827.93 621.59,829.18 621.02,830.37 620.33,831.50 619.53,832.56 618.64,833.54 617.67,834.44 615.54,836.02 613.23,837.33"/>
    </edge>
    <edge id=":71_4" function="internal">
        <lane id=":71_4_0" index="0" disallow="pedestrian tram rail_urban rail rail_electric rail_fast ship" speed="10.31" length="23.76" width="3.50" shape="611.65,834.20 613.58,833.11 615.33,831.80 616.07,831.09 616.77,830.32 617.38,829.49 617.90,828.60 618.33,827.68 618.67,826.71 618.91,825.70 619.05,824.66 619.11,823.64 618.99,821.45 618.59,819.28 617.97,817.13 616.71,813.93"/>
    </edge>
    <edge id=":71_5" function="internal">
        <lane id=":71_5_0" index="0" disallow="pedestrian tram rail_urban rail rail_electric rail_fast ship" speed="19.90" length="22.44" width="3.50" shape="611.67,834.19 612.44,833.85 613.34,833.50 614.34,833.16 615.43,832.82 616.59,832.49 617.83,832.17 619.11,831.87 620.44,831.58 621.78,831.31 623.14,831.06 624.50,830.84 625.83,830.64 627.14,830.48 628.41,830.34 629.61,830.25 630.75,830.19 631.80,830.17 632.76,830.20 633.60,830.28"/>
    </edge>
    <edge id=":73_0" function="internal">
        <lane id=":73_0_0" index="0" disallow="pedestrian tram rail_urban rail rail_electric rail_fast ship" speed="11.05" length="29.15" width="3.50" shape="506.40,908.85 504.87,905.64 503.69,903.70 502.32,901.92 500.73,900.35 499.90,899.71 499.00,899.12 498.06,898.63 497.08,898.23 496.06,897.92 495.02,897.71 493.95,897.60 492.89,897.57 490.65,897.76 488.44,898.24 486.27,898.94 483.02,900.35"/>
    </edge>
    <edge id=":73_1" function="internal">
        <lane id=":73_1_0" index="0" disallow="pedestrian tram rail_urban rail rail_electric rail_fast ship" speed="12.55" length="34.55" width="3.50" shape="506.40,908.86 505.08,905.20 504.43,902.73 503.99,900.21 503.82,897.66 503.96,895.11 504.46,892.60 505.32,890.20 506.54,887.96 508.08,885.92 509.87,884.10 511.85,882.49 513.98,881.08 516.22,879.84"/>
    </edge>
    <edge id=":73_2" function="internal">
        <lane id=":73_2_0" index="0" disallow="pedestrian tram rail_urban rail rail_electric rail_fast ship" speed="11.58" length="29.24" width="3.50" shape="517.82,882.96 515.86,884.04 514.02,885.26 512.33,886.62 510.84,888.15 509.57,889.84 508.57,891.68 507.88,893.65 507.48,895.72 507.37,897.84 507.52,900.00 507.90,902.16 508.47,904.29 509.62,907.49"/>
    </edge>
    <edge id=":73_3" function="internal">
        <lane id=":73_3_0" index="0" disallow="pedestrian tram rail_urban rail rail_electric rail_fast ship" speed="36.11" length="38.90" width="3.50" shape="517.82,882.96 500.42,891.65 483.02,900.35"/>
    </edge>
    <edge id=":73_4" function="internal">
        <lane id=":73_4_0" index="0" disallow="pedestrian tram rail_urban rail rail_electric rail_fast ship" speed="36.11" length="38.85" width="3.50" shape="481.47,897.22 498.86,888.52 516.22,879.84"/>
    </edge>
    <edge id=":73_5" function="internal">
        <lane id=":73_5_0" index="0" disallow="pedestrian tram rail_urban rail rail_electric rail_fast ship" speed="12.06" length="34.97" width="3.50" shape="481.47,897.22 485.19,895.60 487.75,894.77 490.37,894.21 493.05,893.98 494.39,894.02 495.72,894.16 497.04,894.43 498.32,894.82 499.57,895.33 500.75,895.96 501.88,896.69 502.94,897.52 504.84,899.41 506.48,901.54 507.88,903.83 509.62,907.49"/>
    </edge>

    <edge id="40580" from="54" to="46" priority="3" type="highway.residential" spreadType="center" length="3.77">
        <lane id="40580_0" index="0" disallow="pedestrian tram rail_urban rail rail_electric rail_fast ship" speed="36.11" length="3.77" width="3.50" customShape="1" shape="681.42,955.41 680.77,951.70"/>
    </edge>
    <edge id="40581" from="61" to="62" priority="3" type="highway.residential" spreadType="center" length="31.15">
        <lane id="40581_0" index="0" disallow="pedestrian tram rail_urban rail rail_electric rail_fast ship" speed="36.11" length="31.15" width="3.50" customShape="1" shape="663.28,931.66 665.89,931.52 668.45,931.65 670.98,932.12 672.21,932.49 673.41,932.96 674.56,933.53 675.66,934.20 676.69,934.97 677.65,935.82 678.54,936.75 680.08,938.81 681.34,941.05 682.34,943.42 683.12,945.87 683.96,949.64 683.98,949.76 684.00,949.89"/>
    </edge>
    <edge id="40662" from="66" to="68" priority="3" type="highway.residential" spreadType="center" length="19.61" shape="602.00,848.08 622.76,890.62">
        <lane id="40662_0" index="0" disallow="pedestrian tram rail_urban rail rail_electric rail_fast ship" speed="36.11" length="19.61" width="3.50" customShape="1" shape="608.95,859.87 612.39,869.05 615.83,878.23"/>
    </edge>
    <edge id="40663" from="68" to="66" priority="3" type="highway.residential" spreadType="center" length="19.60" shape="619.62,892.16 598.85,849.61">
        <lane id="40663_0" index="0" disallow="pedestrian tram rail_urban rail rail_electric rail_fast ship" speed="36.11" length="19.60" width="3.50" customShape="1" shape="612.55,879.44 609.11,870.28 605.67,861.09"/>
    </edge>
    <edge id="40727" from="69" to="73" priority="3" type="highway.residential" spreadType="center" length="21.13" shape="521.04,940.74 500.81,896.79">
        <lane id="40727_0" index="0" disallow="pedestrian tram rail_urban rail rail_electric rail_fast ship" speed="36.11" length="21.13" width="3.50" customShape="1" shape="514.68,928.27 513.64,925.91 506.39,908.83"/>
    </edge>
    <edge id="40728" from="73" to="69" priority="3" type="highway.residential" spreadType="center" length="21.07" shape="503.99,895.32 524.22,939.28">
        <lane id="40728_0" index="0" disallow="pedestrian tram rail_urban rail rail_electric rail_fast ship" speed="36.11" length="21.07" width="3.50" customShape="1" shape="509.62,907.49 516.86,924.51 517.88,926.87"/>
    </edge>
    <edge id="40730" from="48" to="49" priority="3" type="highway.residential" spreadType="center" length="67.40">
        <lane id="40730_0" index="0" disallow="pedestrian tram rail_urban rail rail_electric rail_fast ship" speed="36.11" length="67.40" width="3.50" customShape="1" shape="591.25,807.01 587.68,808.62 564.91,819.15 530.29,835.75"/>
    </edge>
    <edge id="40731" from="60" to="59" priority="3" type="highway.residential" spreadType="center" length="67.55">
        <lane id="40731_0" index="0" disallow="pedestrian tram rail_urban rail rail_electric rail_fast ship" speed="36.11" length="67.55" width="3.50" customShape="1" shape="528.88,832.55 563.40,815.99 586.22,805.44 589.98,803.74"/>
    </edge>
    <edge id="40762" from="69" to="51" priority="3" type="highway.residential" spreadType="center" length="42.88" shape="523.74,941.36 473.85,980.18">
        <lane id="40762_0" index="0" disallow="pedestrian tram rail_urban rail rail_electric rail_fast ship" speed="36.11" length="42.88" width="3.50" customShape="1" shape="510.31,957.62 492.07,968.91 473.85,980.18"/>
    </edge>
    <edge id="40763" from="57" to="69" priority="3" type="highway.residential" spreadType="center" length="42.83" shape="472.04,977.18 521.59,938.60">