<routes>
	<vehicle depart="0.1" departLane="0" departPos="52.63048976675693" departSpeed="0.59126108" id="369" type="bus">
		<route edges="40941 40944"/>
	</vehicle>
	<vehicle depart="0.1" departLane="0" departPos="11.239555046258115" departSpeed="2.0167873" id="33" type="passenger">
		<route edges="40728 40762"/>
	</vehicle>
	<vehicle depart="0.1" departLane="0" departPos="29.09666652595132" departSpeed="1.3248446" id="345" type="passenger">
		<route edges=":73_2 40728 40762"/>
	</vehicle>
	<vehicle depart="0.1" departLane="0" departPos="30.69062401205288" departSpeed="7.1269803e-05" id="350" type="passenger">
		<route edges="40890 40788"/>
	</vehicle>
	<vehicle depart="0.1" departLane="0" departPos="23.277258029118883" departSpeed="0.00035187143" id="358" type="passenger">
		<route edges="40890 40788"/>
	</vehicle>
	<vehicle depart="0.1" departLane="0" departPos="15.775267857419848" departSpeed="0.0013396729" id="367" type="passenger">
		<route edges="40890 40788"/>
	</vehicle>
	<vehicle depart="0.1" departLane="0" departPos="8.270184903357539" departSpeed="0.0046065629" id="374" type="passenger">
		<route edges="40890 40788"/>
	</vehicle>
	<vehicle depart="0.1" departLane="0" departPos="6.919772176940866" departSpeed="5.5518513" id="378" type="passenger">
		<route edges=":69_2 40766"/>
	</vehicle>
	<vehicle depart="0.1" departLane="0" departPos="16.06471702082358" departSpeed="9.0492705" id="380" type="passenger">
		<route edges=":69_5 40766"/>
	</vehicle>
	<vehicle depart="0.1" departLane="0" departPos="2.5" departSpeed="5.8373644" id="383" type="passenger">
		<route edges=":69_5 40766"/>
	</vehicle>
</routes>
