<?xml version="1.0" encoding="UTF-8"?>

<!-- generated on Fri Dec 18 16:44:56 2020 by Eclipse SUMO netconvert Version 1.8.0
<configuration xmlns:xsi="http://www.w3.org/2001/XMLSchema-instance" xsi:noNamespaceSchemaLocation="http://sumo.dlr.de/xsd/netconvertConfiguration.xsd">

    <input>
        <node-files value="./converted_scenarios/SUMO/DEU_Muc-13_1_I-1-1/nodes.net.xml"/>
        <edge-files value="./converted_scenarios/SUMO/DEU_Muc-13_1_I-1-1/edges.net.xml"/>
        <connection-files value="./converted_scenarios/SUMO/DEU_Muc-13_1_I-1-1/_connections.net.xml"/>
        <tllogic-files value="./converted_scenarios/SUMO/DEU_Muc-13_1_I-1-1/_tll.net.xml"/>
    </input>

    <output>
        <output-file value="./converted_scenarios/SUMO/DEU_Muc-13_1_I-1-1/DEU_Muc-13_1_I-1-1.net.xml"/>
    </output>

    <processing>
        <plain.extend-edge-shape value="true"/>
        <geometry.remove.keep-edges.explicit value="true"/>
        <geometry.avoid-overlap value="true"/>
        <offset.disable-normalization value="true"/>
    </processing>

    <junctions>
        <no-turnarounds value="true"/>
        <junctions.internal-link-detail value="20"/>
    </junctions>

    <report>
        <aggregate-warnings value="5"/>
    </report>

    <random_number>
        <seed value="1234"/>
    </random_number>

</configuration>
-->

<net version="1.6" junctionCornerDetail="5" junctionLinkDetail="20" limitTurnSpeed="5.50" xmlns:xsi="http://www.w3.org/2001/XMLSchema-instance" xsi:noNamespaceSchemaLocation="http://sumo.dlr.de/xsd/net_file.xsd">

    <location netOffset="0.00,0.00" convBoundary="-60.69,-115.75,141.46,145.38" origBoundary="-60.69,-115.75,141.46,145.38" projParameter="!"/>

    <edge id=":1_0" function="internal">
        <lane id=":1_0_0" index="0" disallow="rail_fast" speed="36.11" length="9.14" width="2.50" shape="78.34,-17.45 85.62,-11.92"/>
    </edge>
    <edge id=":1_1" function="internal">
        <lane id=":1_1_0" index="0" disallow="bus truck rail_fast" speed="9.62" length="9.81" width="2.50" shape="76.57,-14.81 77.01,-14.89 77.45,-14.94 77.89,-14.97 78.34,-14.97 78.80,-14.95 79.26,-14.90 79.72,-14.83 80.19,-14.73 80.66,-14.60 81.14,-14.45 81.62,-14.27 82.10,-14.07 82.59,-13.84 83.08,-13.58 83.58,-13.30 84.08,-12.99 84.59,-12.66 85.10,-12.30 85.62,-11.92"/>
    </edge>
    <edge id=":10_0" function="internal">
        <lane id=":10_0_0" index="0" disallow="rail_fast" speed="36.11" length="8.77" width="2.50" shape="71.18,-22.85 78.18,-17.57"/>
    </edge>
    <edge id=":10_1" function="internal">
        <lane id=":10_1_0" index="0" disallow="bus truck rail_fast" speed="7.98" length="9.57" width="2.50" shape="71.18,-22.85 71.77,-22.40 72.33,-21.95 72.85,-21.52 73.33,-21.08 73.78,-20.66 74.19,-20.23 74.57,-19.82 74.91,-19.41 75.21,-19.01 75.48,-18.61 75.72,-18.22 75.91,-17.83 76.08,-17.45 76.20,-17.08 76.29,-16.71 76.34,-16.34 76.36,-15.99 76.35,-15.64 76.29,-15.29"/>
    </edge>
    <edge id=":11_0" function="internal">
        <lane id=":11_0_0" index="0" disallow="bus truck rail_fast" speed="11.44" length="7.02" width="2.50" shape="73.90,-15.55 73.71,-16.03 73.54,-16.46 73.38,-16.85 73.22,-17.20 73.06,-17.52 72.91,-17.81 72.75,-18.08 72.59,-18.32 72.42,-18.55 72.24,-18.76 72.04,-18.97 71.83,-19.18 71.60,-19.38 71.34,-19.59 71.06,-19.82 70.75,-20.05 70.41,-20.31 70.03,-20.59 69.62,-20.90"/>
    </edge>
    <edge id=":11_1" function="internal">
        <lane id=":11_1_0" index="0" disallow="rail_fast" speed="36.11" length="8.88" width="2.50" shape="76.70,-15.55 69.62,-20.90"/>
    </edge>
    <edge id=":12_0" function="internal">
        <lane id=":12_0_0" index="0" disallow="bus truck rail_fast" speed="6.87" length="9.77" width="2.50" shape="18.45,-58.98 17.85,-59.41 17.27,-59.80 16.70,-60.15 16.14,-60.45 15.60,-60.71 15.08,-60.93 14.58,-61.11 14.08,-61.25 13.61,-61.34 13.15,-61.39 12.71,-61.40 12.28,-61.36 11.87,-61.29 11.47,-61.17 11.09,-61.00 10.73,-60.80 10.38,-60.55 10.04,-60.26 9.73,-59.93"/>
    </edge>
    <edge id=":12_1" function="internal">
        <lane id=":12_1_0" index="0" disallow="rail_fast" speed="36.11" length="9.37" width="2.50" shape="18.45,-58.98 10.95,-64.59"/>
    </edge>
    <edge id=":12_2" function="internal">
        <lane id=":12_2_0" index="0" disallow="bus truck rail_fast" speed="7.60" length="9.69" width="2.50" shape="18.45,-58.98 17.76,-59.50 17.12,-60.00 16.51,-60.49 15.94,-60.96 15.42,-61.42 14.93,-61.86 14.49,-62.28 14.09,-62.68 13.73,-63.08 13.41,-63.45 13.13,-63.81 12.90,-64.15 12.70,-64.48 12.54,-64.78 12.43,-65.08 12.36,-65.35 12.33,-65.62 12.33,-65.86 12.38,-66.09"/>
    </edge>
    <edge id=":14_0" function="internal">
        <lane id=":14_0_0" index="0" disallow="bus truck rail_fast" speed="6.28" length="7.48" width="2.50" shape="5.22,-72.00 5.78,-71.58 6.32,-71.20 6.83,-70.84 7.32,-70.51 7.78,-70.21 8.22,-69.93 8.63,-69.69 9.02,-69.47 9.39,-69.29 9.73,-69.13 10.05,-69.00 10.35,-68.89 10.62,-68.82 10.87,-68.77 11.09,-68.76 11.29,-68.77 11.47,-68.81 11.62,-68.88 11.75,-68.97"/>
    </edge>
    <edge id=":14_1" function="internal">
        <lane id=":14_1_0" index="0" disallow="rail_fast" speed="36.11" length="9.07" width="2.50" shape="5.22,-72.00 12.48,-66.56"/>
    </edge>
    <edge id=":14_2" function="internal">
        <lane id=":14_2_0" index="0" disallow="bus truck rail_fast" speed="7.68" length="9.14" width="2.50" shape="5.22,-72.00 5.87,-71.51 6.47,-71.03 7.04,-70.57 7.57,-70.13 8.07,-69.70 8.52,-69.29 8.94,-68.89 9.32,-68.51 9.67,-68.14 9.97,-67.79 10.24,-67.45 10.47,-67.13 10.66,-66.82 10.82,-66.53 10.94,-66.26 11.02,-66.00 11.06,-65.76 11.07,-65.53 11.04,-65.32"/>
    </edge>
    <edge id=":15_0" function="internal">
        <lane id=":15_0_0" index="0" disallow="bus truck rail_fast" speed="36.11" length="6.37" width="2.50" shape="8.44,-65.56 8.12,-65.91 7.83,-66.23 7.57,-66.52 7.33,-66.78 7.12,-67.02 6.92,-67.24 6.73,-67.44 6.55,-67.63 6.37,-67.82 6.19,-67.99 6.00,-68.17 5.81,-68.34 5.60,-68.53 5.37,-68.72 5.13,-68.92 4.85,-69.14 4.55,-69.38 4.20,-69.64 3.83,-69.92"/>
    </edge>
    <edge id=":15_1" function="internal">
        <lane id=":15_1_0" index="0" disallow="rail_fast" speed="36.11" length="8.70" width="2.50" shape="10.79,-64.71 3.83,-69.92"/>
    </edge>
    <edge id=":15_2" function="internal">
        <lane id=":15_2_0" index="0" disallow="bus truck rail_fast" speed="21.02" length="8.12" width="2.50" shape="11.07,-66.45 10.49,-66.61 9.97,-66.77 9.49,-66.90 9.06,-67.03 8.67,-67.15 8.30,-67.27 7.97,-67.39 7.65,-67.51 7.35,-67.63 7.06,-67.77 6.77,-67.91 6.47,-68.08 6.17,-68.26 5.85,-68.46 5.51,-68.69 5.15,-68.95 4.75,-69.24 4.31,-69.56 3.83,-69.92"/>
    </edge>
    <edge id=":18_0" function="internal">
        <lane id=":18_0_0" index="0" disallow="bus truck rail_fast" speed="6.67" length="7.56" width="2.50" shape="5.83,-58.55 6.19,-59.17 6.52,-59.76 6.83,-60.32 7.12,-60.85 7.39,-61.35 7.63,-61.83 7.84,-62.27 8.04,-62.69 8.21,-63.08 8.35,-63.44 8.47,-63.78 8.57,-64.08 8.64,-64.36 8.69,-64.60 8.71,-64.82 8.71,-65.01 8.69,-65.17 8.64,-65.31 8.57,-65.41"/>
    </edge>
    <edge id=":18_1" function="internal">
        <lane id=":18_1_0" index="0" disallow="bus truck rail_fast" speed="36.11" length="8.94" width="2.50" shape="5.83,-58.55 10.62,-66.09"/>
    </edge>
    <edge id=":18_2" function="internal">
        <lane id=":18_2_0" index="0" disallow="bus truck rail_fast" speed="7.70" length="8.91" width="2.50" shape="5.83,-58.55 6.20,-59.17 6.57,-59.76 6.94,-60.32 7.30,-60.83 7.65,-61.32 8.00,-61.76 8.35,-62.18 8.69,-62.55 9.02,-62.89 9.35,-63.20 9.67,-63.47 9.99,-63.71 10.31,-63.91 10.62,-64.07 10.92,-64.20 11.22,-64.30 11.51,-64.35 11.80,-64.38 12.09,-64.37"/>
    </edge>
    <edge id=":19_0" function="internal">
        <lane id=":19_0_0" index="0" disallow="bus truck rail_fast" speed="36.11" length="2.36" width="2.50" shape="8.74,-58.58 7.54,-56.54"/>
    </edge>
    <edge id=":19_1" function="internal">
        <lane id=":19_1_0" index="0" disallow="bus truck rail_fast" speed="36.11" length="10.08" width="2.50" shape="12.89,-65.09 7.54,-56.54"/>
    </edge>
    <edge id=":19_2" function="internal">
        <lane id=":19_2_0" index="0" disallow="bus truck rail_fast" speed="36.11" length="9.31" width="2.50" shape="10.99,-65.12 10.82,-64.45 10.67,-63.84 10.54,-63.29 10.41,-62.79 10.29,-62.34 10.17,-61.92 10.05,-61.53 9.93,-61.17 9.80,-60.82 9.66,-60.47 9.52,-60.13 9.35,-59.78 9.17,-59.42 8.97,-59.03 8.75,-58.62 8.49,-58.17 8.21,-57.68 7.89,-57.14 7.54,-56.54"/>
    </edge>
    <edge id=":21_0" function="internal">
        <lane id=":21_0_0" index="0" disallow="bus truck rail_fast" speed="23.44" length="8.38" width="2.50" shape="12.45,-66.28 12.64,-66.87 12.81,-67.41 12.96,-67.90 13.11,-68.34 13.24,-68.74 13.37,-69.11 13.50,-69.45 13.63,-69.78 13.76,-70.09 13.91,-70.39 14.06,-70.68 14.24,-70.98 14.43,-71.29 14.64,-71.62 14.88,-71.97 15.15,-72.34 15.45,-72.75 15.79,-73.20 16.17,-73.69"/>
    </edge>
    <edge id=":21_1" function="internal">
        <lane id=":21_1_0" index="0" disallow="bus truck rail_fast" speed="36.11" length="6.28" width="2.50" shape="11.89,-69.11 12.24,-69.43 12.54,-69.72 12.82,-69.99 13.08,-70.23 13.31,-70.44 13.52,-70.64 13.72,-70.83 13.90,-71.02 14.08,-71.19 14.25,-71.37 14.42,-71.56 14.60,-71.75 14.78,-71.95 14.97,-72.18 15.17,-72.42 15.38,-72.69 15.62,-72.99 15.88,-73.32 16.17,-73.69"/>
    </edge>
    <edge id=":21_2" function="internal">
        <lane id=":21_2_0" index="0" disallow="bus truck rail_fast" speed="36.11" length="9.21" width="2.50" shape="10.73,-66.26 16.17,-73.69"/>
    </edge>
    <edge id=":24_0" function="internal">
        <lane id=":24_0_0" index="0" disallow="bus truck rail_fast" speed="6.35" length="7.82" width="2.50" shape="18.25,-72.30 17.81,-71.72 17.39,-71.16 17.01,-70.63 16.65,-70.12 16.33,-69.64 16.03,-69.18 15.77,-68.75 15.54,-68.34 15.33,-67.96 15.16,-67.60 15.02,-67.27 14.90,-66.97 14.82,-66.69 14.76,-66.43 14.74,-66.20 14.75,-66.00 14.79,-65.82 14.85,-65.66 14.95,-65.54"/>
    </edge>
    <edge id=":24_1" function="internal">
        <lane id=":24_1_0" index="0" disallow="bus truck rail_fast" speed="36.11" length="8.79" width="2.50" shape="18.25,-72.30 17.85,-71.78 17.48,-71.31 17.15,-70.89 16.84,-70.52 16.56,-70.17 16.30,-69.85 16.06,-69.56 15.83,-69.28 15.61,-69.00 15.40,-68.73 15.18,-68.45 14.96,-68.16 14.74,-67.85 14.50,-67.52 14.25,-67.16 13.98,-66.76 13.68,-66.31 13.36,-65.81 13.00,-65.26"/>
    </edge>
    <edge id=":24_2" function="internal">
        <lane id=":24_2_0" index="0" disallow="bus truck rail_fast" speed="7.69" length="9.45" width="2.50" shape="18.25,-72.30 17.73,-71.64 17.23,-71.01 16.75,-70.43 16.28,-69.88 15.83,-69.38 15.39,-68.91 14.97,-68.48 14.57,-68.09 14.19,-67.74 13.82,-67.43 13.47,-67.16 13.13,-66.93 12.82,-66.73 12.52,-66.58 12.23,-66.46 11.96,-66.39 11.71,-66.35 11.48,-66.35 11.26,-66.39"/>
    </edge>
    <edge id=":4_0" function="internal">
        <lane id=":4_0_0" index="0" disallow="bus truck rail_fast" speed="6.24" length="7.96" width="2.50" shape="84.12,-9.91 83.53,-10.36 82.96,-10.78 82.42,-11.17 81.90,-11.52 81.41,-11.85 80.94,-12.14 80.50,-12.40 80.09,-12.63 79.70,-12.82 79.33,-12.99 79.00,-13.12 78.68,-13.22 78.39,-13.29 78.13,-13.33 77.90,-13.33 77.68,-13.31 77.50,-13.25 77.34,-13.16 77.20,-13.04"/>
    </edge>
    <edge id=":4_1" function="internal">
        <lane id=":4_1_0" index="0" disallow="rail_fast" speed="36.11" length="9.11" width="2.50" shape="84.12,-9.91 76.86,-15.43"/>
    </edge>
    <edge id=":5_0" function="internal">
        <lane id=":5_0_0" index="0" disallow="bus truck rail_fast" speed="36.11" length="7.18" width="2.50" shape="77.07,-12.89 76.71,-12.49 76.38,-12.13 76.09,-11.80 75.83,-11.51 75.59,-11.24 75.37,-10.99 75.16,-10.75 74.97,-10.52 74.79,-10.30 74.62,-10.08 74.44,-9.85 74.27,-9.61 74.09,-9.35 73.90,-9.08 73.69,-8.78 73.47,-8.45 73.23,-8.09 72.97,-7.68 72.67,-7.23"/>
    </edge>
    <edge id=":5_1" function="internal">
        <lane id=":5_1_0" index="0" disallow="bus truck rail_fast" speed="21.16" length="8.74" width="2.50" shape="76.25,-15.10 76.12,-14.46 75.99,-13.89 75.86,-13.38 75.74,-12.91 75.62,-12.49 75.50,-12.10 75.37,-11.75 75.23,-11.41 75.09,-11.09 74.94,-10.78 74.77,-10.47 74.58,-10.16 74.38,-9.83 74.16,-9.48 73.92,-9.11 73.65,-8.71 73.35,-8.26 73.03,-7.77 72.67,-7.23"/>
    </edge>
    <edge id=":8_0" function="internal">
        <lane id=":8_0_0" index="0" disallow="bus truck rail_fast" speed="7.61" length="6.72" width="2.50" shape="71.09,-9.39 71.43,-9.90 71.74,-10.40 72.03,-10.87 72.30,-11.32 72.55,-11.74 72.78,-12.15 73.00,-12.53 73.19,-12.89 73.36,-13.23 73.51,-13.54 73.64,-13.83 73.75,-14.10 73.84,-14.35 73.92,-14.57 73.97,-14.78 74.00,-14.96 74.01,-15.11 74.00,-15.25 73.97,-15.36"/>
    </edge>
    <edge id=":8_1" function="internal">
        <lane id=":8_1_0" index="0" disallow="bus truck rail_fast" speed="9.32" length="7.93" width="2.50" shape="71.09,-9.39 71.40,-9.87 71.67,-10.33 71.90,-10.76 72.12,-11.16 72.31,-11.54 72.50,-11.90 72.67,-12.23 72.85,-12.54 73.03,-12.83 73.22,-13.10 73.43,-13.35 73.65,-13.58 73.91,-13.79 74.20,-13.99 74.54,-14.17 74.91,-14.34 75.34,-14.49 75.83,-14.64 76.37,-14.77"/>
    </edge>
    <edge id=":9_0" function="internal">
        <lane id=":9_0_0" index="0" disallow="bus truck rail_fast" speed="36.11" length="6.50" width="2.50" shape="15.09,-65.39 15.43,-65.04 15.73,-64.73 16.00,-64.44 16.25,-64.18 16.48,-63.94 16.69,-63.72 16.89,-63.52 17.08,-63.33 17.27,-63.15 17.45,-62.97 17.65,-62.80 17.85,-62.62 18.06,-62.44 18.30,-62.25 18.55,-62.04 18.84,-61.82 19.15,-61.58 19.50,-61.32 19.89,-61.02"/>
    </edge>
    <edge id=":9_1" function="internal">
        <lane id=":9_1_0" index="0" disallow="rail_fast" speed="36.11" length="9.05" width="2.50" shape="12.64,-66.44 19.89,-61.02"/>
    </edge>
    <edge id=":9_2" function="internal">
        <lane id=":9_2_0" index="0" disallow="bus truck rail_fast" speed="13.15" length="8.49" width="2.50" shape="12.28,-64.35 12.90,-64.28 13.46,-64.21 13.97,-64.14 14.43,-64.06 14.85,-63.98 15.23,-63.88 15.58,-63.78 15.92,-63.66 16.23,-63.53 16.54,-63.38 16.84,-63.21 17.15,-63.03 17.46,-62.82 17.79,-62.59 18.14,-62.34 18.52,-62.05 18.94,-61.74 19.39,-61.40 19.89,-61.02"/>
    </edge>

    <edge id="239" from="1" to="2" priority="1" spreadType="center" length="72.29">
        <lane id="239_0" index="0" disallow="rail_fast" speed="36.11" length="72.29" width="2.50" customShape="1" shape="85.62,-11.92 112.82,9.01 141.46,31.04"/>
    </edge>
    <edge id="240" from="3" to="4" priority="1" spreadType="center" length="72.27">
        <lane id="240_0" index="0" disallow="rail_fast" speed="36.11" length="72.27" width="2.50" customShape="1" shape="139.93,33.03 111.29,10.99 84.12,-9.91"/>
    </edge>
    <edge id="241" from="5" to="6" priority="1" spreadType="center" length="163.30">
        <lane id="241_0" index="0" disallow="bus truck rail_fast" speed="36.11" length="163.30" width="2.50" customShape="1" shape="72.67,-7.23 65.31,4.14 60.09,12.69 55.73,20.59 51.93,28.20 49.11,34.62 46.45,41.65 43.96,49.27 41.96,56.51 40.19,64.33 38.30,74.68 36.61,86.07 35.05,99.51 32.32,128.94 30.60,145.38"/>
    </edge>
    <edge id="242" from="7" to="8" priority="1" spreadType="center" length="164.46">
        <lane id="242_0" index="0" disallow="bus truck rail_fast" speed="36.11" length="164.46" width="2.50" customShape="1" shape="28.12,145.10 29.84,128.61 32.58,99.07 34.16,85.56 35.86,74.08 37.78,63.65 39.57,55.76 41.60,48.43 44.12,40.74 46.82,33.63 49.67,27.13 53.52,19.43 57.91,11.47 63.17,2.84 71.09,-9.39"/>
    </edge>
    <edge id="243" from="9" to="10" priority="1" spreadType="center" length="67.38">
        <lane id="243_0" index="0" disallow="rail_fast" speed="36.11" length="67.38" width="2.50" customShape="1" shape="19.89,-61.02 45.56,-41.92 71.18,-22.85"/>
    </edge>
    <edge id="244" from="11" to="12" priority="1" spreadType="center" length="67.35">
        <lane id="244_0" index="0" disallow="rail_fast" speed="36.11" length="67.35" width="2.50" customShape="1" shape="69.62,-20.90 44.07,-39.91 18.45,-58.98"/>
    </edge>
    <edge id="245" from="13" to="14" priority="1" spreadType="center" length="74.54">
        <lane id="245_0" index="0" disallow="rail_fast" speed="36.11" length="74.54" width="2.50" customShape="1" shape="-52.92,-115.75 -23.13,-93.34 5.22,-72.00"/>
    </edge>
    <edge id="246" from="15" to="16" priority="1" spreadType="center" length="74.54">
        <lane id="246_0" index="0" disallow="rail_fast" speed="36.11" length="74.54" width="2.50" customShape="1" shape="3.83,-69.92 -24.63,-91.34 -54.42,-113.76"/>
    </edge>
    <edge id="247" from="17" to="18" priority="1" spreadType="center" length="199.71">
        <lane id="247_0" index="0" disallow="bus truck rail_fast" speed="36.11" length="199.71" width="2.50" customShape="1" shape="-60.69,126.85 -55.25,97.60 -52.50,84.26 -50.83,77.40 -47.22,65.32 -42.04,49.50 -33.17,23.75 -28.42,10.99 -22.35,-3.97 -17.10,-15.98 -11.69,-27.37 -7.50,-35.43 -0.30,-48.16 5.83,-58.55"/>
    </edge>
    <edge id="248" from="19" to="20" priority="1" spreadType="center" length="198.82">
        <lane id="248_0" index="0" disallow="bus truck rail_fast" speed="36.11" length="198.82" width="2.50" customShape="1" shape="7.54,-56.54 1.87,-46.92 -5.30,-34.24 -9.46,-26.24 -14.84,-14.92 -20.07,-2.96 -26.11,11.93 -30.83,24.63 -39.68,50.30 -44.83,66.06 -48.42,78.07 -50.07,84.87 -52.81,98.14 -58.23,127.32"/>
    </edge>
    <edge id="249" from="21" to="22" priority="1" spreadType="center" length="34.15">
        <lane id="249_0" index="0" disallow="rail_fast" speed="36.11" length="34.15" width="2.50" customShape="1" shape="16.17,-73.69 25.64,-85.95 36.08,-99.47"/>
    </edge>
    <edge id="250" from="23" to="24" priority="1" spreadType="center" length="34.15">
        <lane id="250_0" index="0" disallow="rail_fast" speed="36.11" length="34.15" width="2.50" customShape="1" shape="38.06,-97.94 27.62,-84.42 18.25,-72.30"/>
    </edge>
    <edge id="251" from="4" to="5" priority="1" spreadType="center" length="10.28">
        <lane id="251_0" index="0" disallow="bus truck rail_fast" speed="36.11" length="10.28" width="2.50" customShape="1" shape="77.20,-13.04 77.07,-12.89"/>
    </edge>
    <edge id="252" from="14" to="19" priority="1" spreadType="center" length="14.05">
        <lane id="252_0" index="0" disallow="bus truck rail_fast" speed="36.11" length="14.05" width="2.50" customShape="1" shape="11.04,-65.32 10.99,-65.12"/>
    </edge>
    <edge id="253" from="18" to="9" priority="1" spreadType="center" length="14.23">
        <lane id="253_0" index="0" disallow="bus truck rail_fast" speed="36.11" length="14.23" width="2.50" customShape="1" shape="12.09,-64.37 12.28,-64.35"/>
    </edge>
    <edge id="254" from="10" to="5" priority="1" spreadType="center" length="14.17">
        <lane id="254_0" index="0" disallow="bus truck rail_fast" speed="36.11" length="14.17" width="2.50" customShape="1" shape="76.29,-15.29 76.25,-15.10"/>
    </edge>
    <edge id="255" from="18" to="15" priority="1" spreadType="center" length="10.34">
        <lane id="255_0" index="0" disallow="bus truck rail_fast" speed="36.11" length="10.34" width="2.50" customShape="1" shape="8.57,-65.41 8.44,-65.56"/>
    </edge>
    <edge id="256" from="24" to="15" priority="1" spreadType="center" length="13.95">
        <lane id="256_0" index="0" disallow="bus truck rail_fast" speed="36.11" length="13.95" width="2.50" customShape="1" shape="11.26,-66.39 11.07,-66.45"/>
    </edge>
    <edge id="257" from="8" to="1" priority="1" spreadType="center" length="14.44">
        <lane id="257_0" index="0" disallow="bus truck rail_fast" speed="36.11" length="14.44" width="2.50" customShape="1" shape="76.37,-14.77 76.57,-14.81"/>
    </edge>
    <edge id="258" from="12" to="15" priority="1" spreadType="center" length="14.88">
        <lane id="258_0" index="0" disallow="rail_fast" speed="36.11" length="14.88" width="2.50" customShape="1" shape="10.95,-64.59 10.79,-64.71"/>
    </edge>
    <edge id="259" from="8" to="11" priority="1" spreadType="center" length="10.39">
        <lane id="259_0" index="0" disallow="bus truck rail_fast" speed="36.11" length="10.39" width="2.50" customShape="1" shape="73.97,-15.36 73.90,-15.55"/>
    </edge>
    <edge id="260" from="12" to="21" priority="1" spreadType="center" length="14.45">
        <lane id="260_0" index="0" disallow="bus truck rail_fast" speed="36.11" length="14.45" width="2.50" customShape="1" shape="12.38,-66.09 12.45,-66.28"/>
    </edge>
    <edge id="261" from="4" to="11" priority="1" spreadType="center" length="14.52">
        <lane id="261_0" index="0" disallow="rail_fast" speed="36.11" length="14.52" width="2.50" customShape="1" shape="76.86,-15.43 76.70,-15.55"/>
    </edge>
    <edge id="262" from="18" to="21" priority="1" spreadType="center" length="15.23">
        <lane id="262_0" index="0" disallow="bus truck rail_fast" speed="36.11" length="15.23" width="2.50" customShape="1" shape="10.62,-66.09 10.73,-66.26"/>
    </edge>
    <edge id="263" from="14" to="21" priority="1" spreadType="center" length="10.00">
        <lane id="263_0" index="0" disallow="bus truck rail_fast" speed="36.11" length="10.00" width="2.50" customShape="1" shape="11.75,-68.97 11.89,-69.11"/>
    </edge>
    <edge id="264" from="24" to="9" priority="1" spreadType="center" length="10.43">
        <lane id="264_0" index="0" disallow="bus truck rail_fast" speed="36.11" length="10.43" width="2.50" customShape="1" shape="14.95,-65.54 15.09,-65.39"/>
    </edge>
    <edge id="265" from="10" to="1" priority="1" spreadType="center" length="14.51">
        <lane id="265_0" index="0" disallow="rail_fast" speed="36.11" length="14.51" width="2.50" customShape="1" shape="78.18,-17.57 78.34,-17.45"/>
    </edge>
    <edge id="266" from="12" to="19" priority="1" spreadType="center" length="9.99">
        <lane id="266_0" index="0" disallow="bus truck rail_fast" speed="36.11" length="9.99" width="2.50" customShape="1" shape="9.73,-59.93 9.42,-59.59 8.74,-58.58"/>
    </edge>
    <edge id="267" from="24" to="19" priority="1" spreadType="center" length="14.96">
        <lane id="267_0" index="0" disallow="bus truck rail_fast" speed="36.11" length="14.96" width="2.50" customShape="1" shape="13.00,-65.26 12.89,-65.09"/>
    </edge>
    <edge id="268" from="14" to="9" priority="1" spreadType="center" length="14.87">
        <lane id="268_0" index="0" disallow="rail_fast" speed="36.11" length="14.87" width="2.50" customShape="1" shape="12.48,-66.56 12.64,-66.44"/>
    </edge>

    <junction id="1" type="priority" x="84.16" y="-13.04" incLanes="265_0 257_0" intLanes=":1_0_0 :1_1_0" shape="84.85,-10.92 86.38,-12.91 77.81,-19.42 76.30,-17.42 76.74,-16.90 76.76,-16.64 76.64,-16.39 76.38,-16.15 75.99,-15.91 74.87,-12.26 77.76,-13.56 79.37,-13.55 81.09,-13.11 82.92,-12.24">
        <request index="0" response="00" foes="10" cont="0"/>
        <request index="1" response="01" foes="01" cont="0"/>
    </junction>
    <junction id="10" type="priority" x="72.60" y="-21.80" incLanes="243_0" intLanes=":10_0_0 :10_1_0" shape="74.40,-12.80 77.40,-14.92 77.57,-15.72 77.75,-15.91 78.00,-15.95 78.32,-15.84 78.71,-15.60 80.22,-17.59 71.93,-23.85 70.44,-21.85 72.13,-20.42 73.40,-18.96 74.27,-17.47 74.72,-15.95 74.77,-14.39">
        <request index="0" response="00" foes="00" cont="0"/>
        <request index="1" response="00" foes="00" cont="0"/>
    </junction>
    <junction id="11" type="priority" x="71.08" y="-19.81" incLanes="259_0 261_0" intLanes=":11_0_0 :11_1_0" shape="71.06,-11.66 74.64,-13.61 74.98,-14.42 75.24,-14.61 75.54,-14.65 75.89,-14.54 76.30,-14.29 77.81,-16.28 70.37,-21.90 68.87,-19.89 71.30,-17.35 71.88,-16.01 72.03,-14.61 71.76,-13.16">
        <request index="0" response="00" foes="10" cont="0"/>
        <request index="1" response="01" foes="01" cont="0"/>
    </junction>
    <junction id="12" type="priority" x="17.05" y="-60.02" incLanes="244_0" intLanes=":12_0_0 :12_1_0 :12_2_0" shape="17.71,-57.98 19.20,-59.98 17.21,-61.63 15.73,-63.24 14.74,-64.82 14.25,-66.36 14.26,-67.87 14.77,-69.34 11.70,-67.22 11.49,-66.47 11.30,-66.29 11.06,-66.24 10.77,-66.33 10.42,-66.55 8.92,-64.54 10.03,-63.49 10.30,-63.03 10.36,-62.59 10.24,-62.20 9.92,-61.84 9.48,-57.44">
        <request index="0" response="000" foes="000" cont="0"/>
        <request index="1" response="000" foes="000" cont="0"/>
        <request index="2" response="000" foes="000" cont="0"/>
    </junction>
    <junction id="13" type="dead_end" x="-52.92" y="-115.75" incLanes="" intLanes="" shape="-53.67,-114.76 -52.17,-116.75"/>
    <junction id="14" type="priority" x="6.64" y="-70.93" incLanes="245_0" intLanes=":14_0_0 :14_1_0 :14_2_0" shape="8.88,-61.77 11.77,-63.91 11.95,-64.68 12.13,-64.86 12.37,-64.90 12.67,-64.82 13.03,-64.59 14.53,-66.59 13.44,-67.63 13.19,-68.08 13.14,-68.50 13.28,-68.88 13.63,-69.21 14.34,-73.35 5.98,-73.00 4.47,-71.00 6.33,-69.44 7.74,-67.89 8.70,-66.35 9.21,-64.82 9.27,-63.31">
        <request index="0" response="000" foes="000" cont="0"/>
        <request index="1" response="000" foes="000" cont="0"/>
        <request index="2" response="000" foes="000" cont="0"/>
    </junction>
    <junction id="15" type="priority" x="5.14" y="-68.94" incLanes="255_0 258_0 256_0" intLanes=":15_0_0 :15_1_0 :15_2_0" shape="5.64,-60.71 9.10,-62.69 9.51,-63.34 9.84,-63.43 10.25,-63.36 10.74,-63.13 11.32,-62.75 12.82,-64.75 12.39,-65.24 12.37,-65.47 12.48,-65.69 12.72,-65.90 13.09,-66.09 14.25,-69.63 11.61,-68.30 10.07,-68.29 8.38,-68.73 6.55,-69.60 4.58,-70.92 3.07,-68.93 5.57,-66.35 6.21,-65.00 6.43,-63.61 6.24,-62.18">
        <request index="0" response="000" foes="110" cont="0"/>
        <request index="1" response="101" foes="101" cont="0"/>
        <request index="2" response="001" foes="011" cont="0"/>
    </junction>
    <junction id="16" type="dead_end" x="-54.42" y="-113.76" incLanes="246_0" intLanes="" shape="-55.17,-112.76 -53.67,-114.76"/>
    <junction id="17" type="dead_end" x="-60.69" y="126.85" incLanes="" intLanes="" shape="-59.46,127.08 -61.92,126.63"/>
    <junction id="18" type="priority" x="6.61" y="-59.88" incLanes="247_0" intLanes=":18_0_0 :18_1_0 :18_2_0" shape="15.49,-62.41 13.13,-65.52 12.49,-65.70 12.33,-65.86 12.28,-66.06 12.34,-66.31 12.51,-66.61 10.40,-67.95 9.60,-67.06 9.24,-66.87 8.91,-66.84 8.62,-66.97 8.35,-67.28 4.45,-67.88 6.09,-65.56 6.34,-64.18 6.19,-62.66 5.66,-60.99 4.75,-59.19 6.90,-57.92 8.26,-59.94 9.65,-61.46 11.07,-62.46 12.51,-62.95 13.99,-62.94">
        <request index="0" response="000" foes="000" cont="0"/>
        <request index="1" response="000" foes="000" cont="0"/>
        <request index="2" response="000" foes="000" cont="0"/>
    </junction>
    <junction id="19" type="priority" x="8.74" y="-58.58" incLanes="266_0 267_0 252_0" intLanes=":19_0_0 :19_1_0 :19_2_0" shape="17.25,-58.38 15.28,-62.47 14.32,-63.18 14.18,-63.71 14.27,-64.35 14.58,-65.10 15.13,-65.97 13.02,-67.32 12.26,-66.60 11.92,-66.55 11.59,-66.70 11.30,-67.07 11.02,-67.63 7.45,-68.50 8.88,-65.56 8.93,-63.77 8.55,-61.78 7.73,-59.59 6.47,-57.18 8.62,-55.91">
        <request index="0" response="000" foes="110" cont="0"/>
        <request index="1" response="101" foes="101" cont="0"/>
        <request index="2" response="001" foes="011" cont="0"/>
    </junction>
    <junction id="2" type="dead_end" x="141.46" y="31.04" incLanes="239_0" intLanes="" shape="142.22,30.05 140.69,32.04"/>
    <junction id="20" type="dead_end" x="-58.23" y="127.32" incLanes="248_0" intLanes="" shape="-57.00,127.55 -59.46,127.09"/>
    <junction id="21" type="priority" x="15.21" y="-72.44" incLanes="260_0 263_0 262_0" intLanes=":21_0_0 :21_1_0 :21_2_0" shape="12.17,-64.09 15.75,-62.91 14.35,-65.65 14.35,-67.24 14.82,-68.99 15.76,-70.88 17.16,-72.93 15.18,-74.46 7.18,-72.07 9.03,-68.36 9.58,-67.91 9.63,-67.54 9.54,-67.07 9.30,-66.49 8.91,-65.82 10.91,-64.30 11.36,-64.76 11.57,-64.80 11.78,-64.69 11.98,-64.46">
        <request index="0" response="010" foes="110" cont="0"/>
        <request index="1" response="000" foes="101" cont="0"/>
        <request index="2" response="011" foes="011" cont="0"/>
    </junction>
    <junction id="22" type="dead_end" x="36.08" y="-99.47" incLanes="249_0" intLanes="" shape="35.09,-100.24 37.07,-98.71"/>
    <junction id="23" type="dead_end" x="38.06" y="-97.94" incLanes="" intLanes="" shape="37.07,-98.71 39.05,-97.18"/>
    <junction id="24" type="priority" x="17.19" y="-70.92" incLanes="250_0" intLanes=":24_0_0 :24_1_0 :24_2_0" shape="15.29,-63.57 19.49,-62.87 19.24,-71.54 17.26,-73.06 15.62,-71.14 14.03,-69.70 12.49,-68.72 10.99,-68.22 9.54,-68.19 8.14,-68.63 10.24,-65.64 10.97,-65.46 11.15,-65.28 11.21,-65.04 11.15,-64.74 10.96,-64.38 12.96,-62.87 13.81,-63.88 14.21,-64.09 14.59,-64.12 14.95,-63.94">
        <request index="0" response="000" foes="000" cont="0"/>
        <request index="1" response="000" foes="000" cont="0"/>
        <request index="2" response="000" foes="000" cont="0"/>
    </junction>
    <junction id="3" type="dead_end" x="139.93" y="33.03" incLanes="" intLanes="" shape="140.69,32.04 139.17,34.02"/>
    <junction id="4" type="priority" x="82.65" y="-11.04" incLanes="240_0" intLanes=":4_0_0 :4_1_0" shape="83.36,-8.92 84.88,-10.90 77.27,-16.69 75.76,-14.69 76.24,-14.12 76.28,-13.82 76.20,-13.51 75.98,-13.19 75.58,-12.81 74.99,-8.52">
        <request index="0" response="00" foes="00" cont="0"/>
        <request index="1" response="00" foes="00" cont="0"/>
    </junction>
    <junction id="5" type="priority" x="74.02" y="-9.31" incLanes="251_0 254_0" intLanes=":5_0_0 :5_1_0" shape="81.74,-10.16 79.64,-13.78 78.58,-14.08 78.17,-14.40 77.84,-14.83 77.60,-15.38 77.43,-16.03 74.60,-17.33 74.80,-14.96 74.45,-13.48 73.81,-11.82 72.87,-9.96 71.63,-7.91 73.72,-6.55 75.08,-8.40 76.42,-9.75 77.76,-10.60 79.10,-10.95 80.42,-10.80">
        <request index="0" response="00" foes="10" cont="0"/>
        <request index="1" response="01" foes="01" cont="0"/>