<routes>
	<vehicle depart="0.1" departLane="0" departPos="5.435704567648779" departSpeed="0.0" id="323" type="passenger">
		<route edges="20904 20959"/>
	</vehicle>
	<vehicle depart="0.1" departLane="0" departPos="34.70620668630765" departSpeed="0.17299847" id="334" type="passenger">
		<route edges=":55_5 21739"/>
	</vehicle>
	<vehicle depart="0.1" departLane="0" departPos="16.28157116220413" departSpeed="0.058561147" id="346" type="passenger">
		<route edges="20790 21735"/>
	</vehicle>
	<vehicle depart="0.1" departLane="0" departPos="8.908606551141688" departSpeed="0.11180193" id="351" type="passenger">
		<route edges="20790 21735"/>
	</vehicle>
	<vehicle depart="0.1" departLane="0" departPos="5.398447423527259" departSpeed="0.48340578" id="354" type="passenger">
		<route edges="20787 20790"/>
	</vehicle>
	<vehicle depart="0.1" departLane="0" departPos="1.25" departSpeed="0.65999037" id="332" type="motorcycle">
		<route edges=":57_3 20962"/>
	</vehicle>
	<vehicle depart="0.1" departLane="0" departPos="27.07740553292384" departSpeed="0.1383069" id="342" type="motorcycle">
		<route edges=":55_5 21739"/>
	</vehicle>
</routes>
