<routes>
	<vehicle depart="0.1" departLane="0" departPos="2.5" departSpeed="0.80779366" id="37" type="passenger">
		<route edges=":22_1 8545"/>
	</vehicle>
	<vehicle depart="0.1" departLane="0" departPos="65.29350226608183" departSpeed="2.6676176" id="317" type="passenger">
		<route edges="8028 8031 8068"/>
	</vehicle>
	<vehicle depart="0.1" departLane="0" departPos="55.258033144180686" departSpeed="1.097843" id="320" type="passenger">
		<route edges="8028 8031"/>
	</vehicle>
	<vehicle depart="0.1" departLane="0" departPos="45.15579140085361" departSpeed="1.2873861" id="321" type="passenger">
		<route edges="8028 8031"/>
	</vehicle>
	<vehicle depart="0.1" departLane="0" departPos="32.70422704287284" departSpeed="2.6484931" id="322" type="motorcycle">
		<route edges="8028 8031"/>
	</vehicle>
	<vehicle depart="0.1" departLane="0" departPos="11.201676736574806" departSpeed="8.599626" id="325" type="motorcycle">
		<route edges="8028 8031"/>
	</vehicle>
	<vehicle depart="0.1" departLane="0" departPos="14.19216424629286" departSpeed="2.3008324" id="30" type="truck">
		<route edges=":22_1 8545 8027"/>
	</vehicle>
	<vehicle depart="0.1" departLane="0" departPos="10.602459577860923" departSpeed="0.0" id="32" type="truck">
		<route edges="8092 8137"/>
	</vehicle>
</routes>
