<!-- generated on Tue Feb  9 22:04:10 2021 by Eclipse SUMO netconvert Version 1.8.0
<configuration xmlns:xsi="http://www.w3.org/2001/XMLSchema-instance" xsi:noNamespaceSchemaLocation="http://sumo.dlr.de/xsd/netconvertConfiguration.xsd">

    <input>
        <node-files value="./converted_scenarios/scenario-factory/BEL_Putte-5_7_I-1-1/BEL_Putte-5_7_I-1-1.nod.xml"/>
        <edge-files value="./converted_scenarios/scenario-factory/BEL_Putte-5_7_I-1-1/BEL_Putte-5_7_I-1-1.edg.xml"/>
        <connection-files value="./converted_scenarios/scenario-factory/BEL_Putte-5_7_I-1-1/BEL_Putte-5_7_I-1-1.con.xml"/>
        <tllogic-files value="./converted_scenarios/scenario-factory/BEL_Putte-5_7_I-1-1/BEL_Putte-5_7_I-1-1.tll.xml"/>
        <type-files value="/home/zen/commonroad-interactive-benchmarks/install/commonroad-map-tool/crmapconverter/sumo_map/templates/DEU.typ.xml"/>
    </input>

    <output>
        <output-file value="./converted_scenarios/scenario-factory/BEL_Putte-5_7_I-1-1/BEL_Putte-5_7_I-1-1.net.xml"/>
    </output>

    <processing>
        <geometry.remove.keep-edges.explicit value="true"/>
        <geometry.avoid-overlap value="true"/>
        <offset.disable-normalization value="true"/>
    </processing>

    <junctions>
        <no-turnarounds value="true"/>
        <junctions.internal-link-detail value="20"/>
    </junctions>

    <report>
        <aggregate-warnings value="5"/>
    </report>

    <random_number>
        <seed value="1234"/>
    </random_number>

</configuration>
--><net xmlns:xsi="http://www.w3.org/2001/XMLSchema-instance" version="1.6" junctionCornerDetail="5" junctionLinkDetail="20" limitTurnSpeed="5.50" xsi:noNamespaceSchemaLocation="http://sumo.dlr.de/xsd/net_file.xsd">

    <location netOffset="0.00,0.00" convBoundary="-709.02,-420.87,-609.02,-315.59" origBoundary="-709.02,-420.87,-609.02,-315.59" projParameter="!"/>

    <type id="highway.bridleway" priority="1" speed="2.78" allow="pedestrian" oneway="1" width="2.00"/>
    <type id="highway.bus_guideway" priority="1" speed="27.78" allow="bus" oneway="1"/>
    <type id="highway.cycleway" priority="1" speed="8.33" allow="bicycle" oneway="0" width="1.00"/>
    <type id="highway.footway" priority="1" speed="2.78" allow="pedestrian" oneway="1" width="2.00"/>
    <type id="highway.ford" priority="1" speed="2.78" allow="army" oneway="0"/>
    <type id="highway.living_street" priority="2" speed="2.78" disallow="tram rail_urban rail rail_electric rail_fast ship" oneway="0"/>
    <type id="highway.motorway" priority="14" speed="39.44" allow="private emergency authority army vip passenger hov taxi bus coach delivery truck trailer motorcycle evehicle custom1 custom2" oneway="1"/>
    <type id="highway.motorway_link" priority="9" speed="22.22" allow="private emergency authority army vip passenger hov taxi bus coach delivery truck trailer motorcycle evehicle custom1 custom2" oneway="1"/>
    <type id="highway.path" priority="1" speed="2.78" allow="pedestrian bicycle" oneway="0" width="2.00"/>
    <type id="highway.pedestrian" priority="1" speed="2.78" allow="pedestrian" oneway="1" width="2.00"/>
    <type id="highway.primary" priority="12" speed="27.78" disallow="pedestrian tram rail_urban rail rail_electric rail_fast ship" oneway="0"/>
    <type id="highway.primary_link" priority="7" speed="22.22" disallow="pedestrian tram rail_urban rail rail_electric rail_fast ship" oneway="0"/>
    <type id="highway.raceway" priority="15" speed="83.33" allow="vip" oneway="0"/>
    <type id="highway.residential" priority="3" speed="13.89" disallow="pedestrian tram rail_urban rail rail_electric rail_fast ship" oneway="0"/>
    <type id="highway.secondary" priority="11" speed="27.78" disallow="pedestrian tram rail_urban rail rail_electric rail_fast ship" oneway="0"/>
    <type id="highway.secondary_link" priority="6" speed="22.22" disallow="pedestrian tram rail_urban rail rail_electric rail_fast ship" oneway="0"/>
    <type id="highway.service" priority="1" speed="5.56" allow="pedestrian delivery bicycle" oneway="0"/>
    <type id="highway.stairs" priority="1" speed="1.39" allow="pedestrian" oneway="1" width="2.00"/>
    <type id="highway.step" priority="1" speed="1.39" allow="pedestrian" oneway="1" width="2.00"/>
    <type id="highway.steps" priority="1" speed="1.39" allow="pedestrian" oneway="1" width="2.00"/>
    <type id="highway.tertiary" priority="10" speed="22.22" disallow="pedestrian tram rail_urban rail rail_electric rail_fast ship" oneway="0"/>
    <type id="highway.tertiary_link" priority="5" speed="22.22" disallow="pedestrian tram rail_urban rail rail_electric rail_fast ship" oneway="0"/>
    <type id="highway.track" priority="1" speed="5.56" allow="pedestrian motorcycle moped bicycle" oneway="0"/>
    <type id="highway.trunk" priority="13" speed="27.78" disallow="pedestrian bicycle tram rail_urban rail rail_electric rail_fast ship" oneway="0"/>
    <type id="highway.trunk_link" priority="8" speed="22.22" disallow="pedestrian bicycle tram rail_urban rail rail_electric rail_fast ship" oneway="0"/>
    <type id="highway.unclassified" priority="4" speed="13.89" disallow="pedestrian tram rail_urban rail rail_electric rail_fast ship" oneway="0"/>
    <type id="highway.unsurfaced" priority="1" speed="8.33" disallow="tram rail_urban rail rail_electric rail_fast ship" oneway="0"/>
    <type id="railway.highspeed" priority="21" speed="69.44" allow="rail_fast" oneway="1"/>
    <type id="railway.light_rail" priority="19" speed="27.78" allow="rail_urban" oneway="1"/>
    <type id="railway.preserved" priority="16" speed="27.78" allow="rail" oneway="1"/>
    <type id="railway.rail" priority="20" speed="44.44" allow="rail" oneway="1"/>
    <type id="railway.subway" priority="18" speed="27.78" allow="rail_urban" oneway="1"/>
    <type id="railway.tram" priority="17" speed="13.89" allow="tram" oneway="1"/>

    <edge id=":16_0" function="internal">
        <lane id=":16_0_0" index="0" disallow="pedestrian tram rail_urban rail rail_electric rail_fast ship" speed="36.11" length="2.99" width="3.50" shape="-684.86,-373.03 -682.31,-371.46"/>
    </edge>
    <edge id=":17_0" function="internal">
        <lane id=":17_0_0" index="0" disallow="pedestrian tram rail_urban rail rail_electric rail_fast ship" speed="36.11" length="3.00" width="3.50" shape="-674.79,-366.80 -672.27,-365.17"/>
    </edge>
    <edge id=":18_0" function="internal">
        <lane id=":18_0_0" index="0" disallow="pedestrian tram rail_urban rail rail_electric rail_fast ship" speed="36.11" length="0.10" width="3.50" shape="-643.41,-364.77 -643.41,-364.77"/>
    </edge>
    <edge id=":22_0" function="internal">
        <lane id=":22_0_0" index="0" disallow="pedestrian tram rail_urban rail rail_electric rail_fast ship" speed="36.11" length="21.41" width="3.50" shape="-641.66,-337.90 -645.20,-340.77 -653.10,-347.95 -656.29,-350.47 -658.03,-351.67"/>
    </edge>
    <edge id=":22_1" function="internal">
        <lane id=":22_1_0" index="0" disallow="pedestrian tram rail_urban rail rail_electric rail_fast ship" speed="11.32" length="22.70" width="3.43" shape="-639.53,-340.68 -640.52,-341.38 -643.47,-343.33 -646.45,-345.40 -648.41,-347.02 -649.40,-348.06 -650.28,-349.42 -650.72,-351.38 -647.97,-357.51"/>
    </edge>
    <edge id=":22_2" function="internal">
        <lane id=":22_2_0" index="0" disallow="pedestrian tram rail_urban rail rail_electric rail_fast ship" speed="9.90" length="18.77" width="3.50" shape="-644.87,-355.87 -647.57,-350.55 -647.41,-349.51 -646.79,-348.65 -645.97,-347.97 -644.12,-346.90 -641.22,-345.54 -638.37,-344.10 -637.46,-343.50"/>
    </edge>
    <edge id=":22_3" function="internal">
        <lane id=":22_3_0" index="0" disallow="pedestrian tram rail_urban rail rail_electric rail_fast ship" speed="8.36" length="16.99" width="3.50" shape="-644.87,-355.87 -648.61,-350.09 -650.56,-349.30 -652.42,-349.27 -654.02,-349.64 -655.44,-350.20 -656.75,-350.88 -658.03,-351.66"/>
    </edge>
    <edge id=":22_4" function="internal">
        <lane id=":22_4_0" index="0" disallow="pedestrian tram rail_urban rail rail_electric rail_fast ship" speed="6.71" length="11.22" width="3.43" shape="-656.13,-354.60 -655.26,-354.06 -654.44,-353.60 -653.60,-353.19 -652.71,-352.87 -651.79,-352.69 -650.87,-352.83 -647.97,-357.51"/>
    </edge>
    <edge id=":22_5" function="internal">
        <lane id=":22_5_0" index="0" disallow="pedestrian tram rail_urban rail rail_electric rail_fast ship" speed="36.11" length="21.73" width="3.50" shape="-656.13,-354.60 -651.20,-351.65 -642.63,-346.91 -638.73,-344.41 -637.46,-343.50"/>
    </edge>
    <edge id=":23_0" function="internal">
        <lane id=":23_0_0" index="0" disallow="pedestrian tram rail_urban rail rail_electric rail_fast ship" speed="36.11" length="3.19" width="3.50" shape="-630.05,-333.47 -632.57,-335.43"/>
    </edge>
    <edge id=":23_1" function="internal">
        <lane id=":23_1_0" index="0" disallow="pedestrian tram rail_urban rail rail_electric rail_fast ship" speed="36.11" length="3.00" width="3.50" shape="-632.29,-330.85 -634.69,-332.65"/>
    </edge>
    <edge id=":3_0" function="internal">
        <lane id=":3_0_0" index="0" disallow="pedestrian tram rail_urban rail rail_electric rail_fast ship" speed="36.11" length="2.94" width="3.49" shape="-630.38,-338.17 -628.06,-336.36"/>
    </edge>
    <edge id=":5_0" function="internal">
        <lane id=":5_0_0" index="0" disallow="pedestrian tram rail_urban rail rail_electric rail_fast ship" speed="22.22" length="3.24" width="3.50" shape="-646.77,-362.64 -646.77,-362.88 -646.76,-363.10 -646.76,-363.30 -646.76,-363.48 -646.77,-363.64 -646.77,-363.79 -646.77,-363.94 -646.78,-364.07 -646.79,-364.20 -646.81,-364.33 -646.83,-364.46 -646.85,-364.59 -646.88,-364.73 -646.91,-364.87 -646.96,-365.03 -647.00,-365.20 -647.06,-365.39 -647.12,-365.60 -647.19,-365.83"/>
    </edge>
    <edge id=":7_0" function="internal">
        <lane id=":7_0_0" index="0" disallow="pedestrian tram rail_urban rail rail_electric rail_fast ship" speed="36.11" length="3.00" width="3.50" shape="-674.18,-362.24 -676.70,-363.87"/>
    </edge>
    <edge id=":8_0" function="internal">
        <lane id=":8_0_0" index="0" disallow="pedestrian tram rail_urban rail rail_electric rail_fast ship" speed="36.11" length="0.29" width="3.50" shape="-685.27,-369.18 -685.52,-369.33"/>
    </edge>

    <edge id="8027" from="5" to="6" priority="3" type="highway.residential" spreadType="center" length="68.39">
        <lane id="8027_0" index="0" disallow="pedestrian tram rail_urban rail rail_electric rail_fast ship" speed="36.11" length="68.39" width="3.50" customShape="1" shape="-647.19,-365.83 -647.72,-367.58 -648.87,-369.80 -651.01,-373.17 -653.70,-376.78 -658.81,-382.93 -676.31,-404.77 -688.47,-420.12"/>
    </edge>
    <edge id="8028" from="19" to="18" priority="3" type="highway.residential" spreadType="center" length="70.00">
        <lane id="8028_0" index="0" disallow="pedestrian tram rail_urban rail rail_electric rail_fast ship" speed="36.11" length="70.00" width="3.50" customShape="1" shape="-684.60,-420.87 -673.20,-406.49 -655.59,-384.54 -650.45,-378.29 -647.72,-374.54 -645.51,-370.98 -644.34,-368.52 -643.71,-366.37 -643.41,-364.77"/>
    </edge>
    <edge id="8031" from="18" to="22" priority="3" type="highway.residential" spreadType="center" length="9.14" shape="-643.41,-364.77 -646.59,-348.43">
        <lane id="8031_0" index="0" disallow="pedestrian tram rail_urban rail rail_electric rail_fast ship" speed="36.11" length="9.14" width="3.50" customShape="1" shape="-643.41,-364.77 -643.28,-363.50 -643.27,-362.25 -643.37,-361.00 -643.89,-358.55 -644.72,-356.19 -644.87,-355.87"/>
    </edge>
    <edge id="8066" from="23" to="22" priority="3" type="highway.residential" spreadType="center" length="8.75" shape="-632.42,-333.13 -650.74,-346.46">
        <lane id="8066_0" index="0" disallow="pedestrian tram rail_urban rail rail_electric rail_fast ship" speed="36.11" length="8.75" width="3.50" customShape="1" shape="-634.69,-332.65 -637.57,-334.82 -641.68,-337.91"/>
        <lane id="8066_1" index="1" disallow="pedestrian tram rail_urban rail rail_electric rail_fast ship" speed="36.11" length="8.77" width="3.50" customShape="1" shape="-632.57,-335.43 -635.46,-337.61 -639.57,-340.71"/>
    </edge>
    <edge id="8068" from="22" to="3" priority="3" type="highway.residential" spreadType="center" length="8.86" shape="-647.35,-350.43 -629.21,-337.28">
        <lane id="8068_0" index="0" disallow="pedestrian tram rail_urban rail rail_electric rail_fast ship" speed="36.11" length="8.86" width="3.50" customShape="1" shape="-637.46,-343.50 -633.35,-340.40 -630.38,-338.17"/>
    </edge>
    <edge id="8091" from="7" to="8" priority="3" type="highway.residential" spreadType="center" length="10.08">
        <lane id="8091_0" index="0" disallow="pedestrian tram rail_urban rail rail_electric rail_fast ship" speed="36.11" length="10.08" width="3.50" customShape="1" shape="-676.70,-363.87 -685.27,-369.18"/>
    </edge>
    <edge id="8092" from="16" to="17" priority="3" type="highway.residential" spreadType="center" length="8.85">
        <lane id="8092_0" index="0" disallow="pedestrian tram rail_urban rail rail_electric rail_fast ship" speed="36.11" length="8.85" width="3.50" customShape="1" shape="-682.31,-371.46 -674.79,-366.80"/>
    </edge>
    <edge id="8137" from="17" to="22" priority="3" type="highway.residential" spreadType="center" length="19.37" shape="-673.53,-366.00 -647.29,-350.39">
        <lane id="8137_0" index="0" disallow="pedestrian tram rail_urban rail rail_electric rail_fast ship" speed="36.11" length="19.37" width="3.50" customShape="1" shape="-672.27,-365.17 -664.90,-360.34 -656.27,-354.69 -656.17,-354.63 -656.06,-354.56"/>
    </edge>
    <edge id="8401" from="24" to="23" priority="3" type="highway.residential" spreadType="center" length="25.91">
        <lane id="8401_0" index="0" disallow="pedestrian tram rail_urban rail rail_electric rail_fast ship" speed="36.11" length="25.91" width="3.50" customShape="1" shape="-611.32,-315.59 -615.23,-319.19 -624.95,-328.96 -628.88,-332.52 -630.05,-333.47"/>
    </edge>
    <edge id="8402" from="24" to="23" priority="3" type="highway.residential" spreadType="center" length="25.95">
        <lane id="8402_0" index="0" disallow="pedestrian tram rail_urban rail rail_electric rail_fast ship" speed="36.11" length="25.95" width="3.50" customShape="1" shape="-611.32,-315.59 -615.67,-319.11 -621.86,-323.55 -631.04,-329.92 -632.29,-330.85"/>
    </edge>
    <edge id="8444" from="8" to="14" priority="3" type="highway.residential" spreadType="center" length="27.53">
        <lane id="8444_0" index="0" disallow="pedestrian tram rail_urban rail rail_electric rail_fast ship" speed="36.11" length="27.53" width="3.50" customShape="1" shape="-685.52,-369.33 -705.41,-381.42 -709.02,-383.67"/>
    </edge>
    <edge id="8477" from="15" to="16" priority="3" type="highway.residential" spreadType="center" length="26.13">
        <lane id="8477_0" index="0" disallow="pedestrian tram rail_urban rail rail_electric rail_fast ship" speed="36.11" length="26.13" width="3.50" customShape="1" shape="-707.17,-386.64 -703.57,-384.39 -684.86,-373.03"/>
    </edge>
    <edge id="8524" from="22" to="7" priority="3" type="highway.residential" spreadType="center" length="19.40" shape="-649.07,-347.39 -675.43,-363.06">
        <lane id="8524_0" index="0" disallow="pedestrian tram rail_urban rail rail_electric rail_fast ship" speed="36.11" length="19.40" width="3.50" customShape="1" shape="-657.95,-351.61 -658.07,-351.69 -658.18,-351.76 -666.81,-357.41 -674.18,-362.24"/>
    </edge>
    <edge id="8545" from="22" to="5" priority="3" type="highway.residential" spreadType="center" length="5.30" shape="-649.97,-349.09 -646.87,-364.25">
        <lane id="8545_0" index="0" disallow="pedestrian tram rail_urban rail rail_electric rail_fast ship" speed="36.11" length="5.30" width="3.43" customShape="1" shape="-647.97,-357.51 -647.30,-359.34 -646.86,-361.34 -646.77,-362.29 -646.77,-362.64"/>
    </edge>
    <edge id="8566" from="3" to="9" priority="3" type="highway.residential" spreadType="center" length="26.30">
        <lane id="8566_0" index="0" disallow="pedestrian tram rail_urban rail rail_electric rail_fast ship" speed="36.11" length="26.30" width="3.49" customShape="1" shape="-628.06,-336.36 -626.67,-335.23 -622.65,-331.59 -612.89,-321.78 -609.02,-318.23"/>
    </edge>

    <junction id="14" type="dead_end" x="-709.02" y="-383.67" incLanes="8444_0" intLanes="" shape="-709.95,-382.18 -708.10,-385.15" rightOfWay="edgePriority"/>
    <junction id="15" type="dead_end" x="-707.17" y="-386.64" incLanes="" intLanes="" shape="-708.10,-385.15 -706.25,-388.12" rightOfWay="edgePriority"/>
    <junction id="16" type="priority" x="-683.58" y="-372.25" incLanes="8477_0" intLanes=":16_0_0" shape="-683.23,-369.97 -681.38,-372.95 -683.95,-374.52 -685.77,-371.53" rightOfWay="edgePriority">
        <request index="0" response="0" foes="0" cont="0"/>
    </junction>
    <junction id="17" type="priority" x="-673.53" y="-366.00" incLanes="8092_0" intLanes=":17_0_0" shape="-673.23,-363.71 -671.32,-366.64 -673.84,-368.27 -675.74,-365.33" rightOfWay="edgePriority">
        <request index="0" response="0" foes="0" cont="0"/>
    </junction>
    <junction id="18" type="priority" x="-643.41" y="-364.77" incLanes="8028_0" intLanes=":18_0_0" shape="-641.70,-365.17 -645.14,-364.52 -641.66,-364.89" rightOfWay="edgePriority">
        <request index="0" response="0" foes="0" cont="0"/>
    </junction>
    <junction id="19" type="dead_end" x="-684.60" y="-420.87" incLanes="" intLanes="" shape="-685.97,-419.79 -683.23,-421.96" rightOfWay="edgePriority"/>
    <junction id="22" type="priority" x="-648.27" y="-348.94" incLanes="8066_0 8066_1 8031_0 8137_0" intLanes=":22_0_0 :22_1_0 :22_2_0 :22_3_0 :22_4_0 :22_5_0" shape="-642.73,-336.52 -636.41,-344.90 -639.00,-346.99 -641.02,-348.93 -642.46,-350.70 -643.33,-352.31 -643.61,-353.76 -643.32,-355.05 -649.50,-358.32 -650.91,-355.94 -651.80,-355.36 -652.82,-355.20 -653.95,-355.44 -655.18,-356.07 -658.98,-350.19 -655.31,-347.64 -652.72,-345.51 -650.72,-343.60 -648.75,-341.63 -646.27,-339.35">
        <request index="0" response="000000" foes="001000" cont="0"/>
        <request index="1" response="110000" foes="111000" cont="0"/>
        <request index="2" response="100000" foes="100000" cont="0"/>
        <request index="3" response="100011" foes="100011" cont="0"/>
        <request index="4" response="000000" foes="000010" cont="0"/>
        <request index="5" response="000000" foes="001110" cont="0"/>
    </junction>
    <junction id="23" type="priority" x="-632.42" y="-333.13" incLanes="8401_0 8402_0" intLanes=":23_0_0 :23_1_0" shape="-633.32,-329.43 -628.95,-334.83 -631.52,-336.83 -635.74,-331.25">
        <request index="0" response="00" foes="00" cont="0"/>
        <request index="1" response="00" foes="00" cont="0"/>
    </junction>
    <junction id="24" type="dead_end" x="-611.32" y="-315.59" incLanes="" intLanes="" shape="-610.14,-316.88 -612.51,-314.30 -610.22,-316.95 -612.42,-314.23"/>
    <junction id="3" type="priority" x="-629.21" y="-337.28" incLanes="8068_0" intLanes=":3_0_0" shape="-629.16,-335.00 -626.97,-337.72 -629.33,-339.56 -631.44,-336.77" rightOfWay="edgePriority">
        <request index="0" response="0" foes="0" cont="0"/>
    </junction>
    <junction id="5" type="priority" x="-646.87" y="-364.25" incLanes="8545_0" intLanes=":5_0_0" shape="-645.46,-366.16 -648.92,-365.50 -648.57,-364.37 -648.47,-363.96 -648.42,-363.55 -648.43,-363.04 -648.48,-362.46 -645.05,-362.82 -645.04,-364.05 -645.06,-364.48 -645.12,-364.91 -645.24,-365.42" rightOfWay="edgePriority">
        <request index="0" response="0" foes="0" cont="0"/>
    </junction>
    <junction id="6" type="dead_end" x="-688.47" y="-420.12" incLanes="8027_0" intLanes="" shape="-689.84,-419.03 -687.10,-421.21" rightOfWay="edgePriority"/>
    <junction id="7" type="priority" x="-675.43" y="-363.06" incLanes="8524_0" intLanes=":7_0_0" shape="-675.14,-360.78 -673.22,-363.70 -675.75,-365.34 -677.65,-362.40" rightOfWay="edgePriority">
        <request index="0" response="0" foes="0" cont="0"/>
    </junction>
    <junction id="8" type="priority" x="-685.39" y="-369.26" incLanes="8091_0" intLanes=":8_0_0" shape="-686.19,-367.69 -684.35,-370.67 -684.61,-370.83 -686.43,-367.84" rightOfWay="edgePriority">
        <request index="0" response="0" foes="0" cont="0"/>
    </junction>
    <junction id="9" type="dead_end" x="-609.02" y="-318.23" incLanes="8566_0" intLanes="" shape="-607.84,-319.51 -610.20,-316.94" rightOfWay="edgePriority"/>

    <connection from="8028" to="8031" fromLane="0" toLane="0" contPos="-4.00" via=":18_0_0" dir="l" state="M"/>
    <connection from="8031" to="8068" fromLane="0" toLane="0" contPos="-4.00" shape="-647.29,-351.42 -647.57,-350.55 -647.41,-349.51 -646.79,-348.65 -645.97,-347.97 -644.12,-346.90 -641.22,-345.54 -638.37,-344.10 -637.46,-343.50" via=":22_2_0" dir="r" state="m"/>
    <connection from="8031" to="8524" fromLane="0" toLane="0" contPos="-4.00" shape="-647.29,-351.42 -648.61,-350.09 -650.56,-349.30 -652.42,-349.27 -654.02,-349.64 -655.44,-350.20 -656.75,-350.88 -657.95,-351.61" via=":22_3_0" dir="l" state="m"/>
    <connection from="8066" to="8524" fromLane="0" toLane="0" contPos="-4.00" shape="-641.66,-337.90 -645.20,-340.77 -653.10,-347.95 -656.29,-350.47 -657.95,-351.61" via=":22_0_0" dir="s" state="M"/>
    <connection from="8066" to="8545" fromLane="1" toLane="0" contPos="-4.00" shape="-639.53,-340.68 -640.52,-341.38 -643.47,-343.33 -646.45,-345.40 -648.41,-347.02 -649.40,-348.06 -650.28,-349.42 -650.72,-351.38 -650.23,-353.25" via=":22_1_0" dir="l" state="m"/>
    <connection from="8068" to="8566" fromLane="0" toLane="0" contPos="-4.00" via=":3_0_0" dir="s" state="M"/>
    <connection from="8091" to="8444" fromLane="0" toLane="0" contPos="-4.00" via=":8_0_0" dir="s" state="M"/>
    <connection from="8092" to="8137" fromLane="0" toLane="0" contPos="-4.00" via=":17_0_0" dir="s" state="M"/>
    <connection from="8137" to="8545" fromLane="0" toLane="0" contPos="-4.00" shape="-656.06,-354.56 -655.26,-354.06 -654.44,-353.60 -653.60,-353.19 -652.71,-352.87 -651.79,-352.69 -650.87,-352.83 -650.23,-353.25" via=":22_4_0" dir="r" state="M"/>
    <connection from="8137" to="8068" fromLane="0" toLane="0" contPos="-4.00" shape="-656.06,-354.56 -651.20,-351.65 -642.63,-346.91 -638.73,-344.41 -637.46,-343.50" via=":22_5_0" dir="s" state="M"/>
    <connection from="8401" to="8066" fromLane="0" toLane="1" contPos="-4.00" via=":23_0_0" dir="s" state="M"/>
    <connection from="8402" to="8066" fromLane="0" toLane="0" contPos="-4.00" via=":23_1_0" dir="s" state="M"/>
    <connection from="8477" to="8092" fromLane="0" toLane="0" contPos="-4.00" via=":16_0_0" dir="s" state="M"/>
    <connection from="8524" to="8091" fromLane="0" toLane="0" contPos="-4.00" via=":7_0_0" dir="s" state="M"/>
    <connection from="8545" to="8027" fromLane="0" toLane="0" contPos="-4.00" via=":5_0_0" dir="r" state="M"/>

    <connection from=":16_0" to="8092" fromLane="0" toLane="0" dir="s" state="M"/>
    <connection from=":17_0" to="8137" fromLane="0" toLane="0" dir="s" state="M"/>
    <connection from=":18_0" to="8031" fromLane="0" toLane="0" dir="l" state="M"/>
    <connection from=":22_0" to="8524" fromLane="0" toLane="0" dir="s" state="M"/>
    <connection from=":22_1" to="8545" fromLane="0" toLane="0" dir="l" state="M"/>
    <connection from=":22_2" to="8068" fromLane="0" toLane="0" dir="r" state="M"/>
    <connection from=":22_3" to="8524" fromLane="0" toLane="0" dir="l" state="M"/>
    <connection from=":22_4" to="8545" fromLane="0" toLane="0" dir="r" state="M"/>
    <connection from=":22_5" to="8068" fromLane="0" toLane="0" dir="s" state="M"/>
    <connection from=":23_0" to="8066" fromLane="0" toLane="1" dir="s" state="M"/>
    <connection from=":23_1" to="8066" fromLane="0" toLane="0" dir="s" state="M"/>
    <connection from=":3_0" to="8566" fromLane="0" toLane="0" dir="s" state="M"/>
    <connection from=":5_0" to="8027" fromLane="0" toLane="0" dir="r" state="M"/>
    <connection from=":7_0" to="8091" fromLane="0" toLane="0" dir="s" state="M"/>
    <connection from=":8_0" to="8444" fromLane="0" toLane="0" dir="s" state="M"/>

</net>