<!-- generated on 2020-12-18 16:20:46.589370 by ipykernel_launcher.py v1_2_0+5214-53edc58fcd
-->
<edges>
	<edge from="1" function="normal" id="1413" length="27.500017898183298" numLanes="1" priority="1" speed="36.11111111111111" spreadType="center" to="2">
		<lane allow="moped bicycle pedestrian custom1 trailer evehicle rail_urban ship private vip custom2 authority delivery rail_electric taxi tram army hov coach motorcycle passenger rail emergency" index="0" length="27.500017898183298" shape="50.6334,63.8926 41.5777,68.55619999999999 36.3549,71.7291 31.963549999999998,74.30690000000001 26.936549999999997,76.77795 26.47135,76.9855" speed="36.11111111111111" width="2.4887902382482903"/>
	</edge>
	<edge from="3" function="normal" id="1414" length="306.76478313621277" numLanes="2" priority="1" speed="36.11111111111111" spreadType="center" to="4">
		<lane allow="moped bicycle pedestrian custom1 trailer evehicle rail_urban ship private vip custom2 authority delivery rail_electric taxi tram army hov coach motorcycle passenger rail emergency" index="0" length="306.76478313621277" shape="-49.47154999999999,387.74670000000003 -44.80155,371.35525 -39.64075,352.49879999999996 -35.75995,336.93449999999996 -33.8992,328.106 -31.7051,315.259 -29.459699999999998,299.37605 -23.84765,254.10565 -20.8664,232.25164999999998 -19.07495,221.37035 -17.3696,213.0214 -14.2991,200.87165 -9.60885,183.9655 -0.59135,153.69934999999998 5.069,134.4635 9.3052,118.99215000000001 12.676300000000001,105.3673 15.1546,94.10755 15.53835,91.63265 15.69005,88.644" speed="36.11111111111111" width="2.496415432174701"/>
		<lane allow="moped bicycle pedestrian custom1 trailer evehicle rail_urban ship private vip custom2 authority delivery rail_electric taxi tram army hov coach motorcycle passenger rail emergency" index="1" length="306.76478313621277" shape="-47.06645,388.42904999999996 -42.38765,372.00625 -37.214150000000004,353.10055 -33.31895,337.47389999999996 -31.44625,328.58815 -29.2424,315.69125 -26.98995,299.76905 -21.3729,254.46204999999998 -18.39345,232.61735 -16.607,221.77145000000002 -14.907899999999998,213.46994999999998 -11.8357,201.33530000000002 -7.1419999999999995,184.4336 1.8898000000000001,154.1292 7.559050000000001,134.84715 11.801449999999999,119.3263 15.1766,105.6525 17.667,94.2919 18.04285,91.69005 18.18845,88.66210000000001" speed="36.11111111111111" width="2.4999657457653255"/>
	</edge>
	<edge from="5" function="normal" id="1417" length="308.1484782705925" numLanes="2" priority="1" speed="36.11111111111111" spreadType="center" to="6">
		<lane allow="moped bicycle pedestrian custom1 trailer evehicle rail_urban ship private vip custom2 authority delivery rail_electric taxi tram army hov coach motorcycle passenger rail emergency" index="0" length="308.1484782705925" shape="23.189149999999998,88.6326 23.057299999999998,91.7646 22.74165,94.38419999999999 20.285800000000002,105.7508 16.9237,119.49295 12.6891,135.0857 7.0158499999999995,154.4436 -2.0599,184.85739999999998 -6.7927,201.82704999999999 -9.8948,213.98430000000002 -11.624749999999999,222.3263 -13.4299,233.23334999999997 -16.426099999999998,255.19715000000002 -22.075899999999997,300.74795 -24.348100000000002,316.7561 -26.57225,329.7222 -28.4576,338.64445 -32.36625,354.3256 -37.5582,373.3031 -42.25475,389.78835000000004" speed="36.11111111111111" width="2.500040649669513"/>
		<lane allow="moped bicycle pedestrian custom1 trailer evehicle rail_urban ship private vip custom2 authority delivery rail_electric taxi tram army hov coach motorcycle passenger rail emergency" index="1" length="308.1484782705925" shape="20.6891,88.64025000000001 20.55025,91.72915 20.20895,94.3343 17.73155,105.7015 14.3629,119.40944999999999 10.12435,134.96620000000001 4.4529499999999995,154.2861 -4.601,184.64525 -9.314250000000001,201.58095 -12.401599999999998,213.72685 -14.116,222.049 -15.9117,232.92534999999998 -18.8995,254.8295 -24.532899999999998,300.25840000000005 -26.7952,316.22360000000003 -29.00925,329.1552 -30.8883,338.05920000000003 -34.7902,353.71305 -39.972899999999996,372.65465 -44.6606,389.1087" speed="36.11111111111111" width="2.499945959415936"/>
	</edge>
	<edge from="7" function="normal" id="1419" length="51.7737355848807" numLanes="2" priority="1" speed="36.11111111111111" spreadType="center" to="8">
		<lane allow="moped bicycle pedestrian custom1 trailer evehicle rail_urban ship private truck vip custom2 authority delivery rail_electric taxi tram army hov coach motorcycle passenger bus rail emergency" index="0" length="51.7737355848807" shape="16.9342,64.46405 15.5853,38.61345 14.2364,12.760649999999998" speed="36.11111111111111" width="2.499997929999144"/>
		<lane allow="moped bicycle pedestrian custom1 trailer evehicle rail_urban ship private truck vip custom2 authority delivery rail_electric taxi tram army hov coach motorcycle passenger bus rail emergency" index="1" length="51.7737355848807" shape="19.4309,64.3357 18.08195,38.483149999999995 16.733,12.6304" speed="36.11111111111111" width="2.499977247896469"/>
	</edge>
	<edge from="9" function="normal" id="1421" length="0.25531833421706296" numLanes="2" priority="1" speed="36.11111111111111" spreadType="center" to="10">
		<lane allow="moped bicycle pedestrian custom1 trailer evehicle rail_urban ship private vip custom2 authority delivery rail_electric taxi tram army hov coach motorcycle passenger rail emergency" index="0" length="0.25531833421706296" shape="17.38745,73.71815 17.38125,73.58565 17.37575,73.4631" speed="36.11111111111111" width="2.500028001843182"/>
		<lane allow="moped bicycle pedestrian custom1 trailer evehicle rail_urban ship private vip custom2 authority delivery rail_electric taxi tram army hov coach motorcycle passenger rail emergency" index="1" length="0.25531833421706296" shape="19.8842,73.6054 19.878700000000002,73.4728 19.8731,73.3478" speed="36.11111111111111" width="2.4990692827530814"/>
	</edge>
	<edge from="11" function="normal" id="1422" length="36.2056122335278" numLanes="1" priority="1" speed="36.11111111111111" spreadType="center" to="12">
		<lane allow="moped bicycle pedestrian custom1 trailer evehicle rail_urban ship private vip custom2 authority delivery rail_electric taxi tram army hov coach motorcycle passenger rail emergency" index="0" length="36.2056122335278" shape="21.6489,0.6244500000000001 27.6222,-0.70205 32.9948,-2.31275 40.1886,-4.91165 55.8106,-11.17035" speed="36.11111111111111" width="2.499572733488666"/>
	</edge>
	<edge from="13" function="normal" id="1423" length="84.27502860469659" numLanes="1" priority="1" speed="36.11111111111111" spreadType="center" to="14">
		<lane allow="moped bicycle pedestrian custom1 trailer evehicle rail_urban ship private vip custom2 authority delivery rail_electric taxi tram army hov coach motorcycle passenger rail emergency" index="0" length="84.27502860469659" shape="-74.97125,10.40785 -45.197050000000004,10.2684 -33.59655,9.8902 -26.0499,9.30855 -19.0438,8.401900000000001 -9.0973,6.69105 8.732399999999998,3.2028000000000003" speed="36.11111111111111" width="2.4977435576936236"/>
	</edge>
	<edge from="15" function="normal" id="1424" length="79.30525907539369" numLanes="1" priority="1" speed="36.11111111111111" spreadType="center" to="16">
		<lane allow="moped bicycle pedestrian custom1 trailer evehicle rail_urban ship private vip custom2 authority delivery rail_electric taxi tram army hov coach motorcycle passenger rail emergency" index="0" length="79.30525907539369" shape="10.515799999999999,81.4799 4.0023,82.31 -4.5611,82.94595 -15.1617,83.3344 -26.779600000000002,83.3955 -34.348749999999995,83.06145 -45.4123,82.0154 -68.4779,79.19900000000001" speed="36.11111111111111" width="2.4969325261208115"/>
	</edge>
	<edge from="17" function="normal" id="1426" length="0.25201490281490074" numLanes="2" priority="1" speed="36.11111111111111" spreadType="center" to="18">
		<lane allow="moped bicycle pedestrian custom1 trailer evehicle rail_urban ship private vip custom2 authority delivery rail_electric taxi tram army hov coach motorcycle passenger rail emergency" index="0" length="0.25201490281490074" shape="13.8405,5.17055 13.8337,5.04025 13.8269,4.90015" speed="36.11111111111111" width="2.4999875139688204"/>
		<lane allow="moped bicycle pedestrian custom1 trailer evehicle rail_urban ship private vip custom2 authority delivery rail_electric taxi tram army hov coach motorcycle passenger rail emergency" index="1" length="0.25201490281490074" shape="16.3371,5.0404 16.3303,4.9101 16.32355,4.78875" speed="36.11111111111111" width="2.4979007386203302"/>
	</edge>
	<edge from="19" function="normal" id="1428" length="145.15509676790174" numLanes="2" priority="1" speed="36.11111111111111" spreadType="center" to="20">
		<lane allow="moped bicycle pedestrian custom1 trailer evehicle rail_urban ship private vip custom2 authority delivery rail_electric taxi tram army hov coach motorcycle passenger rail emergency" index="0" length="145.15509676790174" shape="13.308250000000001,-4.7111 12.6143,-19.301650000000002 11.976199999999999,-42.946250000000006 11.74,-66.10995 12.01475,-81.23644999999999 12.69505,-93.81375 14.3442,-115.8869 17.1866,-149.96025" speed="36.11111111111111" width="2.4987941912050315"/>
		<lane allow="moped bicycle pedestrian custom1 trailer evehicle rail_urban ship private vip custom2 authority delivery rail_electric taxi tram army hov coach motorcycle passenger rail emergency" index="1" length="145.15509676790174" shape="15.8049,-4.83075 15.1127,-19.3891 14.47585,-42.9855 14.239799999999999,-66.087 14.51305,-81.1512 15.1921,-93.6883 16.83935,-115.7251 19.6785,-149.75905" speed="36.11111111111111" width="2.4999087503347"/>
	</edge>
	<edge from="14" function="normal" id="1429" length="10.117659599934564" numLanes="1" priority="1" speed="36.11111111111111" spreadType="center" to="19">
		<lane allow="moped bicycle pedestrian custom1 trailer evehicle rail_urban ship private vip custom2 authority delivery rail_electric taxi tram army hov coach motorcycle passenger rail emergency" index="0" length="10.117659599934564" shape="8.732399999999998,3.2028000000000003 9.873899999999999,2.86875 10.92185,2.3085 11.805150000000001,1.5146499999999998 12.47155,0.53065 12.92075,-0.5706 13.266,-2.3206499999999997 13.308250000000001,-4.7111" speed="36.11111111111111" width="2.4977435576936236"/>
	</edge>
	<edge from="10" function="normal" id="1441" length="9.009876098492308" numLanes="2" priority="1" speed="36.11111111111111" spreadType="center" to="7">
		<lane allow="moped bicycle pedestrian custom1 trailer evehicle rail_urban ship private truck vip custom2 authority delivery rail_electric taxi tram army hov coach motorcycle passenger bus rail emergency" index="0" length="9.009876098492308" shape="17.37575,73.4631 17.15495,68.9638 16.9342,64.46405" speed="36.11111111111111" width="2.5000188099292378"/>
		<lane allow="moped bicycle pedestrian custom1 trailer evehicle rail_urban ship private truck vip custom2 authority delivery rail_electric taxi tram army hov coach motorcycle passenger bus rail emergency" index="1" length="9.009876098492308" shape="19.8731,73.3478 19.652,68.84175 19.4309,64.3357" speed="36.11111111111111" width="2.499977247896469"/>
	</edge>
	<edge from="4" function="normal" id="1431" length="15.048227955269706" numLanes="2" priority="1" speed="36.11111111111111" spreadType="center" to="9">
		<lane allow="moped bicycle pedestrian custom1 trailer evehicle rail_urban ship private vip custom2 authority delivery rail_electric taxi tram army hov coach motorcycle passenger rail emergency" index="0" length="15.048227955269706" shape="15.69005,88.644 15.89695,85.41485 17.1543,77.99795 17.405250000000002,74.78545 17.38745,73.71815" speed="36.11111111111111" width="2.496415432174701"/>
		<lane allow="moped bicycle pedestrian custom1 trailer evehicle rail_urban ship private vip custom2 authority delivery rail_electric taxi tram army hov coach motorcycle passenger rail emergency" index="1" length="15.048227955269706" shape="18.18845,88.66210000000001 18.37975,85.60555 19.64995,78.0524 19.903950000000002,74.71105 19.8842,73.6054" speed="36.11111111111111" width="2.4990692827530814"/>
	</edge>
	<edge from="2" function="normal" id="1433" length="12.602277669001948" numLanes="1" priority="1" speed="36.11111111111111" spreadType="center" to="5">
		<lane allow="moped bicycle pedestrian custom1 trailer evehicle rail_urban ship private vip custom2 authority delivery rail_electric taxi tram army hov coach motorcycle passenger rail emergency" index="0" length="12.602277669001948" shape="26.47135,76.9855 25.574550000000002,77.6016 24.89595,78.4554 24.2034,79.93875 23.657200000000003,82.0544 23.276400000000002,85.31105 23.189149999999998,88.6326" speed="36.11111111111111" width="2.4887902382482903"/>
	</edge>
	<edge from="14" function="normal" id="1434" length="13.171327229057226" numLanes="1" priority="1" speed="36.11111111111111" spreadType="center" to="11">
		<lane allow="moped bicycle pedestrian custom1 trailer evehicle rail_urban ship private truck vip custom2 authority delivery rail_electric taxi tram army hov coach motorcycle passenger bus rail emergency" index="0" length="13.171327229057226" shape="8.732399999999998,3.2028000000000003 15.19065,1.9136000000000002 21.6489,0.6244500000000001" speed="36.11111111111111" width="2.4977435576936236"/>
	</edge>
	<edge from="18" function="normal" id="1435" length="9.625233772099973" numLanes="2" priority="1" speed="36.11111111111111" spreadType="center" to="19">
		<lane allow="moped bicycle pedestrian custom1 trailer evehicle rail_urban ship private truck vip custom2 authority delivery rail_electric taxi tram army hov coach motorcycle passenger bus rail emergency" index="0" length="9.625233772099973" shape="13.8269,4.90015 13.567699999999999,0.10505 13.308250000000001,-4.7111" speed="36.11111111111111" width="2.4987941912050315"/>
		<lane allow="moped bicycle pedestrian custom1 trailer evehicle rail_urban ship private truck vip custom2 authority delivery rail_electric taxi tram army hov coach motorcycle passenger bus rail emergency" index="1" length="9.625233772099973" shape="16.32355,4.78875 16.06405,-0.030100000000000002 15.8049,-4.83075" speed="36.11111111111111" width="2.4979007386203302"/>
	</edge>
	<edge from="18" function="normal" id="1436" length="7.3852648423097165" numLanes="1" priority="1" speed="36.11111111111111" spreadType="center" to="11">
		<lane allow="moped bicycle pedestrian custom1 trailer evehicle rail_urban ship private vip custom2 authority delivery rail_electric taxi tram army hov coach motorcycle passenger rail emergency" index="0" length="7.3852648423097165" shape="16.32355,4.78875 16.34755,4.21255 16.47795,3.6604 16.72155,3.1479999999999997 17.466900000000003,2.29725 18.41495,1.6736499999999999 19.99475,1.0373 21.6489,0.6244500000000001" speed="36.11111111111111" width="2.4979007386203302"/>
	</edge>
	<edge from="2" function="normal" id="1437" length="9.486040314384145" numLanes="1" priority="1" speed="36.11111111111111" spreadType="center" to="9">
		<lane allow="moped bicycle pedestrian custom1 trailer evehicle rail_urban ship private vip custom2 authority delivery rail_electric taxi tram army hov coach motorcycle passenger rail emergency" index="0" length="9.486040314384145" shape="26.47135,76.9855 24.551250000000003,77.66284999999999 23.2087,77.85319999999999 22.5319,77.80785 21.87835,77.6293 21.29185,77.2914 20.8114,76.81415000000001 20.455,76.2371 20.0398,74.947 19.8842,73.6054" speed="36.11111111111111" width="2.4887902382482903"/>
	</edge>
	<edge from="2" function="normal" id="1438" length="16.6195724282092" numLanes="1" priority="1" speed="36.11111111111111" spreadType="center" to="15">
		<lane allow="moped bicycle pedestrian custom1 trailer evehicle rail_urban ship private vip custom2 authority delivery rail_electric taxi tram army hov coach motorcycle passenger rail emergency" index="0" length="16.6195724282092" shape="26.47135,76.9855 22.6079,78.51339999999999 18.13915,79.8836 13.074349999999999,81.03305 10.515799999999999,81.4799" speed="36.11111111111111" width="2.4887902382482903"/>
	</edge>
	<edge from="2" function="normal" id="1439" length="13.822900845479724" numLanes="1" priority="1" speed="36.11111111111111" spreadType="center" to="5">
		<lane allow="moped bicycle pedestrian custom1 trailer evehicle rail_urban ship private vip custom2 authority delivery rail_electric taxi tram army hov coach motorcycle passenger rail emergency" index="0" length="13.822900845479724" shape="26.47135,76.9855 25.02585,77.78935 23.757800000000003,78.85034999999999 22.718,80.13605 21.9238,81.5871 21.21385,83.67505 20.8294,85.84795 20.6891,88.64025000000001" speed="36.11111111111111" width="2.4887902382482903"/>
	</edge>
	<edge from="8" function="normal" id="1444" length="7.600318204522756" numLanes="2" priority="1" speed="36.11111111111111" spreadType="center" to="17">
		<lane allow="moped bicycle pedestrian custom1 trailer evehicle rail_urban ship private truck vip custom2 authority delivery rail_electric taxi tram army hov coach motorcycle passenger bus rail emergency" index="0" length="7.600318204522756" shape="14.2364,12.760649999999998 14.0384,8.965599999999998 13.8405,5.17055" speed="36.11111111111111" width="2.4999875139688204"/>
		<lane allow="moped bicycle pedestrian custom1 trailer evehicle rail_urban ship private truck vip custom2 authority delivery rail_electric taxi tram army hov coach motorcycle passenger bus rail emergency" index="1" length="7.600318204522756" shape="16.733,12.6304 16.53505,8.8354 16.3371,5.0404" speed="36.11111111111111" width="2.4999927199893994"/>
	</edge>
	<edge from="4" function="normal" id="1443" length="10.333666046120406" numLanes="1" priority="1" speed="36.11111111111111" spreadType="center" to="15">
		<lane allow="moped bicycle pedestrian custom1 trailer evehicle rail_urban ship private vip custom2 authority delivery rail_electric taxi tram army hov coach motorcycle passenger rail emergency" index="0" length="10.333666046120406" shape="15.69005,88.644 15.5295,86.20405 15.13525,84.4247 14.65565,83.30879999999999 13.9209,82.3451 13.44655,81.9662 12.9098,81.6821 11.7283,81.4167 10.515799999999999,81.4799" speed="36.11111111111111" width="2.496415432174701"/>
	</edge>
</edges>
