<!-- generated on 2020-12-18 16:50:39.177036 by ipykernel_launcher.py v1_2_0+5214-53edc58fcd
-->
<connections>
	<connection contPos="-4.0" from="53" fromLane="0" keepClear="true" to="65" toLane="0"/>
	<connection contPos="-4.0" from="55" fromLane="1" keepClear="true" to="68" toLane="1"/>
	<connection contPos="-4.0" from="55" fromLane="0" keepClear="true" to="68" toLane="0"/>
	<connection contPos="-4.0" from="56" fromLane="0" keepClear="true" to="67" toLane="0"/>
	<connection contPos="-4.0" from="58" fromLane="1" keepClear="true" to="66" toLane="1"/>
	<connection contPos="-4.0" from="58" fromLane="0" keepClear="true" to="66" toLane="0"/>
	<connection contPos="-4.0" from="59" fromLane="0" keepClear="true" to="62" toLane="0"/>
	<connection contPos="-4.0" from="62" fromLane="0" keepClear="true" to="56" toLane="0"/>
	<connection contPos="-4.0" from="68" fromLane="1" keepClear="true" to="61" toLane="1"/>
	<connection contPos="-4.0" from="66" fromLane="1" keepClear="true" to="55" toLane="1"/>
	<connection contPos="-4.0" from="65" fromLane="0" keepClear="true" to="59" toLane="0"/>
	<connection contPos="-4.0" from="66" fromLane="0" keepClear="true" to="55" toLane="0"/>
	<connection contPos="-4.0" from="67" fromLane="0" keepClear="true" to="61" toLane="0"/>
	<connection contPos="-4.0" from="68" fromLane="0" keepClear="true" to="61" toLane="0"/>
</connections>
