<routes>
	<vehicle depart="0.1" departLane="0" departPos="10.183651182174533" departSpeed="0.11042475" id="31" type="passenger">
		<route edges=":29_5 5930"/>
	</vehicle>
	<vehicle depart="0.1" departLane="0" departPos="59.02912922577569" departSpeed="0.0" id="37" type="passenger">
		<route edges="6025 5831"/>
	</vehicle>
	<vehicle depart="0.1" departLane="0" departPos="21.15247253410957" departSpeed="0.53664479" id="310" type="passenger">
		<route edges=":30_4 6028"/>
	</vehicle>
	<vehicle depart="0.1" departLane="0" departPos="51.528129635045325" departSpeed="0.0" id="316" type="passenger">
		<route edges="6025 5831"/>
	</vehicle>
	<vehicle depart="0.1" departLane="0" departPos="11.25824147518075" departSpeed="0.021281145" id="318" type="passenger">
		<route edges=":30_4 6028"/>
	</vehicle>
	<vehicle depart="0.1" departLane="0" departPos="44.027130044314966" departSpeed="0.0" id="324" type="passenger">
		<route edges="6025 5831"/>
	</vehicle>
	<vehicle depart="0.1" departLane="0" departPos="22.889008305129437" departSpeed="13.019326" id="347" type="passenger">
		<route edges=":29_2 5930 5486"/>
	</vehicle>
	<vehicle depart="0.1" departLane="0" departPos="70.23446260691985" departSpeed="0.32983615" id="35" type="motorcycle">
		<route edges="5832 6028"/>
	</vehicle>
	<vehicle depart="0.1" departLane="0" departPos="18.144927939968696" departSpeed="0.75078338" id="30" type="truck">
		<route edges=":29_1 6031"/>
	</vehicle>
	<vehicle depart="0.1" departLane="0" departPos="36.52605914838127" departSpeed="9.1727222e-05" id="326" type="truck">
		<route edges="6025 5831"/>
	</vehicle>
</routes>
