<routes>
	<vehicle depart="0.1" departLane="0" departPos="11.938505601451592" departSpeed="0.0" id="35" type="passenger">
		<route edges="62665 62668"/>
	</vehicle>
	<vehicle depart="0.1" departLane="0" departPos="19.437269884191302" departSpeed="0.0" id="312" type="passenger">
		<route edges="62665 62668"/>
	</vehicle>
	<vehicle depart="0.1" departLane="0" departPos="2.5" departSpeed="0.0" id="315" type="passenger">
		<route edges="62665 62668"/>
	</vehicle>
	<vehicle depart="0.1" departLane="0" departPos="22.407776496869964" departSpeed="0.0" id="316" type="passenger">
		<route edges="62753 62661"/>
	</vehicle>
	<vehicle depart="0.1" departLane="0" departPos="28.036696374945013" departSpeed="0.0" id="318" type="passenger">
		<route edges="62662 62665"/>
	</vehicle>
	<vehicle depart="0.1" departLane="0" departPos="15.290787199226761" departSpeed="0.0" id="319" type="passenger">
		<route edges="62753 62661"/>
	</vehicle>
	<vehicle depart="0.1" departLane="0" departPos="34.48103612628479" departSpeed="0.0" id="335" type="passenger">
		<route edges="62753 62661"/>
	</vehicle>
	<vehicle depart="0.1" departLane="0" departPos="53.49341186657967" departSpeed="13.672639" id="390" type="passenger">
		<route edges="62667 62703"/>
	</vehicle>
	<vehicle depart="0.1" departLane="0" departPos="27.1527271589244" departSpeed="0.0" id="33" type="motorcycle">
		<route edges="62753 62661"/>
	</vehicle>
</routes>
