<routes>
	<vehicle depart="0.1" departLane="0" departPos="10.649730594523227" departSpeed="0.77405971" id="318" type="bicycle">
		<route edges="2040 2088"/>
	</vehicle>
	<vehicle depart="0.1" departLane="0" departPos="24.977624493343946" departSpeed="0.0" id="36" type="passenger">
		<route edges="2040 2088"/>
	</vehicle>
	<vehicle depart="0.1" departLane="0" departPos="17.44463786439916" departSpeed="0.036169292" id="315" type="passenger">
		<route edges="2040 2088"/>
	</vehicle>
	<vehicle depart="0.1" departLane="0" departPos="9.631641142927396" departSpeed="0.32797131" id="334" type="passenger">
		<route edges="2040 2088"/>
	</vehicle>
	<vehicle depart="0.1" departLane="0" departPos="27.5395180489556" departSpeed="1.2888316" id="337" type="passenger">
		<route edges="1676 2040 2088"/>
	</vehicle>
	<vehicle depart="0.1" departLane="0" departPos="17.124266247734592" departSpeed="2.7186733" id="340" type="passenger">
		<route edges="1676 2040"/>
	</vehicle>
	<vehicle depart="0.1" departLane="0" departPos="12.829806089828388" departSpeed="13.406631" id="345" type="passenger">
		<route edges="3519 1677 2045"/>
	</vehicle>
	<vehicle depart="0.1" departLane="0" departPos="58.54565816923061" departSpeed="14.348859" id="348" type="passenger">
		<route edges="2089 3519"/>
	</vehicle>
	<vehicle depart="0.1" departLane="0" departPos="12.561114539107578" departSpeed="10.593579" id="349" type="passenger">
		<route edges=":28_0 2088"/>
	</vehicle>
	<vehicle depart="0.1" departLane="0" departPos="47.345808018897614" departSpeed="12.843381" id="354" type="passenger">
		<route edges="2038 3519"/>
	</vehicle>
</routes>
