<routes>
	<vehicle depart="0.1" departLane="0" departPos="62.40106546111384" departSpeed="0.0" id="32" type="passenger">
		<route edges="72241 76560"/>
	</vehicle>
	<vehicle depart="0.1" departLane="0" departPos="69.9021140846161" departSpeed="0.0" id="38" type="passenger">
		<route edges="72241 76560"/>
	</vehicle>
	<vehicle depart="0.1" departLane="0" departPos="41.59851435788421" departSpeed="0.31775309" id="39" type="passenger">
		<route edges="72576 72814"/>
	</vehicle>
	<vehicle depart="0.1" departLane="0" departPos="29.791180980076827" departSpeed="8.5805125" id="323" type="passenger">
		<route edges=":15_7 72242"/>
	</vehicle>
	<vehicle depart="0.1" departLane="0" departPos="12.697138664325323" departSpeed="12.14777" id="324" type="passenger">
		<route edges=":15_6 76560 72578"/>
	</vehicle>
	<vehicle depart="0.1" departLane="0" departPos="68.430259101864" departSpeed="8.7375011" id="325" type="passenger">
		<route edges="72812 76560"/>
	</vehicle>
	<vehicle depart="0.1" departLane="0" departPos="26.65512681788163" departSpeed="7.8007719" id="328" type="passenger">
		<route edges="72812 76560"/>
	</vehicle>
	<vehicle depart="0.1" departLane="0" departPos="46.54858382153488" departSpeed="10.361513" id="327" type="motorcycle">
		<route edges="72812 72242"/>
	</vehicle>
	<vehicle depart="0.1" departLane="0" departPos="13.231234978540916" departSpeed="1.0115463" id="30" type="truck">
		<route edges="72814 72242"/>
	</vehicle>
</routes>
