<!-- generated on Tue Feb  9 22:22:52 2021 by Eclipse SUMO netconvert Version 1.8.0
<configuration xmlns:xsi="http://www.w3.org/2001/XMLSchema-instance" xsi:noNamespaceSchemaLocation="http://sumo.dlr.de/xsd/netconvertConfiguration.xsd">

    <input>
        <node-files value="./converted_scenarios/scenario-factory/DEU_Guetersloh-20_3_I-1-1/DEU_Guetersloh-20_3_I-1-1.nod.xml"/>
        <edge-files value="./converted_scenarios/scenario-factory/DEU_Guetersloh-20_3_I-1-1/DEU_Guetersloh-20_3_I-1-1.edg.xml"/>
        <connection-files value="./converted_scenarios/scenario-factory/DEU_Guetersloh-20_3_I-1-1/DEU_Guetersloh-20_3_I-1-1.con.xml"/>
        <tllogic-files value="./converted_scenarios/scenario-factory/DEU_Guetersloh-20_3_I-1-1/DEU_Guetersloh-20_3_I-1-1.tll.xml"/>
        <type-files value="/home/zen/commonroad-interactive-benchmarks/install/commonroad-map-tool/crmapconverter/sumo_map/templates/DEU.typ.xml"/>
    </input>

    <output>
        <output-file value="./converted_scenarios/scenario-factory/DEU_Guetersloh-20_3_I-1-1/DEU_Guetersloh-20_3_I-1-1.net.xml"/>
    </output>

    <processing>
        <geometry.remove.keep-edges.explicit value="true"/>
        <geometry.avoid-overlap value="true"/>
        <offset.disable-normalization value="true"/>
    </processing>

    <junctions>
        <no-turnarounds value="true"/>
        <junctions.internal-link-detail value="20"/>
    </junctions>

    <report>
        <aggregate-warnings value="5"/>
    </report>

    <random_number>
        <seed value="1234"/>
    </random_number>

</configuration>
--><net xmlns:xsi="http://www.w3.org/2001/XMLSchema-instance" version="1.6" junctionCornerDetail="5" junctionLinkDetail="20" limitTurnSpeed="5.50" xsi:noNamespaceSchemaLocation="http://sumo.dlr.de/xsd/net_file.xsd">

    <location netOffset="0.00,0.00" convBoundary="838.96,89.46,979.87,249.52" origBoundary="838.96,88.59,979.87,249.52" projParameter="!"/>

    <type id="highway.bridleway" priority="1" speed="2.78" allow="pedestrian" oneway="1" width="2.00"/>
    <type id="highway.bus_guideway" priority="1" speed="27.78" allow="bus" oneway="1"/>
    <type id="highway.cycleway" priority="1" speed="8.33" allow="bicycle" oneway="0" width="1.00"/>
    <type id="highway.footway" priority="1" speed="2.78" allow="pedestrian" oneway="1" width="2.00"/>
    <type id="highway.ford" priority="1" speed="2.78" allow="army" oneway="0"/>
    <type id="highway.living_street" priority="2" speed="2.78" disallow="tram rail_urban rail rail_electric rail_fast ship" oneway="0"/>
    <type id="highway.motorway" priority="14" speed="39.44" allow="private emergency authority army vip passenger hov taxi bus coach delivery truck trailer motorcycle evehicle custom1 custom2" oneway="1"/>
    <type id="highway.motorway_link" priority="9" speed="22.22" allow="private emergency authority army vip passenger hov taxi bus coach delivery truck trailer motorcycle evehicle custom1 custom2" oneway="1"/>
    <type id="highway.path" priority="1" speed="2.78" allow="pedestrian bicycle" oneway="0" width="2.00"/>
    <type id="highway.pedestrian" priority="1" speed="2.78" allow="pedestrian" oneway="1" width="2.00"/>
    <type id="highway.primary" priority="12" speed="27.78" disallow="pedestrian tram rail_urban rail rail_electric rail_fast ship" oneway="0"/>
    <type id="highway.primary_link" priority="7" speed="22.22" disallow="pedestrian tram rail_urban rail rail_electric rail_fast ship" oneway="0"/>
    <type id="highway.raceway" priority="15" speed="83.33" allow="vip" oneway="0"/>
    <type id="highway.residential" priority="3" speed="13.89" disallow="pedestrian tram rail_urban rail rail_electric rail_fast ship" oneway="0"/>
    <type id="highway.secondary" priority="11" speed="27.78" disallow="pedestrian tram rail_urban rail rail_electric rail_fast ship" oneway="0"/>
    <type id="highway.secondary_link" priority="6" speed="22.22" disallow="pedestrian tram rail_urban rail rail_electric rail_fast ship" oneway="0"/>
    <type id="highway.service" priority="1" speed="5.56" allow="pedestrian delivery bicycle" oneway="0"/>
    <type id="highway.stairs" priority="1" speed="1.39" allow="pedestrian" oneway="1" width="2.00"/>
    <type id="highway.step" priority="1" speed="1.39" allow="pedestrian" oneway="1" width="2.00"/>
    <type id="highway.steps" priority="1" speed="1.39" allow="pedestrian" oneway="1" width="2.00"/>
    <type id="highway.tertiary" priority="10" speed="22.22" disallow="pedestrian tram rail_urban rail rail_electric rail_fast ship" oneway="0"/>
    <type id="highway.tertiary_link" priority="5" speed="22.22" disallow="pedestrian tram rail_urban rail rail_electric rail_fast ship" oneway="0"/>
    <type id="highway.track" priority="1" speed="5.56" allow="pedestrian motorcycle moped bicycle" oneway="0"/>
    <type id="highway.trunk" priority="13" speed="27.78" disallow="pedestrian bicycle tram rail_urban rail rail_electric rail_fast ship" oneway="0"/>
    <type id="highway.trunk_link" priority="8" speed="22.22" disallow="pedestrian bicycle tram rail_urban rail rail_electric rail_fast ship" oneway="0"/>
    <type id="highway.unclassified" priority="4" speed="13.89" disallow="pedestrian tram rail_urban rail rail_electric rail_fast ship" oneway="0"/>
    <type id="highway.unsurfaced" priority="1" speed="8.33" disallow="tram rail_urban rail rail_electric rail_fast ship" oneway="0"/>
    <type id="railway.highspeed" priority="21" speed="69.44" allow="rail_fast" oneway="1"/>
    <type id="railway.light_rail" priority="19" speed="27.78" allow="rail_urban" oneway="1"/>
    <type id="railway.preserved" priority="16" speed="27.78" allow="rail" oneway="1"/>
    <type id="railway.rail" priority="20" speed="44.44" allow="rail" oneway="1"/>
    <type id="railway.subway" priority="18" speed="27.78" allow="rail_urban" oneway="1"/>
    <type id="railway.tram" priority="17" speed="13.89" allow="tram" oneway="1"/>

    <edge id=":12_0" function="internal">
        <lane id=":12_0_0" index="0" disallow="pedestrian tram rail_urban rail rail_electric rail_fast ship" speed="36.11" length="2.91" width="3.50" shape="945.86,136.46 943.93,138.64"/>
    </edge>
    <edge id=":15_0" function="internal">
        <lane id=":15_0_0" index="0" disallow="pedestrian tram rail_urban rail rail_electric rail_fast ship" speed="10.50" length="30.94" width="3.50" shape="922.08,184.25 921.62,183.09 920.56,180.81 919.34,178.68 917.91,176.71 917.13,175.86 916.29,175.08 915.39,174.40 914.43,173.84 913.43,173.41 912.38,173.11 911.30,172.95 910.20,172.93 909.07,173.04 907.94,173.26 906.81,173.58 905.72,173.98 903.49,175.04 901.38,176.32 898.30,178.57"/>
    </edge>
    <edge id=":15_1" function="internal">
        <lane id=":15_1_0" index="0" disallow="pedestrian tram rail_urban rail rail_electric rail_fast ship" speed="14.36" length="33.64" width="3.50" shape="922.08,184.25 920.90,180.98 919.55,176.55 918.77,173.13 918.24,169.63 918.05,166.07 918.18,163.64 918.56,161.22 919.24,158.83 920.27,156.53 921.66,154.41 923.34,152.56"/>
    </edge>
    <edge id=":15_2" function="internal">
        <lane id=":15_2_0" index="0" disallow="pedestrian tram rail_urban rail rail_electric rail_fast ship" speed="14.36" length="33.64" width="3.50" shape="922.08,184.25 920.90,180.98 919.55,176.55 918.77,173.13 918.24,169.63 918.05,166.07 918.18,163.64 918.56,161.22 919.24,158.83 920.27,156.53 921.66,154.41 923.34,152.56"/>
    </edge>
    <edge id=":15_3" function="internal">
        <lane id=":15_3_0" index="0" disallow="pedestrian tram rail_urban rail rail_electric rail_fast ship" speed="13.40" length="29.52" width="3.50" shape="925.75,155.10 924.34,156.65 923.22,158.43 922.40,160.38 921.87,162.42 921.60,164.51 921.54,166.62 921.76,169.78 922.28,172.90 923.02,175.98 924.26,180.01 925.35,182.98"/>
    </edge>
    <edge id=":15_4" function="internal">
        <lane id=":15_4_0" index="0" disallow="pedestrian tram rail_urban rail rail_electric rail_fast ship" speed="36.11" length="36.12" width="3.50" shape="925.75,155.10 919.64,160.65 909.49,169.41 898.30,178.57"/>
    </edge>
    <edge id=":15_5" function="internal">
        <lane id=":15_5_0" index="0" disallow="pedestrian tram rail_urban rail rail_electric rail_fast ship" speed="36.11" length="35.82" width="3.50" shape="896.12,175.83 907.23,166.74 917.31,158.03 923.34,152.56"/>
    </edge>
    <edge id=":15_6" function="internal">
        <lane id=":15_6_0" index="0" disallow="pedestrian tram rail_urban rail rail_electric rail_fast ship" speed="36.11" length="35.82" width="3.50" shape="896.12,175.83 907.23,166.74 917.31,158.03 923.34,152.56"/>
    </edge>
    <edge id=":15_7" function="internal">
        <lane id=":15_7_0" index="0" disallow="pedestrian tram rail_urban rail rail_electric rail_fast ship" speed="11.56" length="37.74" width="3.50" shape="896.12,175.83 899.65,173.26 902.14,171.76 904.76,170.51 906.12,170.01 907.52,169.62 908.94,169.35 910.39,169.22 911.84,169.26 913.27,169.48 914.66,169.88 915.99,170.46 917.24,171.20 918.40,172.07 919.46,173.06 920.44,174.14 922.14,176.48 923.58,179.00 924.80,181.64 925.35,182.98"/>
    </edge>
    <edge id=":9_0" function="internal">
        <lane id=":9_0_0" index="0" disallow="pedestrian tram rail_urban rail rail_electric rail_fast ship" speed="36.11" length="3.10" width="3.50" shape="938.59,134.22 940.59,131.85"/>
    </edge>
    <edge id=":9_1" function="internal">
        <lane id=":9_1_0" index="0" disallow="pedestrian tram rail_urban rail rail_electric rail_fast ship" speed="36.11" length="3.25" width="3.50" shape="941.10,136.55 943.26,134.12"/>
    </edge>

    <edge id="72241" from="8" to="15" priority="3" type="highway.residential" spreadType="center" length="70.00" shape="947.35,249.52 913.54,172.21">
        <lane id="72241_0" index="0" disallow="pedestrian tram rail_urban rail rail_electric rail_fast ship" speed="36.11" length="70.00" width="3.50" customShape="1" shape="947.35,249.52 939.58,229.44 922.08,184.24"/>
    </edge>
    <edge id="72242" from="15" to="3" priority="3" type="highway.residential" spreadType="center" length="70.00" shape="916.75,170.81 950.62,248.26">
        <lane id="72242_0" index="0" disallow="pedestrian tram rail_urban rail rail_electric rail_fast ship" speed="36.11" length="70.00" width="3.50" customShape="1" shape="925.35,182.98 942.84,228.18 950.62,248.26"/>
    </edge>
    <edge id="72576" from="13" to="12" priority="3" type="highway.residential" spreadType="center" length="56.01">
        <lane id="72576_0" index="0" disallow="pedestrian tram rail_urban rail rail_electric rail_fast ship" speed="36.11" length="56.01" width="3.50" customShape="1" shape="979.87,92.08 977.27,96.51 973.67,102.12 968.87,108.78 962.83,116.44 945.86,136.46"/>
    </edge>
    <edge id="72578" from="9" to="10" priority="3" type="highway.residential" spreadType="center" length="54.66">
        <lane id="72578_0" index="0" disallow="pedestrian tram rail_urban rail rail_electric rail_fast ship" speed="36.11" length="54.66" width="3.50" acceleration="1" customShape="1" shape="940.59,131.85 957.18,112.30 963.07,104.84 967.74,98.38 971.25,92.93 973.82,88.57"/>
        <lane id="72578_1" index="1" disallow="pedestrian tram rail_urban rail rail_electric rail_fast ship" speed="36.11" length="55.28" width="3.50" customShape="1" shape="943.26,134.12 960.05,114.31 966.02,106.76 970.74,100.21 974.27,94.69 976.84,90.33"/>
    </edge>
    <edge id="72811" from="15" to="6" priority="3" type="highway.residential" spreadType="center" length="70.00" shape="916.10,173.02 841.13,218.93">
        <lane id="72811_0" index="0" disallow="pedestrian tram rail_urban rail rail_electric rail_fast ship" speed="36.11" length="70.00" width="3.50" customShape="1" shape="898.30,178.57 896.74,179.82 888.31,186.26 876.40,194.81 855.95,208.77 841.13,218.93"/>
    </edge>
    <edge id="72812" from="11" to="15" priority="3" type="highway.residential" spreadType="center" length="70.00" shape="838.96,216.18 914.27,170.04">
        <lane id="72812_0" index="0" disallow="pedestrian tram rail_urban rail rail_electric rail_fast ship" speed="36.11" length="70.00" width="3.50" customShape="1" shape="838.96,216.18 853.89,205.94 874.31,192.00 886.18,183.48 894.57,177.07 896.13,175.82"/>
    </edge>
    <edge id="72814" from="12" to="15" priority="3" type="highway.residential" spreadType="center" length="24.54" shape="944.92,137.57 916.47,172.70">
        <lane id="72814_0" index="0" disallow="pedestrian tram rail_urban rail rail_electric rail_fast ship" speed="36.11" length="24.54" width="3.50" customShape="1" shape="943.93,138.64 942.01,140.72 938.11,144.41 927.53,153.47 925.94,154.91 925.85,155.00 925.75,155.10"/>
    </edge>
    <edge id="76560" from="15" to="9" priority="3" type="highway.residential" spreadType="center" length="23.88" shape="913.72,170.55 940.94,134.14">
        <lane id="76560_0" index="0" disallow="pedestrian tram rail_urban rail rail_electric rail_fast ship" speed="36.11" length="23.88" width="3.50" customShape="1" shape="923.34,152.56 923.47,152.44 923.56,152.35 926.81,149.06 930.13,145.15 938.29,134.58 938.59,134.22"/>
    </edge>
    <edge id="76561" from="15" to="9" priority="3" type="highway.residential" spreadType="center" length="23.93">
        <lane id="76561_0" index="0" disallow="pedestrian tram rail_urban rail rail_electric rail_fast ship" speed="36.11" length="23.93" width="3.50" customShape="1" shape="923.34,152.56 923.47,152.44 923.56,152.35 925.17,150.89 935.67,141.91 939.46,138.33 941.10,136.55"/>
    </edge>

    <junction id="10" type="dead_end" x="975.32" y="89.46" incLanes="72578_0 72578_1" intLanes="" shape="972.31,87.68 978.34,91.23" rightOfWay="edgePriority"/>
    <junction id="11" type="dead_end" x="838.96" y="216.18" incLanes="" intLanes="" shape="839.95,217.63 837.97,214.74" rightOfWay="edgePriority"/>
    <junction id="12" type="priority" x="944.92" y="137.57" incLanes="72576_0" intLanes=":12_0_0" shape="947.20,137.59 944.53,135.33 942.65,137.45 945.22,139.82" rightOfWay="edgePriority">
        <request index="0" response="0" foes="0" cont="0"/>
    </junction>
    <junction id="13" type="dead_end" x="979.87" y="92.08" incLanes="" intLanes="" shape="978.36,91.19 981.38,92.97" rightOfWay="edgePriority"/>
    <junction id="15" type="priority" x="915.16" y="171.55" incLanes="72241_0 72814_0 72812_0" intLanes=":15_0_0 :15_1_0 :15_2_0 :15_3_0 :15_4_0 :15_5_0 :15_6_0 :15_7_0" shape="920.45,184.88 926.98,182.35 924.92,176.32 923.68,170.96 923.27,166.29 923.67,162.30 924.90,158.99 926.95,156.36 922.13,151.29 916.60,156.50 912.46,160.29 908.96,163.32 905.38,166.25 900.98,169.74 895.03,174.46 899.39,179.94 904.04,176.84 908.24,175.31 911.97,175.35 915.26,176.95 918.08,180.13">
        <request index="0" response="00010000" foes="00010000" cont="0"/>
        <request index="1" response="10110000" foes="10110000" cont="0"/>
        <request index="2" response="11110000" foes="11110000" cont="0"/>
        <request index="3" response="00000000" foes="10000000" cont="0"/>
        <request index="4" response="00000000" foes="10000111" cont="0"/>
        <request index="5" response="00000000" foes="00000110" cont="0"/>
        <request index="6" response="00000000" foes="00000100" cont="0"/>
        <request index="7" response="00011000" foes="00011110" cont="0"/>
    </junction>
    <junction id="3" type="dead_end" x="950.62" y="248.26" incLanes="72242_0" intLanes="" shape="952.25,247.63 948.98,248.90" rightOfWay="edgePriority"/>
    <junction id="6" type="dead_end" x="841.13" y="218.93" incLanes="72811_0" intLanes="" shape="842.12,220.38 840.14,217.49" rightOfWay="edgePriority"/>
    <junction id="8" type="dead_end" x="947.35" y="249.52" incLanes="" intLanes="" shape="948.98,248.89 945.72,250.15" rightOfWay="edgePriority"/>
    <junction id="9" type="priority" x="940.94" y="134.14" incLanes="76560_0 76561_0" intLanes=":9_0_0 :9_1_0" shape="944.59,135.25 939.26,130.72 938.62,131.66 938.29,132.40 938.05,132.83 937.66,133.35 942.38,137.74" rightOfWay="edgePriority">
        <request index="0" response="00" foes="00" cont="0"/>
        <request index="1" response="00" foes="00" cont="0"/>
    </junction>

    <connection from="72241" to="72811" fromLane="0" toLane="0" contPos="-4.00" shape="922.08,184.24 921.62,183.09 920.56,180.81 919.34,178.68 917.91,176.71 917.13,175.86 916.29,175.08 915.39,174.40 914.43,173.84 913.43,173.41 912.38,173.11 911.30,172.95 910.20,172.93 909.07,173.04 907.94,173.26 906.81,173.58 905.72,173.98 903.49,175.04 901.38,176.32 898.30,178.57" via=":15_0_0" dir="r" state="m"/>
    <connection from="72241" to="76561" fromLane="0" toLane="0" contPos="-4.00" shape="922.08,184.24 920.90,180.98 919.55,176.55 918.77,173.13 918.24,169.63 918.05,166.07 918.18,163.64 918.56,161.22 919.24,158.83 920.27,156.53 921.66,154.41 923.34,152.56" via=":15_1_0" dir="l" state="m"/>
    <connection from="72241" to="76560" fromLane="0" toLane="0" contPos="-4.00" shape="922.08,184.24 920.90,180.98 919.55,176.55 918.77,173.13 918.24,169.63 918.05,166.07 918.18,163.64 918.56,161.22 919.24,158.83 920.27,156.53 921.66,154.41 923.34,152.56" via=":15_2_0" dir="L" state="m"/>
    <connection from="72576" to="72814" fromLane="0" toLane="0" contPos="-4.00" via=":12_0_0" dir="s" state="M"/>
    <connection from="72812" to="76561" fromLane="0" toLane="0" contPos="-4.00" shape="896.13,175.82 907.23,166.74 917.31,158.03 923.34,152.56" via=":15_5_0" dir="s" state="M"/>
    <connection from="72812" to="76560" fromLane="0" toLane="0" contPos="-4.00" shape="896.13,175.82 907.23,166.74 917.31,158.03 923.34,152.56" via=":15_6_0" dir="s" state="M"/>
    <connection from="72812" to="72242" fromLane="0" toLane="0" contPos="-4.00" shape="896.13,175.82 899.65,173.26 902.14,171.76 904.76,170.51 906.12,170.01 907.52,169.62 908.94,169.35 910.39,169.22 911.84,169.26 913.27,169.48 914.66,169.88 915.99,170.46 917.24,171.20 918.40,172.07 919.46,173.06 920.44,174.14 922.14,176.48 923.58,179.00 924.80,181.64 925.35,182.98" via=":15_7_0" dir="l" state="m"/>
    <connection from="72814" to="72242" fromLane="0" toLane="0" contPos="-4.00" shape="925.75,155.10 924.34,156.65 923.22,158.43 922.40,160.38 921.87,162.42 921.60,164.51 921.54,166.62 921.76,169.78 922.28,172.90 923.02,175.98 924.26,180.01 925.35,182.98" via=":15_3_0" dir="r" state="M"/>
    <connection from="72814" to="72811" fromLane="0" toLane="0" contPos="-4.00" shape="925.75,155.10 919.64,160.65 909.49,169.41 898.30,178.57" via=":15_4_0" dir="s" state="M"/>
    <connection from="76560" to="72578" fromLane="0" toLane="0" contPos="-4.00" via=":9_0_0" dir="s" state="M"/>
    <connection from="76561" to="72578" fromLane="0" toLane="1" contPos="-4.00" via=":9_1_0" dir="s" state="M"/>

    <connection from=":12_0" to="72814" fromLane="0" toLane="0" dir="s" state="M"/>
    <connection from=":15_0" to="72811" fromLane="0" toLane="0" dir="r" state="M"/>
    <connection from=":15_1" to="76561" fromLane="0" toLane="0" dir="l" state="M"/>
    <connection from=":15_2" to="76560" fromLane="0" toLane="0" dir="L" state="M"/>
    <connection from=":15_3" to="72242" fromLane="0" toLane="0" dir="r" state="M"/>
    <connection from=":15_4" to="72811" fromLane="0" toLane="0" dir="s" state="M"/>
    <connection from=":15_5" to="76561" fromLane="0" toLane="0" dir="s" state="M"/>
    <connection from=":15_6" to="76560" fromLane="0" toLane="0" dir="s" state="M"/>
    <connection from=":15_7" to="72242" fromLane="0" toLane="0" dir="l" state="M"/>
    <connection from=":9_0" to="72578" fromLane="0" toLane="0" dir="s" state="M"/>
    <connection from=":9_1" to="72578" fromLane="0" toLane="1" dir="s" state="M"/>

</net>