<routes>
	<vehicle depart="0.1" departLane="0" departPos="2.5" departSpeed="1.4429209" id="34" type="passenger">
		<route edges=":37_1 47680"/>
	</vehicle>
	<vehicle depart="0.1" departLane="0" departPos="64.85713994097657" departSpeed="1.9679502" id="311" type="passenger">
		<route edges="47803 47676 47673"/>
	</vehicle>
	<vehicle depart="0.1" departLane="0" departPos="26.79802567276844" departSpeed="2.1446308" id="317" type="passenger">
		<route edges=":37_1 47680 47965"/>
	</vehicle>
	<vehicle depart="0.1" departLane="0" departPos="18.040380610809144" departSpeed="1.6259716" id="318" type="passenger">
		<route edges=":37_1 47680"/>
	</vehicle>
	<vehicle depart="0.1" departLane="0" departPos="54.48833186942043" departSpeed="1.7071235" id="326" type="passenger">
		<route edges="47803 47680"/>
	</vehicle>
	<vehicle depart="0.1" departLane="0" departPos="42.55806766424249" departSpeed="2.3274635" id="331" type="passenger">
		<route edges="47803 47680"/>
	</vehicle>
	<vehicle depart="0.1" departLane="0" departPos="30.080578547573904" departSpeed="1.3589627" id="339" type="passenger">
		<route edges="47803 47680"/>
	</vehicle>
	<vehicle depart="0.1" departLane="0" departPos="7.924266024265863" departSpeed="8.422596" id="348" type="passenger">
		<route edges=":37_2 47804"/>
	</vehicle>
	<vehicle depart="0.1" departLane="0" departPos="9.990559762440768" departSpeed="1.7746368" id="33" type="motorcycle">
		<route edges=":37_1 47680"/>
	</vehicle>
</routes>
