<!-- generated on Tue Feb  9 22:19:49 2021 by Eclipse SUMO netconvert Version 1.8.0
<configuration xmlns:xsi="http://www.w3.org/2001/XMLSchema-instance" xsi:noNamespaceSchemaLocation="http://sumo.dlr.de/xsd/netconvertConfiguration.xsd">

    <input>
        <node-files value="./converted_scenarios/scenario-factory/HRV_Pula-3_1_I-1-1/HRV_Pula-3_1_I-1-1.nod.xml"/>
        <edge-files value="./converted_scenarios/scenario-factory/HRV_Pula-3_1_I-1-1/HRV_Pula-3_1_I-1-1.edg.xml"/>
        <connection-files value="./converted_scenarios/scenario-factory/HRV_Pula-3_1_I-1-1/HRV_Pula-3_1_I-1-1.con.xml"/>
        <tllogic-files value="./converted_scenarios/scenario-factory/HRV_Pula-3_1_I-1-1/HRV_Pula-3_1_I-1-1.tll.xml"/>
        <type-files value="/home/zen/commonroad-interactive-benchmarks/install/commonroad-map-tool/crmapconverter/sumo_map/templates/DEU.typ.xml"/>
    </input>

    <output>
        <output-file value="./converted_scenarios/scenario-factory/HRV_Pula-3_1_I-1-1/HRV_Pula-3_1_I-1-1.net.xml"/>
    </output>

    <processing>
        <geometry.remove.keep-edges.explicit value="true"/>
        <geometry.avoid-overlap value="true"/>
        <offset.disable-normalization value="true"/>
    </processing>

    <junctions>
        <no-turnarounds value="true"/>
        <junctions.internal-link-detail value="20"/>
    </junctions>

    <report>
        <aggregate-warnings value="5"/>
    </report>

    <random_number>
        <seed value="1234"/>
    </random_number>

</configuration>
--><net xmlns:xsi="http://www.w3.org/2001/XMLSchema-instance" version="1.6" junctionCornerDetail="5" junctionLinkDetail="20" limitTurnSpeed="5.50" xsi:noNamespaceSchemaLocation="http://sumo.dlr.de/xsd/net_file.xsd">

    <location netOffset="0.00,0.00" convBoundary="27.36,233.89,202.59,384.77" origBoundary="27.36,233.89,202.59,384.77" projParameter="!"/>

    <type id="highway.bridleway" priority="1" speed="2.78" allow="pedestrian" oneway="1" width="2.00"/>
    <type id="highway.bus_guideway" priority="1" speed="27.78" allow="bus" oneway="1"/>
    <type id="highway.cycleway" priority="1" speed="8.33" allow="bicycle" oneway="0" width="1.00"/>
    <type id="highway.footway" priority="1" speed="2.78" allow="pedestrian" oneway="1" width="2.00"/>
    <type id="highway.ford" priority="1" speed="2.78" allow="army" oneway="0"/>
    <type id="highway.living_street" priority="2" speed="2.78" disallow="tram rail_urban rail rail_electric rail_fast ship" oneway="0"/>
    <type id="highway.motorway" priority="14" speed="39.44" allow="private emergency authority army vip passenger hov taxi bus coach delivery truck trailer motorcycle evehicle custom1 custom2" oneway="1"/>
    <type id="highway.motorway_link" priority="9" speed="22.22" allow="private emergency authority army vip passenger hov taxi bus coach delivery truck trailer motorcycle evehicle custom1 custom2" oneway="1"/>
    <type id="highway.path" priority="1" speed="2.78" allow="pedestrian bicycle" oneway="0" width="2.00"/>
    <type id="highway.pedestrian" priority="1" speed="2.78" allow="pedestrian" oneway="1" width="2.00"/>
    <type id="highway.primary" priority="12" speed="27.78" disallow="pedestrian tram rail_urban rail rail_electric rail_fast ship" oneway="0"/>
    <type id="highway.primary_link" priority="7" speed="22.22" disallow="pedestrian tram rail_urban rail rail_electric rail_fast ship" oneway="0"/>
    <type id="highway.raceway" priority="15" speed="83.33" allow="vip" oneway="0"/>
    <type id="highway.residential" priority="3" speed="13.89" disallow="pedestrian tram rail_urban rail rail_electric rail_fast ship" oneway="0"/>
    <type id="highway.secondary" priority="11" speed="27.78" disallow="pedestrian tram rail_urban rail rail_electric rail_fast ship" oneway="0"/>
    <type id="highway.secondary_link" priority="6" speed="22.22" disallow="pedestrian tram rail_urban rail rail_electric rail_fast ship" oneway="0"/>
    <type id="highway.service" priority="1" speed="5.56" allow="pedestrian delivery bicycle" oneway="0"/>
    <type id="highway.stairs" priority="1" speed="1.39" allow="pedestrian" oneway="1" width="2.00"/>
    <type id="highway.step" priority="1" speed="1.39" allow="pedestrian" oneway="1" width="2.00"/>
    <type id="highway.steps" priority="1" speed="1.39" allow="pedestrian" oneway="1" width="2.00"/>
    <type id="highway.tertiary" priority="10" speed="22.22" disallow="pedestrian tram rail_urban rail rail_electric rail_fast ship" oneway="0"/>
    <type id="highway.tertiary_link" priority="5" speed="22.22" disallow="pedestrian tram rail_urban rail rail_electric rail_fast ship" oneway="0"/>
    <type id="highway.track" priority="1" speed="5.56" allow="pedestrian motorcycle moped bicycle" oneway="0"/>
    <type id="highway.trunk" priority="13" speed="27.78" disallow="pedestrian bicycle tram rail_urban rail rail_electric rail_fast ship" oneway="0"/>
    <type id="highway.trunk_link" priority="8" speed="22.22" disallow="pedestrian bicycle tram rail_urban rail rail_electric rail_fast ship" oneway="0"/>
    <type id="highway.unclassified" priority="4" speed="13.89" disallow="pedestrian tram rail_urban rail rail_electric rail_fast ship" oneway="0"/>
    <type id="highway.unsurfaced" priority="1" speed="8.33" disallow="tram rail_urban rail rail_electric rail_fast ship" oneway="0"/>
    <type id="railway.highspeed" priority="21" speed="69.44" allow="rail_fast" oneway="1"/>
    <type id="railway.light_rail" priority="19" speed="27.78" allow="rail_urban" oneway="1"/>
    <type id="railway.preserved" priority="16" speed="27.78" allow="rail" oneway="1"/>
    <type id="railway.rail" priority="20" speed="44.44" allow="rail" oneway="1"/>
    <type id="railway.subway" priority="18" speed="27.78" allow="rail_urban" oneway="1"/>
    <type id="railway.tram" priority="17" speed="13.89" allow="tram" oneway="1"/>

    <edge id=":35_0" function="internal">
        <lane id=":35_0_0" index="0" disallow="pedestrian tram rail_urban rail rail_electric rail_fast ship" speed="12.07" length="30.31" width="3.50" shape="133.63,249.29 131.44,249.65 129.33,250.19 127.32,250.93 125.43,251.90 123.71,253.11 122.19,254.55 120.89,256.19 119.81,258.01 118.95,259.98 118.30,262.05 117.83,264.19 117.43,267.52 117.32,270.89"/>
    </edge>
    <edge id=":35_1" function="internal">
        <lane id=":35_1_0" index="0" disallow="pedestrian tram rail_urban rail rail_electric rail_fast ship" speed="36.11" length="39.84" width="3.50" shape="133.63,249.29 123.63,250.74 107.21,253.39 99.20,254.37 94.18,254.76"/>
    </edge>
    <edge id=":35_2" function="internal">
        <lane id=":35_2_0" index="0" disallow="pedestrian tram rail_urban rail rail_electric rail_fast ship" speed="36.11" length="39.46" width="3.50" shape="93.77,247.77 104.89,247.33 120.57,246.86 128.65,246.30 133.17,245.82"/>
    </edge>
    <edge id=":35_3" function="internal">
        <lane id=":35_3_0" index="0" disallow="pedestrian tram rail_urban rail rail_electric rail_fast ship" speed="12.15" length="35.29" width="3.50" shape="93.98,251.27 95.25,251.21 98.98,251.26 101.53,251.52 104.07,252.01 106.56,252.80 108.94,253.92 110.11,254.65 111.19,255.46 112.20,256.37 113.13,257.37 113.95,258.45 114.68,259.59 115.31,260.81 116.25,263.25 116.87,265.79 117.21,268.34 117.32,270.89"/>
    </edge>
    <edge id=":35_4" function="internal">
        <lane id=":35_4_0" index="0" disallow="pedestrian tram rail_urban rail rail_electric rail_fast ship" speed="11.15" length="29.51" width="3.50" shape="113.82,270.91 113.72,268.73 113.43,266.56 112.91,264.44 112.11,262.40 111.60,261.44 111.00,260.52 110.33,259.66 109.58,258.87 108.76,258.14 107.88,257.50 106.95,256.92 104.96,256.01 102.87,255.37 100.73,254.96 98.55,254.75 95.27,254.71 94.18,254.76"/>
    </edge>
    <edge id=":35_5" function="internal">
        <lane id=":35_5_0" index="0" disallow="pedestrian tram rail_urban rail rail_electric rail_fast ship" speed="13.02" length="35.41" width="3.50" shape="113.82,270.91 113.95,267.12 114.41,263.35 114.96,260.88 115.74,258.47 116.77,256.16 118.07,253.99 119.66,252.03 121.52,250.31 123.60,248.87 125.85,247.72 128.23,246.85 130.68,246.23 133.17,245.82"/>
    </edge>
    <edge id=":36_0" function="internal">
        <lane id=":36_0_0" index="0" disallow="pedestrian tram rail_urban rail rail_electric rail_fast ship" speed="16.44" length="31.48" width="3.50" shape="134.89,324.31 132.79,324.98 128.78,326.52 125.90,327.86 123.14,329.40 120.54,331.16 118.14,333.16 115.99,335.38 114.13,337.84 112.61,340.52 111.43,343.41"/>
    </edge>
    <edge id=":36_1" function="internal">
        <lane id=":36_1_0" index="0" disallow="pedestrian tram rail_urban rail rail_electric rail_fast ship" speed="9.89" length="28.98" width="3.50" shape="134.89,324.31 132.28,325.06 128.42,325.94 125.75,326.35 123.04,326.53 121.62,326.49 120.19,326.34 118.74,326.02 117.30,325.49 115.93,324.70 114.72,323.63 113.76,322.31 113.10,320.83 112.74,319.29 112.61,317.78 112.66,316.32"/>
    </edge>
    <edge id=":36_2" function="internal">
        <lane id=":36_2_0" index="0" disallow="pedestrian tram rail_urban rail rail_electric rail_fast ship" speed="8.68" length="21.96" width="3.50" shape="116.15,316.60 116.12,317.69 116.23,318.79 116.54,319.84 117.07,320.80 117.82,321.59 118.75,322.19 119.77,322.59 120.84,322.84 121.93,322.96 123.03,323.00 124.13,322.97 126.31,322.74 128.48,322.36 131.69,321.59 133.79,320.99"/>
    </edge>
    <edge id=":36_3" function="internal">
        <lane id=":36_3_0" index="0" disallow="pedestrian tram rail_urban rail rail_electric rail_fast ship" speed="36.11" length="27.28" width="3.50" shape="116.15,316.60 115.24,325.26 114.27,331.73 113.20,337.07 112.10,341.29 111.43,343.41"/>
    </edge>
    <edge id=":36_4" function="internal">
        <lane id=":36_4_0" index="0" disallow="pedestrian tram rail_urban rail rail_electric rail_fast ship" speed="36.11" length="26.40" width="3.50" shape="108.13,342.27 108.75,340.28 109.80,336.22 110.84,331.05 111.78,324.77 112.66,316.32"/>
    </edge>
    <edge id=":36_5" function="internal">
        <lane id=":36_5_0" index="0" disallow="pedestrian tram rail_urban rail rail_electric rail_fast ship" speed="17.24" length="34.69" width="3.50" shape="108.13,342.27 109.44,339.04 111.14,336.02 113.21,333.24 115.60,330.73 118.26,328.49 121.12,326.53 124.14,324.83 127.28,323.35 131.60,321.69 133.79,320.99"/>
    </edge>
    <edge id=":37_0" function="internal">
        <lane id=":37_0_0" index="0" disallow="pedestrian tram rail_urban rail rail_electric rail_fast ship" speed="8.95" length="22.48" width="3.50" shape="112.68,316.09 112.72,314.97 112.65,313.93 112.45,312.96 112.09,312.09 111.56,311.32 110.86,310.68 110.01,310.18 109.04,309.79 107.99,309.52 106.87,309.34 105.71,309.24 104.53,309.22 102.09,309.34 98.40,309.85 94.74,310.61"/>
    </edge>
    <edge id=":37_1" function="internal">
        <lane id=":37_1_0" index="0" disallow="pedestrian tram rail_urban rail rail_electric rail_fast ship" speed="36.11" length="28.68" width="3.50" shape="112.68,316.09 113.00,311.84 113.62,300.18 113.91,287.44"/>
    </edge>
    <edge id=":37_2" function="internal">
        <lane id=":37_2_0" index="0" disallow="pedestrian tram rail_urban rail rail_electric rail_fast ship" speed="36.11" length="28.96" width="3.50" shape="117.41,287.42 117.11,300.32 116.49,312.08 116.17,316.35"/>
    </edge>
    <edge id=":37_3" function="internal">
        <lane id=":37_3_0" index="0" disallow="pedestrian tram rail_urban rail rail_electric rail_fast ship" speed="13.70" length="35.35" width="3.50" shape="117.41,287.42 117.27,289.92 116.88,292.35 116.21,294.74 115.25,297.04 114.00,299.20 112.49,301.19 110.76,302.96 108.87,304.53 106.86,305.89 104.74,307.07 101.48,308.53 98.13,309.70 94.74,310.61"/>
    </edge>
    <edge id=":37_4" function="internal">
        <lane id=":37_4_0" index="0" disallow="pedestrian tram rail_urban rail rail_electric rail_fast ship" speed="12.79" length="30.68" width="3.50" shape="93.87,307.22 96.98,306.39 99.98,305.36 102.88,304.08 104.73,303.06 106.49,301.90 108.14,300.57 109.63,299.08 110.93,297.42 112.02,295.60 112.85,293.67 113.44,291.64 113.78,289.55 113.91,287.44"/>
    </edge>
    <edge id=":37_5" function="internal">
        <lane id=":37_5_0" index="0" disallow="pedestrian tram rail_urban rail rail_electric rail_fast ship" speed="10.14" length="29.29" width="3.50" shape="93.87,307.22 98.22,306.33 102.57,305.78 105.49,305.69 106.96,305.76 108.41,305.94 109.84,306.25 111.22,306.72 112.53,307.38 113.69,308.25 114.67,309.34 115.39,310.61 115.88,311.99 116.14,313.42 116.23,314.88 116.17,316.35"/>
    </edge>
    <edge id=":38_0" function="internal">
        <lane id=":38_0_0" index="0" disallow="pedestrian tram rail_urban rail rail_electric rail_fast ship" speed="36.11" length="2.19" width="3.50" shape="68.39,249.09 69.06,249.05 70.57,248.93"/>
        <lane id=":38_0_1" index="1" disallow="pedestrian tram rail_urban rail rail_electric rail_fast ship" speed="36.11" length="2.37" width="3.50" shape="68.26,250.55 70.61,250.89"/>
    </edge>
    <edge id=":38_2" function="internal">
        <lane id=":38_2_0" index="0" disallow="pedestrian tram rail_urban rail rail_electric rail_fast ship" speed="36.11" length="2.19" width="3.50" shape="68.39,249.09 69.06,249.05 70.57,248.93"/>
        <lane id=":38_2_1" index="1" disallow="pedestrian tram rail_urban rail rail_electric rail_fast ship" speed="36.11" length="2.37" width="3.50" shape="68.26,250.55 70.61,250.89"/>
    </edge>
    <edge id=":40_0" function="internal">
        <lane id=":40_0_0" index="0" disallow="pedestrian tram rail_urban rail rail_electric rail_fast ship" speed="36.11" length="2.84" width="3.49" shape="82.35,255.22 79.51,255.23"/>
    </edge>
    <edge id=":40_1" function="internal">
        <lane id=":40_1_0" index="0" disallow="pedestrian tram rail_urban rail rail_electric rail_fast ship" speed="36.11" length="2.84" width="3.49" shape="82.35,255.22 79.51,255.23"/>
    </edge>
    <edge id=":40_2" function="internal">
        <lane id=":40_2_0" index="0" disallow="pedestrian tram rail_urban rail rail_electric rail_fast ship" speed="36.11" length="2.84" width="3.49" shape="82.35,255.22 79.51,255.23"/>
    </edge>

    <edge id="10069" from="39" to="38" priority="3" type="highway.residential" spreadType="center" length="36.53">
        <lane id="10069_0" index="0" disallow="pedestrian tram rail_urban rail rail_electric rail_fast ship" speed="36.11" length="36.53" width="3.50" customShape="1" shape="32.03,245.91 36.29,246.30 43.60,247.37 52.87,248.81 68.28,250.30"/>
    </edge>
    <edge id="10070" from="39" to="38" priority="3" type="highway.residential" spreadType="center" length="36.92">
        <lane id="10070_0" index="0" disallow="pedestrian tram rail_urban rail rail_electric rail_fast ship" speed="36.11" length="36.92" width="3.50" customShape="1" shape="32.41,242.43 35.32,242.80 38.82,243.64 43.68,245.31 49.95,247.62 53.41,248.61 56.44,249.16 68.28,250.28"/>
    </edge>
    <edge id="9076" from="35" to="40" priority="3" type="highway.residential" spreadType="center" length="11.84" shape="114.25,258.90 80.93,255.27">
        <lane id="9076_0" index="0" disallow="pedestrian tram rail_urban rail rail_electric rail_fast ship" speed="36.11" length="11.84" width="3.50" customShape="1" shape="94.18,254.76 90.48,254.97 82.35,255.22"/>
    </edge>
    <edge id="9078" from="38" to="35" priority="3" type="highway.residential" spreadType="center" length="23.25" shape="69.44,249.66 114.93,253.70">
        <lane id="9078_0" index="0" disallow="pedestrian tram rail_urban rail rail_electric rail_fast ship" speed="36.11" length="23.25" width="3.50" customShape="1" shape="70.57,248.60 90.15,247.97 93.80,247.77"/>
        <lane id="9078_1" index="1" disallow="pedestrian tram rail_urban rail rail_electric rail_fast ship" speed="36.11" length="23.37" width="3.50" customShape="1" shape="70.64,252.10 90.33,251.47 93.99,251.27"/>
    </edge>
    <edge id="9307" from="20" to="37" priority="3" type="highway.residential" spreadType="center" length="70.01" shape="27.36,328.78 107.63,302.53">
        <lane id="9307_0" index="0" disallow="pedestrian tram rail_urban rail rail_electric rail_fast ship" speed="36.11" length="70.01" width="3.50" customShape="1" shape="27.36,328.78 43.55,322.99 59.67,317.30 72.58,313.08 83.69,309.83 93.92,307.21"/>
    </edge>
    <edge id="9308" from="37" to="8" priority="3" type="highway.residential" spreadType="center" length="70.00" shape="108.71,305.85 28.19,332.20">
        <lane id="9308_0" index="0" disallow="pedestrian tram rail_urban rail rail_electric rail_fast ship" speed="36.11" length="70.00" width="3.50" customShape="1" shape="94.74,310.61 84.57,313.22 73.54,316.45 60.70,320.64 44.62,326.32 28.19,332.20"/>
    </edge>
    <edge id="9383" from="27" to="35" priority="3" type="highway.residential" spreadType="center" length="70.01" shape="202.59,237.37 114.73,258.86">
        <lane id="9383_0" index="0" disallow="pedestrian tram rail_urban rail rail_electric rail_fast ship" speed="36.11" length="70.01" width="3.50" customShape="1" shape="202.59,237.37 201.98,237.51 183.74,241.19 163.96,244.87 149.56,247.18 133.63,249.29"/>
    </edge>
    <edge id="9384" from="35" to="23" priority="3" type="highway.residential" spreadType="center" length="70.01" shape="113.90,255.46 202.13,233.89">
        <lane id="9384_0" index="0" disallow="pedestrian tram rail_urban rail rail_electric rail_fast ship" speed="36.11" length="70.01" width="3.50" customShape="1" shape="133.17,245.82 149.08,243.71 163.43,241.41 183.16,237.73 201.36,234.06 202.13,233.89"/>
    </edge>
    <edge id="9389" from="37" to="35" priority="3" type="highway.residential" spreadType="center" length="16.53" shape="106.39,304.03 112.62,256.93">
        <lane id="9389_0" index="0" disallow="pedestrian tram rail_urban rail rail_electric rail_fast ship" speed="36.11" length="16.53" width="3.50" customShape="1" shape="113.91,287.44 113.86,279.18 113.82,270.91"/>
    </edge>
    <edge id="9390" from="35" to="37" priority="3" type="highway.residential" spreadType="center" length="16.61" shape="116.09,257.38 109.86,304.49">
        <lane id="9390_0" index="0" disallow="pedestrian tram rail_urban rail rail_electric rail_fast ship" speed="36.11" length="16.61" width="3.50" customShape="1" shape="117.32,270.89 117.36,279.17 117.41,287.50"/>
    </edge>
    <edge id="9392" from="36" to="37" priority="3" type="highway.residential" spreadType="center" length="0.27" shape="117.93,328.09 106.52,304.86">
        <lane id="9392_0" index="0" disallow="pedestrian tram rail_urban rail rail_electric rail_fast ship" speed="36.11" length="0.27" width="3.50" customShape="1" shape="112.66,316.32 112.68,316.05"/>
    </edge>
    <edge id="9393" from="37" to="36" priority="3" type="highway.residential" spreadType="center" length="0.26" shape="109.65,303.32 121.07,326.55">
        <lane id="9393_0" index="0" disallow="pedestrian tram rail_urban rail rail_electric rail_fast ship" speed="36.11" length="0.26" width="3.50" customShape="1" shape="116.17,316.35 116.16,316.47 116.15,316.61"/>
    </edge>
    <edge id="9395" from="25" to="36" priority="3" type="highway.residential" spreadType="center" length="43.80" shape="96.17,384.30 117.88,326.66">
        <lane id="9395_0" index="0" disallow="pedestrian tram rail_urban rail rail_electric rail_fast ship" speed="36.11" length="43.80" width="3.50" customShape="1" shape="96.17,384.30 96.25,383.77 97.47,376.66 99.07,369.63 101.15,362.19 108.13,342.26"/>
    </edge>
    <edge id="9396" from="36" to="18" priority="3" type="highway.residential" spreadType="center" length="43.10" shape="121.15,327.89 99.64,384.77">
        <lane id="9396_0" index="0" disallow="pedestrian tram rail_urban rail rail_electric rail_fast ship" speed="36.11" length="43.10" width="3.50" customShape="1" shape="111.43,343.41 104.53,363.13 102.48,370.42 100.91,377.31 99.71,384.29 99.64,384.77"/>
    </edge>
    <edge id="9557" from="24" to="36" priority="3" type="highway.residential" spreadType="center" length="70.00" shape="199.90,298.61 120.08,328.97">
        <lane id="9557_0" index="0" disallow="pedestrian tram rail_urban rail rail_electric rail_fast ship" speed="36.11" length="70.00" width="3.50" customShape="1" shape="199.90,298.61 199.76,298.66 173.33,309.69 158.92,315.62 142.45,321.80 134.82,324.33"/>
    </edge>
    <edge id="9558" from="36" to="19" priority="3" type="highway.residential" spreadType="center" length="70.00" shape="118.84,325.70 198.86,295.25">
        <lane id="9558_0" index="0" disallow="pedestrian tram rail_urban rail rail_electric rail_fast ship" speed="36.11" length="70.00" width="3.50" customShape="1" shape="133.79,320.99 141.38,318.47 157.83,312.29 172.24,306.35 198.86,295.25"/>
    </edge>
    <edge id="9734" from="40" to="41" priority="3" type="highway.residential" spreadType="center" length="47.97">
        <lane id="9734_0" index="0" disallow="pedestrian tram rail_urban rail rail_electric rail_fast ship" speed="36.11" length="47.97" width="3.49" customShape="1" shape="79.51,255.23 77.72,255.19 73.45,254.82 63.10,253.33 57.98,252.81 57.76,252.80 52.54,252.29 43.23,250.84 35.97,249.78 31.92,249.41"/>
    </edge>
    <edge id="9735" from="40" to="41" priority="3" type="highway.residential" spreadType="center" length="47.94">
        <lane id="9735_0" index="0" disallow="pedestrian tram rail_urban rail rail_electric rail_fast ship" speed="36.11" length="47.94" width="3.49" customShape="1" shape="79.51,255.23 77.72,255.19 73.45,254.82 63.10,253.33 57.98,252.81 57.76,252.80 52.11,252.64 36.70,253.05 31.73,252.90"/>
    </edge>
    <edge id="9736" from="40" to="41" priority="3" type="highway.residential" spreadType="center" length="48.50">
        <lane id="9736_0" index="0" disallow="pedestrian tram rail_urban rail rail_electric rail_fast ship" speed="36.11" length="48.50" width="3.49" customShape="1" shape="79.51,255.23 77.72,255.19 73.45,254.82 63.10,253.33 57.98,252.81 57.76,252.80 54.67,252.78 51.09,253.18 46.05,254.23 39.53,255.74 35.97,256.28 32.89,256.44 31.51,256.39"/>
    </edge>

    <junction id="18" type="dead_end" x="99.64" y="384.77" incLanes="9396_0" intLanes="" shape="101.37,385.02 97.91,384.53" rightOfWay="edgePriority"/>
    <junction id="19" type="dead_end" x="198.86" y="295.25" incLanes="9558_0" intLanes="" shape="198.19,293.64 199.54,296.87" rightOfWay="edgePriority"/>
    <junction id="20" type="dead_end" x="27.36" y="328.78" incLanes="" intLanes="" shape="27.95,330.42 26.77,327.13" rightOfWay="edgePriority"/>
    <junction id="23" type="dead_end" x="202.13" y="233.89" incLanes="9384_0" intLanes="" shape="201.74,232.18 202.51,235.59" rightOfWay="edgePriority"/>
    <junction id="24" type="dead_end" x="199.90" y="298.61" incLanes="" intLanes="" shape="199.28,296.97 200.52,300.25" rightOfWay="edgePriority"/>
    <junction id="25" type="dead_end" x="96.17" y="384.30" incLanes="" intLanes="" shape="97.90,384.55 94.44,384.06" rightOfWay="edgePriority"/>
    <junction id="27" type="dead_end" x="202.59" y="237.37" incLanes="" intLanes="" shape="202.20,235.66 202.97,239.08" rightOfWay="edgePriority"/>
    <junction id="35" type="priority" x="114.35" y="257.16" incLanes="9383_0 9078_0 9078_1 9389_0" intLanes=":35_0_0 :35_1_0 :35_2_0 :35_3_0 :35_4_0 :35_5_0" shape="133.86,251.02 132.94,244.08 93.70,246.02 94.28,256.51 99.70,256.64 104.13,257.67 107.58,259.62 110.06,262.48 111.56,266.24 112.07,270.92 119.07,270.88 119.45,265.36 120.67,260.72 122.72,256.97 125.60,254.11 129.32,252.12">
        <request index="0" response="000000" foes="001000" cont="0"/>
        <request index="1" response="000000" foes="111000" cont="0"/>
        <request index="2" response="000000" foes="100000" cont="0"/>
        <request index="3" response="000011" foes="100011" cont="0"/>
        <request index="4" response="000010" foes="000010" cont="0"/>
        <request index="5" response="001110" foes="001110" cont="0"/>
    </junction>
    <junction id="36" type="priority" x="119.50" y="327.32" incLanes="9557_0 9393_0 9395_0" intLanes=":36_0_0 :36_1_0 :36_2_0 :36_3_0 :36_4_0 :36_5_0" shape="135.44,325.97 133.24,319.33 128.37,320.73 124.42,321.40 121.40,321.34 119.30,320.54 118.13,319.02 117.89,316.76 110.91,316.18 110.51,321.69 110.24,325.80 109.90,329.18 109.29,332.50 108.22,336.44 106.48,341.68 113.08,343.99 114.87,340.15 117.44,336.65 120.78,333.48 124.89,330.65 129.78,328.14">
        <request index="0" response="001000" foes="001000" cont="0"/>
        <request index="1" response="111000" foes="111000" cont="0"/>
        <request index="2" response="000000" foes="100000" cont="0"/>
        <request index="3" response="000000" foes="100011" cont="0"/>
        <request index="4" response="000000" foes="000010" cont="0"/>
        <request index="5" response="001100" foes="001110" cont="0"/>
    </junction>
    <junction id="37" type="priority" x="108.14" y="304.20" incLanes="9392_0 9390_0 9307_0" intLanes=":37_0_0 :37_1_0 :37_2_0 :37_3_0 :37_4_0 :37_5_0" shape="110.94,315.91 117.91,316.49 118.43,310.31 118.79,305.74 119.02,301.97 119.14,298.20 119.17,293.61 119.16,287.41 112.16,287.45 111.66,291.64 110.11,295.36 107.51,298.61 103.87,301.38 99.18,303.69 93.44,305.53 95.17,312.31 100.17,311.24 104.22,310.84 107.32,311.11 109.47,312.04 110.68,313.64">
        <request index="0" response="000000" foes="001000" cont="0"/>
        <request index="1" response="000000" foes="111000" cont="0"/>
        <request index="2" response="000000" foes="100000" cont="0"/>
        <request index="3" response="000011" foes="100011" cont="0"/>
        <request index="4" response="000010" foes="000010" cont="0"/>
        <request index="5" response="001110" foes="001110" cont="0"/>
    </junction>
    <junction id="38" type="priority" x="69.44" y="249.66" incLanes="10069_0 10070_0" intLanes=":38_0_0 :38_0_1 :38_2_0 :38_2_1" shape="70.67,253.85 70.53,246.85 68.44,248.56 68.11,252.02">
        <request index="0" response="0000" foes="1100" cont="0"/>
        <request index="1" response="0000" foes="1100" cont="0"/>
        <request index="2" response="0011" foes="0011" cont="0"/>
        <request index="3" response="0011" foes="0011" cont="0"/>
    </junction>
    <junction id="39" type="dead_end" x="32.16" y="244.16" incLanes="" intLanes="" shape="31.84,247.64 32.16,244.16 32.60,240.69"/>
    <junction id="40" type="priority" x="80.93" y="255.27" incLanes="9076_0" intLanes=":40_0_0 :40_1_0 :40_2_0" shape="82.41,256.97 82.30,253.47 79.55,253.49 79.47,256.98">
        <request index="0" response="000" foes="000" cont="0"/>
        <request index="1" response="000" foes="000" cont="0"/>
        <request index="2" response="000" foes="000" cont="0"/>
    </junction>
    <junction id="41" type="dead_end" x="31.58" y="252.89" incLanes="9736_0 9735_0 9734_0" intLanes="" shape="31.39,258.13 31.51,254.64 31.63,251.15 31.74,251.15 32.06,247.67"/>
    <junction id="8" type="dead_end" x="28.19" y="332.20" incLanes="9308_0" intLanes="" shape="28.78,333.84 27.60,330.55" rightOfWay="edgePriority"/>

    <connection from="10069" to="9078" fromLane="0" toLane="0" contPos="-4.00" shape="57.99,249.30 58.10,249.31 58.21,249.32 62.87,249.41 69.06,249.05 77.80,248.36 80.88,248.27" via=":38_0_0" dir="s" state="M"/>
    <connection from="10069" to="9078" fromLane="0" toLane="1" contPos="-4.00" shape="57.99,249.30 58.10,249.31 58.21,249.32 63.39,249.84 73.68,251.33 77.82,251.70 80.91,251.77" via=":38_0_1" dir="s" state="M"/>
    <connection from="10070" to="9078" fromLane="0" toLane="0" contPos="-4.00" shape="57.99,249.30 58.10,249.31 58.21,249.32 62.87,249.41 69.06,249.05 77.80,248.36 80.88,248.27" via=":38_2_0" dir="s" state="m"/>
    <connection from="10070" to="9078" fromLane="0" toLane="1" contPos="-4.00" shape="57.99,249.30 58.10,249.31 58.21,249.32 63.39,249.84 73.68,251.33 77.82,251.70 80.91,251.77" via=":38_2_1" dir="s" state="m"/>
    <connection from="9076" to="9736" fromLane="0" toLane="0" contPos="-4.00" via=":40_0_0" dir="s" state="M"/>
    <connection from="9076" to="9735" fromLane="0" toLane="0" contPos="-4.00" via=":40_1_0" dir="s" state="M"/>
    <connection from="9076" to="9734" fromLane="0" toLane="0" contPos="-4.00" via=":40_2_0" dir="s" state="M"/>
    <connection from="9078" to="9384" fromLane="0" toLane="0" contPos="-4.00" shape="93.77,247.77 104.89,247.33 120.57,246.86 128.65,246.30 133.17,245.82" via=":35_2_0" dir="s" state="M"/>
    <connection from="9078" to="9390" fromLane="1" toLane="0" contPos="-4.00" shape="93.98,251.27 95.25,251.21 98.98,251.26 101.53,251.52 104.07,252.01 106.56,252.80 108.94,253.92 110.11,254.65 111.19,255.46 112.20,256.37 113.13,257.37 113.95,258.45 114.68,259.59 115.31,260.81 116.25,263.25 116.87,265.79 117.21,268.34 117.32,270.89" via=":35_3_0" dir="l" state="m"/>
    <connection from="9307" to="9389" fromLane="0" toLane="0" contPos="-4.00" shape="93.92,307.21 96.98,306.39 99.98,305.36 102.88,304.08 104.73,303.06 106.49,301.90 108.14,300.57 109.63,299.08 110.93,297.42 112.02,295.60 112.85,293.67 113.44,291.64 113.78,289.55 113.91,287.44" via=":37_4_0" dir="r" state="m"/>
    <connection from="9307" to="9393" fromLane="0" toLane="0" contPos="-4.00" shape="93.92,307.21 98.22,306.33 102.57,305.78 105.49,305.69 106.96,305.76 108.41,305.94 109.84,306.25 111.22,306.72 112.53,307.38 113.69,308.25 114.67,309.34 115.39,310.61 115.88,311.99 116.14,313.42 116.23,314.88 116.17,316.35" via=":37_5_0" dir="l" state="m"/>
    <connection from="9383" to="9390" fromLane="0" toLane="0" contPos="-4.00" shape="133.63,249.29 131.44,249.65 129.33,250.19 127.32,250.93 125.43,251.90 123.71,253.11 122.19,254.55 120.89,256.19 119.81,258.01 118.95,259.98 118.30,262.05 117.83,264.19 117.43,267.52 117.32,270.89" via=":35_0_0" dir="r" state="M"/>
    <connection from="9383" to="9076" fromLane="0" toLane="0" contPos="-4.00" shape="133.63,249.29 123.63,250.74 107.21,253.39 99.20,254.37 94.18,254.76" via=":35_1_0" dir="s" state="M"/>