<routes>
	<vehicle depart="0.1" departLane="0" departPos="23.22448312041833" departSpeed="6.9391117" id="328" type="bicycle">
		<route edges="9384"/>
	</vehicle>
	<vehicle depart="0.1" departLane="1" departPos="8.03066650219088" departSpeed="1.215343" id="31" type="passenger">
		<route edges=":38_2 9078"/>
	</vehicle>
	<vehicle depart="0.1" departLane="0" departPos="14.958383962093032" departSpeed="3.3327316" id="38" type="passenger">
		<route edges="9389 9076"/>
	</vehicle>
	<vehicle depart="0.1" departLane="1" departPos="24.611982833359026" departSpeed="0.012853506" id="317" type="passenger">
		<route edges=":38_2 9078 9390"/>
	</vehicle>
	<vehicle depart="0.1" departLane="0" departPos="13.076196958519628" departSpeed="3.8267076" id="334" type="passenger">
		<route edges=":35_4 9076 9736"/>
	</vehicle>
	<vehicle depart="0.1" departLane="0" departPos="60.413008230295496" departSpeed="1.4771713" id="335" type="passenger">
		<route edges="9383 9390"/>
	</vehicle>
	<vehicle depart="0.1" departLane="0" departPos="44.133009896445415" departSpeed="3.9934044" id="339" type="passenger">
		<route edges="9383 9390"/>
	</vehicle>
	<vehicle depart="0.1" departLane="0" departPos="27.486959416781797" departSpeed="4.8718289" id="343" type="passenger">
		<route edges="9383 9390"/>
	</vehicle>
	<vehicle depart="0.1" departLane="0" departPos="2.5" departSpeed="6.3172305" id="346" type="passenger">
		<route edges="9383 9390"/>
	</vehicle>
	<vehicle depart="0.1" departLane="0" departPos="24.672970827040874" departSpeed="0.73226961" id="30" type="truck">
		<route edges=":35_3 9390"/>
	</vehicle>
</routes>
