<routes>
	<vehicle depart="0.1" departLane="0" departPos="34.87323723405785" departSpeed="1.1822815" id="318" type="bicycle">
		<route edges="4660 4662"/>
	</vehicle>
	<vehicle depart="0.1" departLane="0" departPos="51.19197792545786" departSpeed="0.82774995" id="35" type="passenger">
		<route edges="4660 4662"/>
	</vehicle>
	<vehicle depart="0.1" departLane="0" departPos="7.453068724291302" departSpeed="0.0" id="38" type="passenger">
		<route edges=":31_3 4682"/>
	</vehicle>
	<vehicle depart="0.1" departLane="0" departPos="24.12213458307872" departSpeed="7.1165351" id="310" type="passenger">
		<route edges=":29_1 4763 4765"/>
	</vehicle>
	<vehicle depart="0.1" departLane="0" departPos="9.353382104351276" departSpeed="4.33253" id="311" type="passenger">
		<route edges=":29_1 4763 4765"/>
	</vehicle>
	<vehicle depart="0.1" departLane="0" departPos="100.34827974472255" departSpeed="0.025340739" id="312" type="passenger">
		<route edges=":33_1 4680"/>
	</vehicle>
	<vehicle depart="0.1" departLane="0" departPos="44.61191435229429" departSpeed="0.26529019" id="324" type="passenger">
		<route edges="4660 4662"/>
	</vehicle>
	<vehicle depart="0.1" departLane="0" departPos="25.272943929632877" departSpeed="1.0219489" id="328" type="passenger">
		<route edges="4660 4662"/>
	</vehicle>
	<vehicle depart="0.1" departLane="0" departPos="5.751513914623357" departSpeed="3.5927875" id="332" type="passenger">
		<route edges="4660 4662"/>
	</vehicle>
	<vehicle depart="0.1" departLane="0" departPos="8.245024805549892" departSpeed="1.9998529" id="33" type="motorcycle">
		<route edges=":32_2 4684"/>
	</vehicle>
</routes>
