<!-- generated on Tue Feb  9 22:21:20 2021 by Eclipse SUMO netconvert Version 1.8.0
<configuration xmlns:xsi="http://www.w3.org/2001/XMLSchema-instance" xsi:noNamespaceSchemaLocation="http://sumo.dlr.de/xsd/netconvertConfiguration.xsd">

    <input>
        <node-files value="./converted_scenarios/scenario-factory/DEU_Muehlhausen-11_1_I-1-1/DEU_Muehlhausen-11_1_I-1-1.nod.xml"/>
        <edge-files value="./converted_scenarios/scenario-factory/DEU_Muehlhausen-11_1_I-1-1/DEU_Muehlhausen-11_1_I-1-1.edg.xml"/>
        <connection-files value="./converted_scenarios/scenario-factory/DEU_Muehlhausen-11_1_I-1-1/DEU_Muehlhausen-11_1_I-1-1.con.xml"/>
        <tllogic-files value="./converted_scenarios/scenario-factory/DEU_Muehlhausen-11_1_I-1-1/DEU_Muehlhausen-11_1_I-1-1.tll.xml"/>
        <type-files value="/home/zen/commonroad-interactive-benchmarks/install/commonroad-map-tool/crmapconverter/sumo_map/templates/DEU.typ.xml"/>
    </input>

    <output>
        <output-file value="./converted_scenarios/scenario-factory/DEU_Muehlhausen-11_1_I-1-1/DEU_Muehlhausen-11_1_I-1-1.net.xml"/>
    </output>

    <processing>
        <geometry.remove.keep-edges.explicit value="true"/>
        <geometry.avoid-overlap value="true"/>
        <offset.disable-normalization value="true"/>
    </processing>

    <junctions>
        <no-turnarounds value="true"/>
        <junctions.internal-link-detail value="20"/>
    </junctions>

    <report>
        <aggregate-warnings value="5"/>
    </report>

    <random_number>
        <seed value="1234"/>
    </random_number>

</configuration>
--><net xmlns:xsi="http://www.w3.org/2001/XMLSchema-instance" version="1.6" junctionCornerDetail="5" junctionLinkDetail="20" limitTurnSpeed="5.50" xsi:noNamespaceSchemaLocation="http://sumo.dlr.de/xsd/net_file.xsd">

    <location netOffset="0.00,0.00" convBoundary="-414.64,-431.01,-170.32,-277.53" origBoundary="-414.64,-431.01,-170.32,-276.50" projParameter="!"/>

    <type id="highway.bridleway" priority="1" speed="2.78" allow="pedestrian" oneway="1" width="2.00"/>
    <type id="highway.bus_guideway" priority="1" speed="27.78" allow="bus" oneway="1"/>
    <type id="highway.cycleway" priority="1" speed="8.33" allow="bicycle" oneway="0" width="1.00"/>
    <type id="highway.footway" priority="1" speed="2.78" allow="pedestrian" oneway="1" width="2.00"/>
    <type id="highway.ford" priority="1" speed="2.78" allow="army" oneway="0"/>
    <type id="highway.living_street" priority="2" speed="2.78" disallow="tram rail_urban rail rail_electric rail_fast ship" oneway="0"/>
    <type id="highway.motorway" priority="14" speed="39.44" allow="private emergency authority army vip passenger hov taxi bus coach delivery truck trailer motorcycle evehicle custom1 custom2" oneway="1"/>
    <type id="highway.motorway_link" priority="9" speed="22.22" allow="private emergency authority army vip passenger hov taxi bus coach delivery truck trailer motorcycle evehicle custom1 custom2" oneway="1"/>
    <type id="highway.path" priority="1" speed="2.78" allow="pedestrian bicycle" oneway="0" width="2.00"/>
    <type id="highway.pedestrian" priority="1" speed="2.78" allow="pedestrian" oneway="1" width="2.00"/>
    <type id="highway.primary" priority="12" speed="27.78" disallow="pedestrian tram rail_urban rail rail_electric rail_fast ship" oneway="0"/>
    <type id="highway.primary_link" priority="7" speed="22.22" disallow="pedestrian tram rail_urban rail rail_electric rail_fast ship" oneway="0"/>
    <type id="highway.raceway" priority="15" speed="83.33" allow="vip" oneway="0"/>
    <type id="highway.residential" priority="3" speed="13.89" disallow="pedestrian tram rail_urban rail rail_electric rail_fast ship" oneway="0"/>
    <type id="highway.secondary" priority="11" speed="27.78" disallow="pedestrian tram rail_urban rail rail_electric rail_fast ship" oneway="0"/>
    <type id="highway.secondary_link" priority="6" speed="22.22" disallow="pedestrian tram rail_urban rail rail_electric rail_fast ship" oneway="0"/>
    <type id="highway.service" priority="1" speed="5.56" allow="pedestrian delivery bicycle" oneway="0"/>
    <type id="highway.stairs" priority="1" speed="1.39" allow="pedestrian" oneway="1" width="2.00"/>
    <type id="highway.step" priority="1" speed="1.39" allow="pedestrian" oneway="1" width="2.00"/>
    <type id="highway.steps" priority="1" speed="1.39" allow="pedestrian" oneway="1" width="2.00"/>
    <type id="highway.tertiary" priority="10" speed="22.22" disallow="pedestrian tram rail_urban rail rail_electric rail_fast ship" oneway="0"/>
    <type id="highway.tertiary_link" priority="5" speed="22.22" disallow="pedestrian tram rail_urban rail rail_electric rail_fast ship" oneway="0"/>
    <type id="highway.track" priority="1" speed="5.56" allow="pedestrian motorcycle moped bicycle" oneway="0"/>
    <type id="highway.trunk" priority="13" speed="27.78" disallow="pedestrian bicycle tram rail_urban rail rail_electric rail_fast ship" oneway="0"/>
    <type id="highway.trunk_link" priority="8" speed="22.22" disallow="pedestrian bicycle tram rail_urban rail rail_electric rail_fast ship" oneway="0"/>
    <type id="highway.unclassified" priority="4" speed="13.89" disallow="pedestrian tram rail_urban rail rail_electric rail_fast ship" oneway="0"/>
    <type id="highway.unsurfaced" priority="1" speed="8.33" disallow="tram rail_urban rail rail_electric rail_fast ship" oneway="0"/>
    <type id="railway.highspeed" priority="21" speed="69.44" allow="rail_fast" oneway="1"/>
    <type id="railway.light_rail" priority="19" speed="27.78" allow="rail_urban" oneway="1"/>
    <type id="railway.preserved" priority="16" speed="27.78" allow="rail" oneway="1"/>
    <type id="railway.rail" priority="20" speed="44.44" allow="rail" oneway="1"/>
    <type id="railway.subway" priority="18" speed="27.78" allow="rail_urban" oneway="1"/>
    <type id="railway.tram" priority="17" speed="13.89" allow="tram" oneway="1"/>

    <edge id=":29_0" function="internal">
        <lane id=":29_0_0" index="0" disallow="pedestrian tram rail_urban rail rail_electric rail_fast ship" speed="9.26" length="19.38" width="3.50" shape="-224.06,-362.21 -229.92,-357.91 -231.60,-356.27 -233.07,-354.44 -234.25,-352.40 -234.88,-350.76 -235.28,-349.05 -235.40,-347.51"/>
    </edge>
    <edge id=":29_1" function="internal">
        <lane id=":29_1_0" index="0" disallow="pedestrian tram rail_urban rail rail_electric rail_fast ship" speed="36.11" length="28.58" width="3.49" shape="-224.06,-362.21 -236.86,-353.23 -247.45,-345.79"/>
    </edge>
    <edge id=":29_2" function="internal">
        <lane id=":29_2_0" index="0" disallow="pedestrian tram rail_urban rail rail_electric rail_fast ship" speed="36.11" length="11.08" width="3.50" shape="-245.90,-353.62 -244.00,-351.12 -238.83,-345.09"/>
        <lane id=":29_2_1" index="1" disallow="pedestrian tram rail_urban rail rail_electric rail_fast ship" speed="36.11" length="11.10" width="3.50" shape="-246.05,-353.52 -244.33,-350.89 -240.32,-344.02"/>
    </edge>
    <edge id=":29_4" function="internal">
        <lane id=":29_4_0" index="0" disallow="pedestrian tram rail_urban rail rail_electric rail_fast ship" speed="6.56" length="9.11" width="3.49" shape="-246.10,-353.49 -245.86,-353.11 -245.14,-351.50 -244.83,-350.37 -244.74,-349.20 -244.82,-348.62 -245.00,-348.06 -245.28,-347.55 -247.45,-345.79"/>
    </edge>
    <edge id=":30_0" function="internal">
        <lane id=":30_0_0" index="0" disallow="pedestrian tram rail_urban rail rail_electric rail_fast ship" speed="7.99" length="14.10" width="3.50" shape="-248.38,-338.72 -249.20,-339.29 -250.72,-340.02 -252.35,-340.44 -253.47,-340.49 -254.59,-340.32 -255.64,-339.93 -260.89,-336.35"/>
    </edge>
    <edge id=":30_1" function="internal">
        <lane id=":30_1_0" index="0" disallow="pedestrian tram rail_urban rail rail_electric rail_fast ship" speed="36.11" length="10.52" width="3.50" shape="-247.03,-339.67 -247.39,-340.19 -253.04,-348.30"/>
    </edge>
    <edge id=":30_2" function="internal">
        <lane id=":30_2_0" index="0" disallow="pedestrian tram rail_urban rail rail_electric rail_fast ship" speed="36.11" length="16.23" width="3.50" shape="-247.61,-345.68 -251.47,-342.97 -260.89,-336.35"/>
    </edge>
    <edge id=":30_3" function="internal">
        <lane id=":30_3_0" index="0" disallow="pedestrian tram rail_urban rail rail_electric rail_fast ship" speed="5.77" length="6.81" width="3.50" shape="-247.61,-345.68 -247.38,-346.03 -247.95,-345.88 -248.55,-345.83 -249.72,-346.02 -250.80,-346.53 -252.20,-347.63 -252.89,-348.41"/>
    </edge>
    <edge id=":31_0" function="internal">
        <lane id=":31_0_0" index="0" disallow="pedestrian tram rail_urban rail rail_electric rail_fast ship" speed="36.11" length="9.90" width="3.50" shape="-256.39,-353.16 -261.59,-360.73 -261.99,-361.32"/>
    </edge>
    <edge id=":31_1" function="internal">
        <lane id=":31_1_0" index="0" disallow="pedestrian tram rail_urban rail rail_electric rail_fast ship" speed="5.97" length="7.37" width="3.49" shape="-256.23,-353.27 -256.87,-354.75 -257.17,-355.89 -257.25,-357.07 -257.16,-357.65 -256.97,-358.21 -256.67,-358.72 -255.45,-359.79"/>
    </edge>
    <edge id=":31_2" function="internal">
        <lane id=":31_2_0" index="0" disallow="pedestrian tram rail_urban rail rail_electric rail_fast ship" speed="7.39" length="11.64" width="3.50" shape="-269.80,-349.96 -268.56,-350.97 -266.94,-352.64 -265.93,-354.06 -265.14,-355.61 -264.63,-357.28 -264.39,-359.00 -264.40,-359.75"/>
    </edge>
    <edge id=":31_3" function="internal">
        <lane id=":31_3_0" index="0" disallow="pedestrian tram rail_urban rail rail_electric rail_fast ship" speed="36.11" length="17.39" width="3.49" shape="-269.80,-349.96 -263.11,-354.54 -255.45,-359.79"/>
    </edge>
    <edge id=":32_0" function="internal">
        <lane id=":32_0_0" index="0" disallow="pedestrian tram rail_urban rail rail_electric rail_fast ship" speed="9.47" length="22.19" width="3.50" shape="-253.08,-368.25 -251.94,-367.83 -250.22,-367.46 -248.46,-367.35 -246.71,-367.50 -244.43,-368.06 -242.26,-368.96 -239.72,-370.44 -233.64,-375.73"/>
    </edge>
    <edge id=":32_1" function="internal">
        <lane id=":32_1_0" index="0" disallow="pedestrian tram rail_urban rail rail_electric rail_fast ship" speed="36.11" length="12.52" width="3.50" shape="-255.28,-366.58 -251.40,-361.23 -247.98,-356.41"/>
    </edge>
    <edge id=":32_2" function="internal">
        <lane id=":32_2_0" index="0" disallow="pedestrian tram rail_urban rail rail_electric rail_fast ship" speed="36.11" length="26.86" width="3.50" shape="-255.29,-359.90 -242.41,-368.46 -233.64,-375.73"/>
    </edge>
    <edge id=":32_3" function="internal">
        <lane id=":32_3_0" index="0" disallow="pedestrian tram rail_urban rail rail_electric rail_fast ship" speed="6.51" length="8.87" width="3.50" shape="-255.29,-359.90 -254.56,-360.21 -253.99,-360.34 -253.40,-360.37 -252.25,-360.13 -251.20,-359.61 -249.82,-358.51 -248.25,-356.75 -247.99,-356.40"/>
    </edge>
    <edge id=":33_0" function="internal">
        <lane id=":33_0_0" index="0" disallow="pedestrian tram rail_urban rail rail_electric rail_fast ship" speed="36.11" length="102.07" width="3.50" shape="-260.18,-336.87 -287.80,-317.65 -309.06,-303.28 -323.41,-293.96 -332.85,-288.18 -339.01,-284.76 -342.20,-283.26 -344.11,-282.62 -346.10,-282.43"/>
    </edge>
    <edge id=":33_1" function="internal">
        <lane id=":33_1_0" index="0" disallow="pedestrian tram rail_urban rail rail_electric rail_fast ship" speed="36.11" length="102.07" width="3.50" shape="-346.35,-285.92 -340.89,-286.64 -336.90,-287.65 -333.02,-289.03 -329.29,-290.77 -325.72,-292.84 -321.92,-295.48 -317.93,-298.75 -313.82,-302.64 -309.25,-307.54 -303.60,-314.23 -291.00,-329.87 -285.58,-336.08 -280.91,-340.88 -276.72,-344.69 -272.70,-347.91 -269.96,-349.84"/>
    </edge>

    <edge id="4466" from="28" to="33" priority="3" type="highway.residential" spreadType="center" length="68.64" shape="-414.64,-282.81 -304.73,-315.97">
        <lane id="4466_0" index="0" disallow="pedestrian tram rail_urban rail rail_electric rail_fast ship" speed="36.11" length="68.64" width="3.50" customShape="1" shape="-414.64,-282.81 -413.59,-283.27 -411.64,-283.91 -407.59,-284.64 -401.47,-285.38 -394.80,-285.81 -386.58,-285.93 -372.19,-285.55 -360.88,-285.31 -352.66,-285.48 -346.35,-285.92"/>
    </edge>
    <edge id="4467" from="33" to="22" priority="3" type="highway.residential" spreadType="center" length="68.50" shape="-303.72,-312.63 -414.20,-279.17">
        <lane id="4467_0" index="0" disallow="pedestrian tram rail_urban rail rail_electric rail_fast ship" speed="36.11" length="68.50" width="3.50" customShape="1" shape="-346.10,-282.43 -352.27,-281.99 -360.45,-281.81 -371.62,-282.03 -385.76,-282.42 -393.78,-282.34 -400.25,-281.97 -406.20,-281.30 -410.09,-280.66 -411.79,-280.20 -413.96,-279.29 -414.20,-279.17"/>
    </edge>
    <edge id="4660" from="27" to="30" priority="3" type="highway.residential" spreadType="center" length="64.64">
        <lane id="4660_0" index="0" disallow="pedestrian tram rail_urban rail rail_electric rail_fast ship" speed="36.11" length="64.64" width="3.50" customShape="1" shape="-210.03,-286.66 -225.17,-308.33 -247.04,-339.66"/>
    </edge>
    <edge id="4662" from="30" to="31" priority="3" type="highway.residential" spreadType="center" length="5.91">
        <lane id="4662_0" index="0" disallow="pedestrian tram rail_urban rail rail_electric rail_fast ship" speed="36.11" length="5.91" width="3.50" customShape="1" shape="-253.04,-348.30 -254.56,-350.49 -256.40,-353.16"/>
    </edge>
    <edge id="4664" from="31" to="34" priority="3" type="highway.residential" spreadType="center" length="81.58">
        <lane id="4664_0" index="0" disallow="pedestrian tram rail_urban rail rail_electric rail_fast ship" speed="36.11" length="81.58" width="3.50" customShape="1" shape="-262.22,-361.18 -279.54,-387.68 -305.93,-429.23 -306.32,-429.81"/>
    </edge>
    <edge id="4680" from="33" to="31" priority="3" type="highway.residential" spreadType="center" length="0.20" shape="-305.51,-315.51 -262.35,-357.64">
        <lane id="4680_0" index="0" disallow="pedestrian tram rail_urban rail rail_electric rail_fast ship" speed="36.11" length="0.20" width="3.50" customShape="1" shape="-269.96,-349.84 -269.80,-349.96"/>
    </edge>
    <edge id="4682" from="31" to="32" priority="3" type="highway.residential" spreadType="center" length="0.19">
        <lane id="4682_0" index="0" disallow="pedestrian tram rail_urban rail rail_electric rail_fast ship" speed="36.11" length="0.19" width="3.49" customShape="1" shape="-255.45,-359.79 -255.29,-359.90"/>
    </edge>
    <edge id="4684" from="32" to="19" priority="3" type="highway.residential" spreadType="center" length="63.69">
        <lane id="4684_0" index="0" disallow="pedestrian tram rail_urban rail rail_electric rail_fast ship" speed="36.11" length="63.69" width="3.50" customShape="1" shape="-233.64,-375.73 -231.67,-377.67 -223.82,-384.01 -213.36,-391.92 -201.04,-400.71 -182.35,-413.40"/>
    </edge>
    <edge id="4754" from="29" to="6" priority="3" type="highway.residential" spreadType="center" length="82.34">
        <lane id="4754_0" index="0" disallow="pedestrian tram rail_urban rail rail_electric rail_fast ship" speed="36.11" length="82.34" width="3.50" customShape="1" shape="-238.16,-345.56 -210.61,-306.97 -190.32,-278.54"/>
        <lane id="4754_1" index="1" disallow="pedestrian tram rail_urban rail rail_electric rail_fast ship" speed="36.11" length="82.36" width="3.50" customShape="1" shape="-241.01,-343.54 -213.46,-304.94 -193.17,-276.50"/>
    </edge>
    <edge id="4761" from="25" to="29" priority="3" type="highway.residential" spreadType="center" length="65.67">
        <lane id="4761_0" index="0" disallow="pedestrian tram rail_urban rail rail_electric rail_fast ship" speed="36.11" length="65.67" width="3.50" customShape="1" shape="-170.32,-399.95 -194.68,-382.84 -224.06,-362.21"/>
    </edge>
    <edge id="4763" from="29" to="30" priority="3" type="highway.residential" spreadType="center" length="0.19">
        <lane id="4763_0" index="0" disallow="pedestrian tram rail_urban rail rail_electric rail_fast ship" speed="36.11" length="0.19" width="3.49" customShape="1" shape="-247.45,-345.79 -247.61,-345.68"/>
    </edge>
    <edge id="4765" from="30" to="33" priority="3" type="highway.residential" spreadType="center" length="0.20" shape="-249.43,-341.58 -303.47,-312.73">
        <lane id="4765_0" index="0" disallow="pedestrian tram rail_urban rail rail_electric rail_fast ship" speed="36.11" length="0.20" width="3.50" customShape="1" shape="-260.89,-336.35 -261.05,-336.23"/>
    </edge>
    <edge id="4845" from="35" to="32" priority="3" type="highway.residential" spreadType="center" length="81.29">
        <lane id="4845_0" index="0" disallow="pedestrian tram rail_urban rail rail_electric rail_fast ship" speed="36.11" length="81.29" width="3.50" customShape="1" shape="-304.84,-431.01 -304.39,-430.41 -294.53,-417.73 -271.32,-388.11 -255.09,-366.72"/>
    </edge>
    <edge id="4847" from="32" to="29" priority="3" type="highway.residential" spreadType="center" length="3.47">
        <lane id="4847_0" index="0" disallow="pedestrian tram rail_urban rail rail_electric rail_fast ship" speed="36.11" length="3.47" width="3.50" customShape="1" shape="-247.98,-356.41 -247.48,-355.70 -245.98,-353.57"/>
    </edge>

    <junction id="19" type="dead_end" x="-182.35" y="-413.40" incLanes="4684_0" intLanes="" shape="-183.34,-414.85 -181.37,-411.96" rightOfWay="edgePriority"/>
    <junction id="22" type="dead_end" x="-414.20" y="-279.17" incLanes="4467_0" intLanes="" shape="-413.39,-277.62 -415.02,-280.71" rightOfWay="edgePriority"/>
    <junction id="25" type="dead_end" x="-170.32" y="-399.95" incLanes="" intLanes="" shape="-171.33,-401.38 -169.32,-398.52" rightOfWay="edgePriority"/>
    <junction id="27" type="dead_end" x="-210.03" y="-286.66" incLanes="" intLanes="" shape="-208.60,-287.66 -211.47,-285.66" rightOfWay="edgePriority"/>
    <junction id="28" type="dead_end" x="-414.64" y="-282.81" incLanes="" intLanes="" shape="-413.93,-281.21 -415.35,-284.41" rightOfWay="edgePriority"/>
    <junction id="29" type="priority" x="-238.72" y="-348.86" incLanes="4761_0 4847_0" intLanes=":29_0_0 :29_1_0 :29_2_0 :29_2_1 :29_4_0" shape="-242.44,-342.52 -236.73,-346.57 -236.18,-349.52 -234.41,-351.66 -231.62,-354.25 -227.84,-357.29 -223.05,-360.78 -225.07,-363.65 -230.41,-360.02 -234.92,-357.24 -238.59,-355.30 -241.42,-354.21 -243.40,-353.97 -244.55,-354.58 -247.41,-352.56 -249.74,-346.32 -247.74,-343.46">
        <request index="0" response="00000" foes="01100" cont="0"/>
        <request index="1" response="00000" foes="11100" cont="0"/>
        <request index="2" response="00011" foes="00011" cont="0"/>
        <request index="3" response="00011" foes="00011" cont="0"/>
        <request index="4" response="00010" foes="00010" cont="0"/>
    </junction>
    <junction id="30" type="priority" x="-249.43" y="-341.58" incLanes="4660_0 4763_0" intLanes=":30_0_0 :30_1_0 :30_2_0 :30_3_0" shape="-248.48,-338.65 -245.61,-340.66 -244.74,-345.56 -246.74,-348.42 -251.60,-349.29 -254.48,-347.30 -262.77,-337.16 -260.76,-334.30">
        <request index="0" response="0000" foes="0100" cont="0"/>
        <request index="1" response="0000" foes="1100" cont="0"/>
        <request index="2" response="0011" foes="0011" cont="0"/>
        <request index="3" response="0010" foes="0010" cont="0"/>
    </junction>
    <junction id="31" type="priority" x="-262.35" y="-357.64" incLanes="4662_0 4680_0" intLanes=":31_0_0 :31_1_0 :31_2_0 :31_3_0" shape="-257.84,-352.16 -254.96,-354.15 -254.14,-358.57 -256.12,-361.45 -260.75,-362.13 -263.68,-360.22 -275.94,-347.86 -273.96,-344.98">
        <request index="0" response="1100" foes="1100" cont="0"/>
        <request index="1" response="1000" foes="1000" cont="0"/>
        <request index="2" response="0000" foes="0001" cont="0"/>
        <request index="3" response="0000" foes="0011" cont="0"/>
    </junction>
    <junction id="32" type="priority" x="-250.84" y="-365.67" incLanes="4845_0 4682_0" intLanes=":32_0_0 :32_1_0 :32_2_0 :32_3_0" shape="-249.41,-355.40 -246.55,-357.42 -245.57,-360.13 -243.69,-362.59 -240.89,-365.79 -237.16,-369.72 -232.50,-374.39 -234.77,-377.07 -238.83,-373.22 -242.63,-370.02 -246.09,-367.67 -249.14,-366.38 -251.70,-366.35 -253.69,-367.78 -256.48,-365.66 -257.47,-360.52 -255.50,-357.65">
        <request index="0" response="0000" foes="0100" cont="0"/>
        <request index="1" response="0000" foes="1100" cont="0"/>
        <request index="2" response="0011" foes="0011" cont="0"/>
        <request index="3" response="0010" foes="0010" cont="0"/>
    </junction>
    <junction id="33" type="priority" x="-304.25" y="-314.29" incLanes="4765_0 4466_0" intLanes=":33_0_0 :33_1_0" shape="-259.18,-335.41 -270.35,-351.69 -346.48,-287.67 -345.98,-280.69 -332.31,-284.36 -316.94,-292.47 -300.90,-303.32 -285.23,-315.22 -270.98,-326.48">
        <request index="0" response="00" foes="00" cont="0"/>
        <request index="1" response="00" foes="00" cont="0"/>
    </junction>
    <junction id="34" type="dead_end" x="-306.32" y="-429.81" incLanes="4664_0" intLanes="" shape="-307.78,-428.84 -304.86,-430.77"/>
    <junction id="35" type="dead_end" x="-304.84" y="-431.01" incLanes="" intLanes="" shape="-306.24,-429.96 -303.44,-432.06"/>
    <junction id="6" type="dead_end" x="-191.75" y="-277.53" incLanes="4754_0 4754_1" intLanes="" shape="-188.90,-279.56 -194.60,-275.49" rightOfWay="edgePriority"/>

    <connection from="4466" to="4680" fromLane="0" toLane="0" contPos="-4.00" shape="-344.99,-286.02 -340.89,-286.64 -336.90,-287.65 -333.02,-289.03 -329.29,-290.77 -325.72,-292.84 -321.92,-295.48 -317.93,-298.75 -313.82,-302.64 -309.25,-307.54 -303.60,-314.23 -291.00,-329.87 -285.58,-336.08 -280.91,-340.88 -276.72,-344.69 -272.70,-347.91 -270.60,-349.40" via=":33_1_0" dir="s" state="M"/>
    <connection from="4660" to="4765" fromLane="0" toLane="0" contPos="-4.00" shape="-240.30,-330.00 -243.01,-333.60 -245.26,-336.11 -247.35,-338.01 -249.20,-339.29 -250.72,-340.02 -252.35,-340.44 -253.47,-340.49 -254.59,-340.32 -255.64,-339.93 -256.61,-339.36" via=":30_0_0" dir="r" state="M"/>
    <connection from="4660" to="4662" fromLane="0" toLane="0" contPos="-4.00" shape="-240.30,-330.00 -247.39,-340.19 -254.49,-350.39" via=":30_1_0" dir="s" state="M"/>
    <connection from="4662" to="4664" fromLane="0" toLane="0" contPos="-4.00" shape="-254.63,-350.59 -261.59,-360.73 -268.55,-370.87" via=":31_0_0" dir="s" state="m"/>
    <connection from="4662" to="4682" fromLane="0" toLane="0" contPos="-4.00" shape="-254.63,-350.59 -256.16,-353.12 -256.87,-354.75 -257.17,-355.89 -257.25,-357.07 -257.16,-357.65 -256.97,-358.21 -256.67,-358.72 -255.82,-359.54" via=":31_1_0" dir="l" state="m"/>
    <connection from="4680" to="4664" fromLane="0" toLane="0" contPos="-4.00" shape="-270.39,-349.55 -268.56,-350.97 -266.94,-352.64 -265.93,-354.06 -265.14,-355.61 -264.63,-357.28 -264.39,-359.00 -264.42,-360.74 -264.82,-363.03 -265.54,-365.25 -266.75,-367.88 -268.55,-370.87" via=":31_2_0" dir="r" state="M"/>
    <connection from="4680" to="4682" fromLane="0" toLane="0" contPos="-4.00" shape="-270.39,-349.55 -263.11,-354.54 -255.82,-359.54" via=":31_3_0" dir="s" state="M"/>
    <connection from="4682" to="4684" fromLane="0" toLane="0" contPos="-4.00" shape="-255.61,-359.68 -242.41,-368.46 -238.29,-371.48" via=":32_2_0" dir="s" state="m"/>
    <connection from="4682" to="4847" fromLane="0" toLane="0" contPos="-4.00" shape="-255.61,-359.68 -254.56,-360.21 -253.99,-360.34 -253.40,-360.37 -252.25,-360.13 -251.20,-359.61 -249.82,-358.51 -248.25,-356.75 -247.55,-355.81" via=":32_3_0" dir="l" state="m"/>
    <connection from="4761" to="4754" fromLane="0" toLane="0" contPos="-4.00" shape="-227.61,-359.72 -229.92,-357.91 -231.60,-356.27 -233.07,-354.44 -234.25,-352.40 -234.88,-350.76 -235.28,-349.05 -235.42,-347.29 -235.33,-345.53 -234.87,-343.23 -234.10,-341.01 -232.80,-338.37 -230.90,-335.39" via=":29_0_0" dir="r" state="M"/>
    <connection from="4761" to="4763" fromLane="0" toLane="0" contPos="-4.00" shape="-227.61,-359.72 -236.86,-353.23 -246.12,-346.73" via=":29_1_0" dir="s" state="M"/>
    <connection from="4763" to="4765" fromLane="0" toLane="0" contPos="-4.00" shape="-246.32,-346.58 -251.47,-342.97 -256.61,-339.36" via=":30_2_0" dir="s" state="m"/>
    <connection from="4763" to="4662" fromLane="0" toLane="0" contPos="-4.00" shape="-246.32,-346.58 -247.38,-346.03 -247.95,-345.88 -248.55,-345.83 -249.72,-346.02 -250.80,-346.53 -252.20,-347.63 -253.78,-349.42 -254.49,-350.39" via=":30_3_0" dir="l" state="m"/>
    <connection from="4765" to="4467" fromLane="0" toLane="0" contPos="-4.00" shape="-256.82,-339.21 -287.80,-317.65 -309.06,-303.28 -323.41,-293.96 -332.85,-288.18 -339.01,-284.76 -342.20,-283.26 -344.11,-282.62 -344.61,-282.54" via=":33_0_0" dir="s" state="M"/>
    <connection from="4845" to="4684" fromLane="0" toLane="0" contPos="-4.00" shape="-261.91,-375.72 -259.66,-373.00 -257.54,-370.97 -255.66,-369.56 -253.60,-368.44 -251.94,-367.83 -250.22,-367.46 -248.46,-367.35 -246.71,-367.50 -244.43,-368.06 -242.26,-368.96 -239.72,-370.44 -238.29,-371.48" via=":32_0_0" dir="r" state="M"/>
    <connection from="4845" to="4847" fromLane="0" toLane="0" contPos="-4.00" shape="-261.91,-375.72 -251.40,-361.23 -247.55,-355.81" via=":32_1_0" dir="s" state="M"/>
    <connection from="4847" to="4754" fromLane="0" toLane="0" contPos="-4.00" shape="-247.41,-355.60 -244.00,-351.12 -234.01,-339.47 -230.90,-335.39" via=":29_2_0" dir="s" state="m"/>
    <connection from="4847" to="4754" fromLane="0" toLane="1" contPos="-4.00" shape="-247.41,-355.60 -244.33,-350.89 -236.59,-337.63 -233.76,-333.38" via=":29_2_1" dir="s" state="m"/>
    <connection from="4847" to="4763" fromLane="0" toLane="0" contPos="-4.00" shape="-247.41,-355.60 -245.86,-353.11 -245.14,-351.50 -244.83,-350.37 -244.74,-349.20 -244.82,-348.62 -245.00,-348.06 -245.28,-347.55 -246.12,-346.73" via=":29_4_0" dir="l" state="m"/>

    <connection from=":29_0" to="4754" fromLane="0" toLane="0" dir="r" state="M"/>
    <connection from=":29_1" to="4763" fromLane="0" toLane="0" dir="s" state="M"/>
    <connection from=":29_2" to="4754" fromLane="0" toLane="0" dir="s" state="M"/>
    <connection from=":29_2" to="4754" fromLane="1" toLane="1" dir="s" state="M"/>
    <connection from=":29_4" to="4763" fromLane="0" toLane="0" dir="l" state="M"/>
    <connection from=":30_0" to="4765" fromLane="0" toLane="0" dir="r" state="M"/>
    <connection from=":30_1" to="4662" fromLane="0" toLane="0" dir="s" state="M"/>
    <connection from=":30_2" to="4765" fromLane="0" toLane="0" dir="s" state="M"/>
    <connection from=":30_3" to="4662" fromLane="0" toLane="0" dir="l" state="M"/>
    <connection from=":31_0" to="4664" fromLane="0" toLane="0" dir="s" state="M"/>
    <connection from=":31_1" to="4682" fromLane="0" toLane="0" dir="l" state="M"/>
    <connection from=":31_2" to="4664" fromLane="0" toLane="0" dir="r" state="M"/>
    <connection from=":31_3" to="4682" fromLane="0" toLane="0" dir="s" state="M"/>
    <connection from=":32_0" to="4684" fromLane="0" toLane="0" dir="r" state="M"/>
    <connection from=":32_1" to="4847" fromLane="0" toLane="0" dir="s" state="M"/>
    <connection from=":32_2" to="4684" fromLane="0" toLane="0" dir="s" state="M"/>
    <connection from=":32_3" to="4847" fromLane="0" toLane="0" dir="l" state="M"/>
    <connection from=":33_0" to="4467" fromLane="0" toLane="0" dir="s" state="M"/>
    <connection from=":33_1" to="4680" fromLane="0" toLane="0" dir="s" state="M"/>

</net>