<routes>
	<vehicle depart="0.1" departLane="0" departPos="7.870489718000169" departSpeed="9.6393407" id="32" type="passenger">
		<route edges="40714 40413"/>
	</vehicle>
	<vehicle depart="0.1" departLane="0" departPos="17.572850325248957" departSpeed="6.5588533" id="39" type="passenger">
		<route edges=":64_4 40845 40918"/>
	</vehicle>
	<vehicle depart="0.1" departLane="0" departPos="57.46134231392689" departSpeed="0.23161881" id="313" type="passenger">
		<route edges="40713 40965"/>
	</vehicle>
	<vehicle depart="0.1" departLane="0" departPos="36.24936399471576" departSpeed="2.9832355" id="314" type="passenger">
		<route edges="40641 40966"/>
	</vehicle>
	<vehicle depart="0.1" departLane="0" departPos="48.34000568747131" departSpeed="1.5664573" id="315" type="passenger">
		<route edges="40713 40965"/>
	</vehicle>
	<vehicle depart="0.1" departLane="0" departPos="16.409303361046145" departSpeed="2.0362209" id="329" type="passenger">
		<route edges="40641 40966"/>
	</vehicle>
	<vehicle depart="0.1" departLane="0" departPos="7.710509492676711" departSpeed="2.2084618" id="332" type="passenger">
		<route edges="40641 40966"/>
	</vehicle>
	<vehicle depart="0.1" departLane="0" departPos="62.68392476321461" departSpeed="0.0" id="33" type="motorcycle">
		<route edges="40713 40965"/>
	</vehicle>
	<vehicle depart="0.1" departLane="0" departPos="26.695266970005743" departSpeed="2.6315906" id="317" type="motorcycle">
		<route edges="40641 40966"/>
	</vehicle>
	<vehicle depart="0.1" departLane="0" departPos="21.402182267323" departSpeed="0.13450845" id="322" type="truck">
		<route edges=":64_3 40640"/>
	</vehicle>
</routes>
