<!-- generated on Wed Feb 10 12:29:31 2021 by Eclipse SUMO netconvert Version 1.8.0
<configuration xmlns:xsi="http://www.w3.org/2001/XMLSchema-instance" xsi:noNamespaceSchemaLocation="http://sumo.dlr.de/xsd/netconvertConfiguration.xsd">

    <input>
        <node-files value="./converted_scenarios/SUMO/DEU_Flensburg-27_1_I-1-1/DEU_Flensburg-27_1_I-1-1.nod.xml"/>
        <edge-files value="./converted_scenarios/SUMO/DEU_Flensburg-27_1_I-1-1/DEU_Flensburg-27_1_I-1-1.edg.xml"/>
        <connection-files value="./converted_scenarios/SUMO/DEU_Flensburg-27_1_I-1-1/DEU_Flensburg-27_1_I-1-1.con.xml"/>
        <tllogic-files value="./converted_scenarios/SUMO/DEU_Flensburg-27_1_I-1-1/DEU_Flensburg-27_1_I-1-1.tll.xml"/>
        <type-files value="/home/zen/commonroad-interactive-benchmarks/install/commonroad-map-tool/crmapconverter/sumo_map/templates/DEU.typ.xml"/>
    </input>

    <output>
        <output-file value="./converted_scenarios/SUMO/DEU_Flensburg-27_1_I-1-1/DEU_Flensburg-27_1_I-1-1.net.xml"/>
    </output>

    <processing>
        <geometry.remove.keep-edges.explicit value="true"/>
        <geometry.avoid-overlap value="true"/>
        <offset.disable-normalization value="true"/>
    </processing>

    <junctions>
        <no-turnarounds value="true"/>
        <junctions.internal-link-detail value="20"/>
    </junctions>

    <report>
        <aggregate-warnings value="5"/>
    </report>

    <random_number>
        <seed value="1234"/>
    </random_number>

</configuration>
--><net xmlns:xsi="http://www.w3.org/2001/XMLSchema-instance" version="1.6" junctionCornerDetail="5" junctionLinkDetail="20" limitTurnSpeed="5.50" xsi:noNamespaceSchemaLocation="http://sumo.dlr.de/xsd/net_file.xsd">

    <location netOffset="0.00,0.00" convBoundary="342.10,-583.88,514.26,-404.97" origBoundary="342.10,-583.88,514.30,-404.97" projParameter="!"/>

    <type id="highway.bridleway" priority="1" speed="2.78" allow="pedestrian" oneway="1" width="2.00"/>
    <type id="highway.bus_guideway" priority="1" speed="27.78" allow="bus" oneway="1"/>
    <type id="highway.cycleway" priority="1" speed="8.33" allow="bicycle" oneway="0" width="1.00"/>
    <type id="highway.footway" priority="1" speed="2.78" allow="pedestrian" oneway="1" width="2.00"/>
    <type id="highway.ford" priority="1" speed="2.78" allow="army" oneway="0"/>
    <type id="highway.living_street" priority="2" speed="2.78" disallow="tram rail_urban rail rail_electric rail_fast ship" oneway="0"/>
    <type id="highway.motorway" priority="14" speed="39.44" allow="private emergency authority army vip passenger hov taxi bus coach delivery truck trailer motorcycle evehicle custom1 custom2" oneway="1"/>
    <type id="highway.motorway_link" priority="9" speed="22.22" allow="private emergency authority army vip passenger hov taxi bus coach delivery truck trailer motorcycle evehicle custom1 custom2" oneway="1"/>
    <type id="highway.path" priority="1" speed="2.78" allow="pedestrian bicycle" oneway="0" width="2.00"/>
    <type id="highway.pedestrian" priority="1" speed="2.78" allow="pedestrian" oneway="1" width="2.00"/>
    <type id="highway.primary" priority="12" speed="27.78" disallow="pedestrian tram rail_urban rail rail_electric rail_fast ship" oneway="0"/>
    <type id="highway.primary_link" priority="7" speed="22.22" disallow="pedestrian tram rail_urban rail rail_electric rail_fast ship" oneway="0"/>
    <type id="highway.raceway" priority="15" speed="83.33" allow="vip" oneway="0"/>
    <type id="highway.residential" priority="3" speed="13.89" disallow="pedestrian tram rail_urban rail rail_electric rail_fast ship" oneway="0"/>
    <type id="highway.secondary" priority="11" speed="27.78" disallow="pedestrian tram rail_urban rail rail_electric rail_fast ship" oneway="0"/>
    <type id="highway.secondary_link" priority="6" speed="22.22" disallow="pedestrian tram rail_urban rail rail_electric rail_fast ship" oneway="0"/>
    <type id="highway.service" priority="1" speed="5.56" allow="pedestrian delivery bicycle" oneway="0"/>
    <type id="highway.stairs" priority="1" speed="1.39" allow="pedestrian" oneway="1" width="2.00"/>
    <type id="highway.step" priority="1" speed="1.39" allow="pedestrian" oneway="1" width="2.00"/>
    <type id="highway.steps" priority="1" speed="1.39" allow="pedestrian" oneway="1" width="2.00"/>
    <type id="highway.tertiary" priority="10" speed="22.22" disallow="pedestrian tram rail_urban rail rail_electric rail_fast ship" oneway="0"/>
    <type id="highway.tertiary_link" priority="5" speed="22.22" disallow="pedestrian tram rail_urban rail rail_electric rail_fast ship" oneway="0"/>
    <type id="highway.track" priority="1" speed="5.56" allow="pedestrian motorcycle moped bicycle" oneway="0"/>
    <type id="highway.trunk" priority="13" speed="27.78" disallow="pedestrian bicycle tram rail_urban rail rail_electric rail_fast ship" oneway="0"/>
    <type id="highway.trunk_link" priority="8" speed="22.22" disallow="pedestrian bicycle tram rail_urban rail rail_electric rail_fast ship" oneway="0"/>
    <type id="highway.unclassified" priority="4" speed="13.89" disallow="pedestrian tram rail_urban rail rail_electric rail_fast ship" oneway="0"/>
    <type id="highway.unsurfaced" priority="1" speed="8.33" disallow="tram rail_urban rail rail_electric rail_fast ship" oneway="0"/>
    <type id="railway.highspeed" priority="21" speed="69.44" allow="rail_fast" oneway="1"/>
    <type id="railway.light_rail" priority="19" speed="27.78" allow="rail_urban" oneway="1"/>
    <type id="railway.preserved" priority="16" speed="27.78" allow="rail" oneway="1"/>
    <type id="railway.rail" priority="20" speed="44.44" allow="rail" oneway="1"/>
    <type id="railway.subway" priority="18" speed="27.78" allow="rail_urban" oneway="1"/>
    <type id="railway.tram" priority="17" speed="13.89" allow="tram" oneway="1"/>

    <edge id=":10_0" function="internal">
        <lane id=":10_0_0" index="0" disallow="pedestrian tram rail_urban rail rail_electric rail_fast ship" speed="36.11" length="0.32" width="3.49" shape="514.23,-420.94 514.24,-420.96 514.24,-420.99 514.25,-421.00 514.25,-421.02 514.25,-421.04 514.25,-421.05 514.26,-421.07 514.26,-421.08 514.26,-421.09 514.26,-421.10 514.26,-421.12 514.26,-421.13 514.26,-421.14 514.26,-421.16 514.26,-421.17 514.27,-421.19 514.27,-421.21 514.27,-421.23 514.27,-421.25"/>
    </edge>
    <edge id=":12_0" function="internal">
        <lane id=":12_0_0" index="0" disallow="pedestrian tram rail_urban rail rail_electric rail_fast ship" speed="36.11" length="0.10" width="3.50" shape="472.49,-508.26 472.49,-508.26"/>
    </edge>
    <edge id=":13_0" function="internal">
        <lane id=":13_0_0" index="0" disallow="pedestrian tram rail_urban rail rail_electric rail_fast ship" speed="36.11" length="3.28" width="3.50" shape="466.92,-496.19 466.70,-496.09 466.50,-496.00 466.32,-495.92 466.15,-495.86 465.99,-495.80 465.85,-495.75 465.71,-495.71 465.58,-495.67 465.46,-495.64 465.33,-495.61 465.20,-495.58 465.07,-495.55 464.93,-495.52 464.78,-495.49 464.62,-495.46 464.44,-495.42 464.24,-495.37 464.03,-495.32 463.79,-495.26"/>
    </edge>
    <edge id=":18_0" function="internal">
        <lane id=":18_0_0" index="0" disallow="pedestrian tram rail_urban rail rail_electric rail_fast ship" speed="36.11" length="0.21" width="3.50" shape="464.34,-499.02 464.54,-499.08"/>
    </edge>
    <edge id=":19_0" function="internal">
        <lane id=":19_0_0" index="0" disallow="pedestrian tram rail_urban rail rail_electric rail_fast ship" speed="36.11" length="2.87" width="3.50" shape="469.31,-506.13 468.75,-508.94"/>
    </edge>
    <edge id=":27_0" function="internal">
        <lane id=":27_0_0" index="0" disallow="pedestrian tram rail_urban rail rail_electric rail_fast ship" speed="8.86" length="17.37" width="3.49" shape="413.90,-505.32 404.93,-502.51 403.93,-501.92 403.06,-501.15 402.41,-500.19 402.05,-499.09 401.97,-497.93 402.36,-495.80"/>
    </edge>
    <edge id=":27_1" function="internal">
        <lane id=":27_1_0" index="0" disallow="pedestrian tram rail_urban rail rail_electric rail_fast ship" speed="36.11" length="19.54" width="3.50" shape="413.90,-505.32 396.50,-499.96 395.24,-499.54"/>
    </edge>
    <edge id=":28_0" function="internal">
        <lane id=":28_0_0" index="0" disallow="pedestrian tram rail_urban rail rail_electric rail_fast ship" speed="8.23" length="17.62" width="3.50" shape="508.83,-518.04 508.46,-526.22 508.40,-526.76 508.32,-527.29 508.21,-527.82 508.07,-528.34 507.88,-528.85 507.65,-529.34 507.36,-529.79 507.02,-530.21 506.62,-530.57 506.17,-530.86 505.67,-531.07 505.14,-531.20 504.61,-531.27 504.07,-531.29 503.53,-531.25 502.99,-531.17 502.46,-531.07 502.22,-531.01"/>
    </edge>
    <edge id=":28_1" function="internal">
        <lane id=":28_1_0" index="0" disallow="pedestrian tram rail_urban rail rail_electric rail_fast ship" speed="36.11" length="20.06" width="3.50" shape="508.83,-518.04 508.18,-531.71 507.84,-538.08"/>
    </edge>
    <edge id=":29_0" function="internal">
        <lane id=":29_0_0" index="0" disallow="pedestrian tram rail_urban rail rail_electric rail_fast ship" speed="36.11" length="10.18" width="3.50" shape="511.02,-468.63 510.81,-472.97 510.52,-478.80"/>
    </edge>
    <edge id=":29_1" function="internal">
        <lane id=":29_1_0" index="0" disallow="pedestrian tram rail_urban rail rail_electric rail_fast ship" speed="6.82" length="8.44" width="3.50" shape="505.46,-472.86 506.58,-473.24 508.10,-474.08 508.99,-474.82 509.70,-475.73 510.20,-476.78 510.46,-477.91 510.50,-478.80"/>
    </edge>
    <edge id=":30_0" function="internal">
        <lane id=":30_0_0" index="0" disallow="pedestrian tram rail_urban rail rail_electric rail_fast ship" speed="6.81" length="10.41" width="3.50" shape="467.63,-513.94 467.12,-515.72 466.34,-517.38 465.60,-518.36 464.63,-519.10 463.47,-519.50 462.25,-519.54 460.47,-519.13"/>
    </edge>
    <edge id=":30_1" function="internal">
        <lane id=":30_1_0" index="0" disallow="pedestrian tram rail_urban rail rail_electric rail_fast ship" speed="7.19" length="10.69" width="3.50" shape="474.90,-523.31 473.46,-522.81 472.51,-522.22 471.73,-521.42 471.16,-520.46 470.82,-519.39 470.67,-517.72 470.89,-515.48 471.04,-514.73"/>
    </edge>
    <edge id=":30_2" function="internal">
        <lane id=":30_2_0" index="0" disallow="pedestrian tram rail_urban rail rail_electric rail_fast ship" speed="36.11" length="15.02" width="3.50" shape="474.90,-523.31 467.77,-521.25 460.47,-519.13"/>
    </edge>
    <edge id=":9_0" function="internal">
        <lane id=":9_0_0" index="0" disallow="pedestrian tram rail_urban rail rail_electric rail_fast ship" speed="36.11" length="2.63" width="3.49" shape="507.78,-414.49 507.97,-414.55 508.13,-414.61 508.29,-414.67 508.42,-414.72 508.55,-414.76 508.66,-414.81 508.77,-414.85 508.87,-414.89 508.96,-414.93 509.06,-414.98 509.15,-415.02 509.25,-415.06 509.36,-415.11 509.47,-415.17 509.58,-415.23 509.71,-415.29 509.86,-415.36 510.02,-415.44 510.19,-415.53"/>
    </edge>

    <edge id="1332" from="9" to="10" priority="3" type="highway.residential" spreadType="center" length="7.08">
        <lane id="1332_0" index="0" disallow="pedestrian tram rail_urban rail rail_electric rail_fast ship" speed="36.11" length="7.08" width="3.49" customShape="1" shape="510.19,-415.53 510.93,-415.90 512.22,-416.87 513.26,-418.09 513.95,-419.54 514.23,-420.94"/>
    </edge>
    <edge id="135" from="20" to="9" priority="3" type="highway.residential" spreadType="center" length="51.18">
        <lane id="135_0" index="0" disallow="pedestrian tram rail_urban rail rail_electric rail_fast ship" speed="36.11" length="51.18" width="3.50" customShape="1" shape="457.62,-404.97 469.63,-406.61 483.14,-408.39 491.10,-409.76 497.50,-411.21 503.32,-412.89 507.78,-414.49"/>
    </edge>
    <edge id="1909" from="12" to="13" priority="3" type="highway.residential" spreadType="center" length="14.79">
        <lane id="1909_0" index="0" disallow="pedestrian tram rail_urban rail rail_electric rail_fast ship" speed="36.11" length="14.79" width="3.50" customShape="1" shape="472.49,-508.26 472.84,-506.14 472.91,-504.00 472.74,-502.58 472.36,-501.21 471.75,-499.92 470.91,-498.76 469.87,-497.79 468.69,-496.99 466.92,-496.19"/>
    </edge>
    <edge id="1910" from="18" to="19" priority="3" type="highway.residential" spreadType="center" length="9.54">
        <lane id="1910_0" index="0" disallow="pedestrian tram rail_urban rail rail_electric rail_fast ship" speed="36.11" length="9.54" width="3.50" customShape="1" shape="464.54,-499.08 465.43,-499.35 466.82,-499.99 467.55,-500.49 468.20,-501.10 468.70,-501.80 469.06,-502.59 469.29,-503.48 469.40,-504.40 469.34,-505.94 469.31,-506.13"/>
    </edge>
    <edge id="206" from="10" to="29" priority="3" type="highway.residential" spreadType="center" length="47.53">
        <lane id="206_0" index="0" disallow="pedestrian tram rail_urban rail rail_electric rail_fast ship" speed="36.11" length="47.53" width="3.49" customShape="1" shape="514.27,-421.25 514.30,-423.65 513.92,-426.69 513.07,-431.73 512.23,-443.79 511.02,-468.63"/>
    </edge>
    <edge id="208" from="29" to="28" priority="3" type="highway.residential" spreadType="center" length="39.28">
        <lane id="208_0" index="0" disallow="pedestrian tram rail_urban rail rail_electric rail_fast ship" speed="36.11" length="39.28" width="3.50" customShape="1" shape="510.52,-478.80 509.50,-502.38 508.83,-518.04"/>
    </edge>
    <edge id="210" from="28" to="26" priority="3" type="highway.residential" spreadType="center" length="46.11">
        <lane id="210_0" index="0" disallow="pedestrian tram rail_urban rail rail_electric rail_fast ship" speed="36.11" length="46.11" width="3.50" customShape="1" shape="507.84,-538.08 506.60,-561.36 505.79,-570.38 504.77,-577.89 504.00,-581.40 503.32,-583.88"/>
    </edge>
    <edge id="216" from="28" to="30" priority="3" type="highway.residential" spreadType="center" length="28.39">
        <lane id="216_0" index="0" disallow="pedestrian tram rail_urban rail rail_electric rail_fast ship" speed="36.11" length="28.39" width="3.50" customShape="1" shape="502.22,-531.02 488.23,-527.07 474.90,-523.31"/>
    </edge>
    <edge id="218" from="30" to="27" priority="3" type="highway.residential" spreadType="center" length="48.57">
        <lane id="218_0" index="0" disallow="pedestrian tram rail_urban rail rail_electric rail_fast ship" speed="36.11" length="48.57" width="3.50" customShape="1" shape="460.47,-519.13 433.79,-511.22 413.90,-505.32"/>
    </edge>
    <edge id="220" from="27" to="22" priority="3" type="highway.residential" spreadType="center" length="56.16">
        <lane id="220_0" index="0" disallow="pedestrian tram rail_urban rail rail_electric rail_fast ship" speed="36.11" length="56.16" width="3.50" customShape="1" shape="395.24,-499.54 368.83,-490.50 342.10,-481.36"/>
    </edge>
    <edge id="222" from="27" to="25" priority="3" type="highway.residential" spreadType="center" length="40.77">
        <lane id="222_0" index="0" disallow="pedestrian tram rail_urban rail rail_electric rail_fast ship" speed="36.11" length="40.77" width="3.49" customShape="1" shape="402.36,-495.80 407.85,-476.34 413.43,-456.56"/>
    </edge>
    <edge id="226" from="16" to="29" priority="3" type="highway.residential" spreadType="center" length="71.14">
        <lane id="226_0" index="0" disallow="pedestrian tram rail_urban rail rail_electric rail_fast ship" speed="36.11" length="71.14" width="3.50" customShape="1" shape="436.36,-455.95 462.41,-462.29 505.48,-472.78"/>
    </edge>
    <edge id="757" from="19" to="30" priority="3" type="highway.residential" spreadType="center" length="5.14" shape="469.07,-507.54 466.81,-517.70">
        <lane id="757_0" index="0" disallow="pedestrian tram rail_urban rail rail_electric rail_fast ship" speed="36.11" length="5.14" width="3.50" customShape="1" shape="468.75,-508.94 468.35,-510.72 467.63,-513.96"/>
    </edge>
    <edge id="758" from="30" to="12" priority="3" type="highway.residential" spreadType="center" length="6.63" shape="470.17,-518.46 472.49,-508.26">
        <lane id="758_0" index="0" disallow="pedestrian tram rail_urban rail rail_electric rail_fast ship" speed="36.11" length="6.63" width="3.50" customShape="1" shape="471.04,-514.73 471.77,-511.49 472.49,-508.26"/>
    </edge>
    <edge id="760" from="23" to="18" priority="3" type="highway.residential" spreadType="center" length="17.88">
        <lane id="760_0" index="0" disallow="pedestrian tram rail_urban rail rail_electric rail_fast ship" speed="36.11" length="17.88" width="3.50" customShape="1" shape="447.05,-494.45 455.77,-496.76 464.34,-499.02"/>
    </edge>
    <edge id="761" from="13" to="14" priority="3" type="highway.residential" spreadType="center" length="16.38">
        <lane id="761_0" index="0" disallow="pedestrian tram rail_urban rail rail_electric rail_fast ship" speed="36.11" length="16.38" width="3.50" customShape="1" shape="463.79,-495.26 456.66,-493.37 447.95,-491.07"/>
    </edge>

    <junction id="10" type="priority" x="514.26" y="-421.10" incLanes="1332_0" intLanes=":10_0_0" shape="516.01,-421.23 512.52,-421.28 515.94,-420.60 515.99,-420.83 516.00,-420.91 516.00,-421.00" rightOfWay="edgePriority">
        <request index="0" response="0" foes="0" cont="0"/>
    </junction>
    <junction id="12" type="priority" x="472.49" y="-508.26" incLanes="758_0" intLanes=":12_0_0" shape="474.19,-508.69 470.77,-507.92 474.22,-508.49" rightOfWay="edgePriority">
        <request index="0" response="0" foes="0" cont="0"/>
    </junction>
    <junction id="13" type="priority" x="465.37" y="-495.67" incLanes="1909_0" intLanes=":13_0_0" shape="467.45,-494.50 466.40,-497.87 465.30,-497.43 464.91,-497.31 464.50,-497.22 464.01,-497.11 463.35,-496.95 464.24,-493.57 465.42,-493.83 465.84,-493.92 466.25,-494.02 466.73,-494.19" rightOfWay="edgePriority">
        <request index="0" response="0" foes="0" cont="0"/>
    </junction>
    <junction id="14" type="dead_end" x="447.95" y="-491.07" incLanes="761_0" intLanes="" shape="448.39,-489.38 447.50,-492.76" rightOfWay="edgePriority"/>
    <junction id="16" type="dead_end" x="436.36" y="-455.95" incLanes="" intLanes="" shape="436.78,-454.25 435.95,-457.65" rightOfWay="edgePriority"/>
    <junction id="18" type="priority" x="464.44" y="-499.05" incLanes="760_0" intLanes=":18_0_0" shape="465.06,-497.41 464.02,-500.75 463.89,-500.71 464.78,-497.33" rightOfWay="edgePriority">
        <request index="0" response="0" foes="0" cont="0"/>
    </junction>
    <junction id="19" type="priority" x="469.07" y="-507.54" incLanes="1910_0" intLanes=":19_0_0" shape="470.46,-509.32 467.05,-508.55 467.31,-507.53 467.42,-507.17 467.50,-506.81 467.56,-506.36 467.58,-505.84 471.03,-506.42" rightOfWay="edgePriority">
        <request index="0" response="0" foes="0" cont="0"/>
    </junction>
    <junction id="20" type="dead_end" x="457.62" y="-404.97" incLanes="" intLanes="" shape="457.86,-403.24 457.39,-406.70" rightOfWay="edgePriority"/>
    <junction id="22" type="dead_end" x="342.10" y="-481.36" incLanes="220_0" intLanes="" shape="342.66,-479.71 341.53,-483.01" rightOfWay="edgePriority"/>
    <junction id="23" type="dead_end" x="447.05" y="-494.45" incLanes="" intLanes="" shape="447.50,-492.76 446.60,-496.14" rightOfWay="edgePriority"/>
    <junction id="25" type="dead_end" x="413.43" y="-456.56" incLanes="222_0" intLanes="" shape="415.11,-457.03 411.75,-456.08" rightOfWay="edgePriority"/>
    <junction id="26" type="dead_end" x="503.32" y="-583.88" incLanes="210_0" intLanes="" shape="501.63,-583.42 505.01,-584.34" rightOfWay="edgePriority"/>
    <junction id="27" type="priority" x="401.47" y="-499.64" incLanes="218_0" intLanes=":27_0_0 :27_1_0" shape="400.68,-495.33 404.04,-496.28 404.70,-498.86 406.07,-500.10 408.15,-501.31 410.92,-502.49 414.39,-503.64 413.40,-507.00 394.68,-501.19 395.81,-497.88 398.03,-498.17 398.92,-497.89 399.65,-497.32 400.24,-496.47">
        <request index="0" response="00" foes="00" cont="0"/>
        <request index="1" response="00" foes="00" cont="0"/>
    </junction>
    <junction id="28" type="priority" x="506.10" y="-531.45" incLanes="208_0" intLanes=":28_0_0 :28_1_0" shape="507.08,-517.97 510.58,-518.12 509.59,-538.17 506.09,-537.98 505.70,-535.62 505.11,-534.67 504.25,-533.86 503.13,-533.21 501.75,-532.70 502.70,-529.34 504.89,-528.56 505.72,-527.04 506.36,-524.77 506.81,-521.74">
        <request index="0" response="00" foes="00" cont="0"/>
        <request index="1" response="00" foes="00" cont="0"/>
    </junction>
    <junction id="29" type="priority" x="508.66" y="-472.81" incLanes="206_0 226_0" intLanes=":29_0_0 :29_1_0" shape="509.28,-468.55 512.76,-468.72 512.27,-478.88 508.77,-478.73 508.42,-476.78 507.92,-476.01 507.19,-475.36 506.24,-474.85 505.07,-474.47 505.89,-471.08 507.70,-471.14 508.35,-470.84 508.83,-470.30 509.14,-469.54">
        <request index="0" response="10" foes="10" cont="0"/>
        <request index="1" response="00" foes="01" cont="0"/>
    </junction>
    <junction id="30" type="priority" x="468.55" y="-517.79" incLanes="757_0 216_0" intLanes=":30_0_0 :30_1_0 :30_2_0" shape="465.92,-513.58 472.75,-515.11 472.50,-518.25 472.80,-519.45 473.38,-520.42 474.24,-521.14 475.38,-521.63 474.43,-524.99 459.97,-520.81 460.96,-517.45 463.22,-517.53 464.12,-517.05 464.87,-516.24 465.47,-515.08">
        <request index="0" response="000" foes="100" cont="0"/>
        <request index="1" response="000" foes="000" cont="0"/>
        <request index="2" response="001" foes="001" cont="0"/>
    </junction>
    <junction id="9" type="priority" x="509.02" y="-414.94" incLanes="135_0" intLanes=":9_0_0" shape="510.97,-413.97 509.42,-417.09 508.59,-416.68 508.30,-416.55 508.00,-416.43 507.64,-416.29 507.14,-416.11 508.43,-412.86 509.39,-413.22 509.72,-413.36 510.05,-413.51" rightOfWay="edgePriority">
        <request index="0" response="0" foes="0" cont="0"/>
    </junction>

    <connection from="1332" to="206" fromLane="0" toLane="0" contPos="-4.00" via=":10_0_0" dir="r" state="M"/>
    <connection from="135" to="1332" fromLane="0" toLane="0" contPos="-4.00" via=":9_0_0" dir="s" state="M"/>
    <connection from="1909" to="761" fromLane="0" toLane="0" contPos="-4.00" via=":13_0_0" dir="l" state="M"/>
    <connection from="1910" to="757" fromLane="0" toLane="0" contPos="-4.00" via=":19_0_0" dir="s" state="M"/>
    <connection from="206" to="208" fromLane="0" toLane="0" contPos="-4.00" shape="511.11,-466.87 510.81,-472.97 510.51,-479.07" via=":29_0_0" dir="s" state="m"/>
    <connection from="208" to="216" fromLane="0" toLane="0" contPos="-4.00" shape="508.50,-525.69 508.46,-526.22 508.40,-526.76 508.32,-527.29 508.21,-527.82 508.07,-528.34 507.88,-528.85 507.65,-529.34 507.36,-529.79 507.02,-530.21 506.62,-530.57 506.17,-530.86 505.67,-531.07 505.14,-531.20 504.61,-531.27 504.07,-531.29 503.53,-531.25 502.99,-531.17 502.46,-531.07 501.94,-530.94" via=":28_0_0" dir="r" state="M"/>
    <connection from="208" to="210" fromLane="0" toLane="0" contPos="-4.00" shape="508.50,-525.69 508.18,-531.71 507.86,-537.73" via=":28_1_0" dir="s" state="M"/>
    <connection from="216" to="758" fromLane="0" toLane="0" contPos="-4.00" shape="474.51,-523.20 473.46,-522.81 472.51,-522.22 471.73,-521.42 471.16,-520.46 470.82,-519.39 470.67,-517.72 470.89,-515.48 471.04,-514.73" via=":30_1_0" dir="r" state="M"/>
    <connection from="216" to="218" fromLane="0" toLane="0" contPos="-4.00" shape="474.51,-523.20 467.77,-521.25 461.03,-519.30" via=":30_2_0" dir="s" state="m"/>
    <connection from="218" to="222" fromLane="0" toLane="0" contPos="-4.00" shape="406.56,-503.14 404.93,-502.51 403.93,-501.92 403.06,-501.15 402.41,-500.19 402.05,-499.09 401.97,-497.93 402.27,-496.12" via=":27_0_0" dir="r" state="M"/>
    <connection from="218" to="220" fromLane="0" toLane="0" contPos="-4.00" shape="406.56,-503.14 396.50,-499.96 395.57,-499.65" via=":27_1_0" dir="s" state="M"/>
    <connection from="226" to="208" fromLane="0" toLane="0" contPos="-4.00" shape="504.38,-472.51 506.58,-473.24 508.10,-474.08 508.99,-474.82 509.70,-475.73 510.20,-476.78 510.46,-477.91 510.51,-479.07" via=":29_1_0" dir="r" state="M"/>
    <connection from="757" to="218" fromLane="0" toLane="0" contPos="-4.00" shape="467.63,-513.94 467.12,-515.72 466.34,-517.38 465.60,-518.36 464.63,-519.10 463.47,-519.50 462.25,-519.54 461.03,-519.30" via=":30_0_0" dir="r" state="M"/>
    <connection from="758" to="1909" fromLane="0" toLane="0" contPos="-4.00" via=":12_0_0" dir="s" state="M"/>
    <connection from="760" to="1910" fromLane="0" toLane="0" contPos="-4.00" via=":18_0_0" dir="r" state="M"/>

    <connection from=":10_0" to="206" fromLane="0" toLane="0" dir="r" state="M"/>
    <connection from=":12_0" to="1909" fromLane="0" toLane="0" dir="s" state="M"/>
    <connection from=":13_0" to="761" fromLane="0" toLane="0" dir="l" state="M"/>
    <connection from=":18_0" to="1910" fromLane="0" toLane="0" dir="r" state="M"/>
    <connection from=":19_0" to="757" fromLane="0" toLane="0" dir="s" state="M"/>
    <connection from=":27_0" to="222" fromLane="0" toLane="0" dir="r" state="M"/>
    <connection from=":27_1" to="220" fromLane="0" toLane="0" dir="s" state="M"/>
    <connection from=":28_0" to="216" fromLane="0" toLane="0" dir="r" state="M"/>
    <connection from=":28_1" to="210" fromLane="0" toLane="0" dir="s" state="M"/>
    <connection from=":29_0" to="208" fromLane="0" toLane="0" dir="s" state="M"/>
    <connection from=":29_1" to="208" fromLane="0" toLane="0" dir="r" state="M"/>
    <connection from=":30_0" to="218" fromLane="0" toLane="0" dir="r" state="M"/>
    <connection from=":30_1" to="758" fromLane="0" toLane="0" dir="r" state="M"/>
    <connection from=":30_2" to="218" fromLane="0" toLane="0" dir="s" state="M"/>
    <connection from=":9_0" to="1332" fromLane="0" toLane="0" dir="s" state="M"/>

</net>