<!-- generated on Tue Feb  9 22:22:00 2021 by Eclipse SUMO netconvert Version 1.8.0
<configuration xmlns:xsi="http://www.w3.org/2001/XMLSchema-instance" xsi:noNamespaceSchemaLocation="http://sumo.dlr.de/xsd/netconvertConfiguration.xsd">

    <input>
        <node-files value="./converted_scenarios/scenario-factory/ITA_Foggia-7_2_I-1-1/ITA_Foggia-7_2_I-1-1.nod.xml"/>
        <edge-files value="./converted_scenarios/scenario-factory/ITA_Foggia-7_2_I-1-1/ITA_Foggia-7_2_I-1-1.edg.xml"/>
        <connection-files value="./converted_scenarios/scenario-factory/ITA_Foggia-7_2_I-1-1/ITA_Foggia-7_2_I-1-1.con.xml"/>
        <tllogic-files value="./converted_scenarios/scenario-factory/ITA_Foggia-7_2_I-1-1/ITA_Foggia-7_2_I-1-1.tll.xml"/>
        <type-files value="/home/zen/commonroad-interactive-benchmarks/install/commonroad-map-tool/crmapconverter/sumo_map/templates/DEU.typ.xml"/>
    </input>

    <output>
        <output-file value="./converted_scenarios/scenario-factory/ITA_Foggia-7_2_I-1-1/ITA_Foggia-7_2_I-1-1.net.xml"/>
    </output>

    <processing>
        <geometry.remove.keep-edges.explicit value="true"/>
        <geometry.avoid-overlap value="true"/>
        <offset.disable-normalization value="true"/>
    </processing>

    <junctions>
        <no-turnarounds value="true"/>
        <junctions.internal-link-detail value="20"/>
    </junctions>

    <report>
        <aggregate-warnings value="5"/>
    </report>

    <random_number>
        <seed value="1234"/>
    </random_number>

</configuration>
--><net xmlns:xsi="http://www.w3.org/2001/XMLSchema-instance" version="1.6" junctionCornerDetail="5" junctionLinkDetail="20" limitTurnSpeed="5.50" xsi:noNamespaceSchemaLocation="http://sumo.dlr.de/xsd/net_file.xsd">

    <location netOffset="0.00,0.00" convBoundary="132.12,139.07,577.77,529.47" origBoundary="132.12,139.07,577.77,529.47" projParameter="!"/>

    <type id="highway.bridleway" priority="1" speed="2.78" allow="pedestrian" oneway="1" width="2.00"/>
    <type id="highway.bus_guideway" priority="1" speed="27.78" allow="bus" oneway="1"/>
    <type id="highway.cycleway" priority="1" speed="8.33" allow="bicycle" oneway="0" width="1.00"/>
    <type id="highway.footway" priority="1" speed="2.78" allow="pedestrian" oneway="1" width="2.00"/>
    <type id="highway.ford" priority="1" speed="2.78" allow="army" oneway="0"/>
    <type id="highway.living_street" priority="2" speed="2.78" disallow="tram rail_urban rail rail_electric rail_fast ship" oneway="0"/>
    <type id="highway.motorway" priority="14" speed="39.44" allow="private emergency authority army vip passenger hov taxi bus coach delivery truck trailer motorcycle evehicle custom1 custom2" oneway="1"/>
    <type id="highway.motorway_link" priority="9" speed="22.22" allow="private emergency authority army vip passenger hov taxi bus coach delivery truck trailer motorcycle evehicle custom1 custom2" oneway="1"/>
    <type id="highway.path" priority="1" speed="2.78" allow="pedestrian bicycle" oneway="0" width="2.00"/>
    <type id="highway.pedestrian" priority="1" speed="2.78" allow="pedestrian" oneway="1" width="2.00"/>
    <type id="highway.primary" priority="12" speed="27.78" disallow="pedestrian tram rail_urban rail rail_electric rail_fast ship" oneway="0"/>
    <type id="highway.primary_link" priority="7" speed="22.22" disallow="pedestrian tram rail_urban rail rail_electric rail_fast ship" oneway="0"/>
    <type id="highway.raceway" priority="15" speed="83.33" allow="vip" oneway="0"/>
    <type id="highway.residential" priority="3" speed="13.89" disallow="pedestrian tram rail_urban rail rail_electric rail_fast ship" oneway="0"/>
    <type id="highway.secondary" priority="11" speed="27.78" disallow="pedestrian tram rail_urban rail rail_electric rail_fast ship" oneway="0"/>
    <type id="highway.secondary_link" priority="6" speed="22.22" disallow="pedestrian tram rail_urban rail rail_electric rail_fast ship" oneway="0"/>
    <type id="highway.service" priority="1" speed="5.56" allow="pedestrian delivery bicycle" oneway="0"/>
    <type id="highway.stairs" priority="1" speed="1.39" allow="pedestrian" oneway="1" width="2.00"/>
    <type id="highway.step" priority="1" speed="1.39" allow="pedestrian" oneway="1" width="2.00"/>
    <type id="highway.steps" priority="1" speed="1.39" allow="pedestrian" oneway="1" width="2.00"/>
    <type id="highway.tertiary" priority="10" speed="22.22" disallow="pedestrian tram rail_urban rail rail_electric rail_fast ship" oneway="0"/>
    <type id="highway.tertiary_link" priority="5" speed="22.22" disallow="pedestrian tram rail_urban rail rail_electric rail_fast ship" oneway="0"/>
    <type id="highway.track" priority="1" speed="5.56" allow="pedestrian motorcycle moped bicycle" oneway="0"/>
    <type id="highway.trunk" priority="13" speed="27.78" disallow="pedestrian bicycle tram rail_urban rail rail_electric rail_fast ship" oneway="0"/>
    <type id="highway.trunk_link" priority="8" speed="22.22" disallow="pedestrian bicycle tram rail_urban rail rail_electric rail_fast ship" oneway="0"/>
    <type id="highway.unclassified" priority="4" speed="13.89" disallow="pedestrian tram rail_urban rail rail_electric rail_fast ship" oneway="0"/>
    <type id="highway.unsurfaced" priority="1" speed="8.33" disallow="tram rail_urban rail rail_electric rail_fast ship" oneway="0"/>
    <type id="railway.highspeed" priority="21" speed="69.44" allow="rail_fast" oneway="1"/>
    <type id="railway.light_rail" priority="19" speed="27.78" allow="rail_urban" oneway="1"/>
    <type id="railway.preserved" priority="16" speed="27.78" allow="rail" oneway="1"/>
    <type id="railway.rail" priority="20" speed="44.44" allow="rail" oneway="1"/>
    <type id="railway.subway" priority="18" speed="27.78" allow="rail_urban" oneway="1"/>
    <type id="railway.tram" priority="17" speed="13.89" allow="tram" oneway="1"/>

    <edge id=":117_0" function="internal">
        <lane id=":117_0_0" index="0" disallow="pedestrian tram rail_urban rail rail_electric rail_fast ship" speed="36.11" length="2.99" width="3.50" shape="373.72,475.37 376.61,474.59"/>
    </edge>
    <edge id=":148_0" function="internal">
        <lane id=":148_0_0" index="0" disallow="pedestrian tram rail_urban rail rail_electric rail_fast ship" speed="36.11" length="0.30" width="3.50" shape="347.42,504.87 347.22,504.64"/>
    </edge>
    <edge id=":181_0" function="internal">
        <lane id=":181_0_0" index="0" disallow="pedestrian tram rail_urban rail rail_electric rail_fast ship" speed="36.11" length="3.01" width="3.50" shape="377.52,477.97 374.62,478.76"/>
    </edge>
    <edge id=":189_0" function="internal">
        <lane id=":189_0_0" index="0" disallow="pedestrian tram rail_urban rail rail_electric rail_fast ship" speed="36.11" length="2.99" width="3.50" shape="311.71,463.60 309.72,461.37"/>
    </edge>
    <edge id=":190_0" function="internal">
        <lane id=":190_0_0" index="0" disallow="pedestrian tram rail_urban rail rail_electric rail_fast ship" speed="36.11" length="3.00" width="3.46" shape="423.99,441.27 424.75,444.17"/>
    </edge>
    <edge id=":191_0" function="internal">
        <lane id=":191_0_0" index="0" disallow="pedestrian tram rail_urban rail rail_electric rail_fast ship" speed="36.11" length="3.00" width="3.50" shape="230.80,388.23 233.52,386.97"/>
    </edge>
    <edge id=":192_0" function="internal">
        <lane id=":192_0_0" index="0" disallow="pedestrian tram rail_urban rail rail_electric rail_fast ship" speed="36.11" length="2.99" width="3.50" shape="268.91,402.56 267.28,400.05"/>
    </edge>
    <edge id=":193_0" function="internal">
        <lane id=":193_0_0" index="0" disallow="pedestrian tram rail_urban rail rail_electric rail_fast ship" speed="36.11" length="2.99" width="3.50" shape="312.32,459.02 314.31,461.25"/>
    </edge>
    <edge id=":194_0" function="internal">
        <lane id=":194_0_0" index="0" disallow="pedestrian tram rail_urban rail rail_electric rail_fast ship" speed="36.11" length="2.99" width="3.50" shape="270.22,398.14 271.84,400.65"/>
    </edge>
    <edge id=":195_0" function="internal">
        <lane id=":195_0_0" index="0" disallow="pedestrian tram rail_urban rail rail_electric rail_fast ship" speed="36.11" length="3.00" width="3.50" shape="249.64,353.70 250.81,356.46"/>
    </edge>
    <edge id=":198_0" function="internal">
        <lane id=":198_0_0" index="0" disallow="pedestrian tram rail_urban rail rail_electric rail_fast ship" speed="36.11" length="3.00" width="3.50" shape="292.72,373.63 290.01,374.91"/>
    </edge>
    <edge id=":199_0" function="internal">
        <lane id=":199_0_0" index="0" disallow="pedestrian tram rail_urban rail rail_electric rail_fast ship" speed="36.11" length="10.00" width="3.50" shape="349.06,346.59 348.17,347.04 340.14,351.11"/>
    </edge>
    <edge id=":199_1" function="internal">
        <lane id=":199_1_0" index="0" disallow="pedestrian tram rail_urban rail rail_electric rail_fast ship" speed="6.69" length="9.70" width="3.50" shape="348.72,345.93 347.12,346.31 345.40,346.49 343.68,346.37 342.57,346.05 341.57,345.49 340.75,344.68 340.16,343.70"/>
    </edge>
    <edge id=":199_2" function="internal">
        <lane id=":199_2_0" index="0" disallow="pedestrian tram rail_urban rail rail_electric rail_fast ship" speed="7.16" length="10.68" width="3.50" shape="343.32,342.19 343.94,343.91 344.13,345.09 344.09,346.28 343.79,347.43 343.23,348.48 342.48,349.39 341.09,350.52 340.12,351.08"/>
    </edge>
    <edge id=":200_0" function="internal">
        <lane id=":200_0_0" index="0" disallow="pedestrian tram rail_urban rail rail_electric rail_fast ship" speed="6.94" length="9.78" width="3.50" shape="385.47,320.85 385.10,319.74 385.00,318.63 385.16,317.54 385.54,316.49 386.41,315.07 387.91,313.43 388.99,312.55"/>
    </edge>
    <edge id=":200_1" function="internal">
        <lane id=":200_1_0" index="0" disallow="pedestrian tram rail_urban rail rail_electric rail_fast ship" speed="36.11" length="9.96" width="3.50" shape="379.71,316.30 384.23,314.04 388.62,311.84"/>
    </edge>
    <edge id=":200_2" function="internal">
        <lane id=":200_2_0" index="0" disallow="pedestrian tram rail_urban rail rail_electric rail_fast ship" speed="6.74" length="9.79" width="3.50" shape="380.04,316.98 381.80,316.59 383.51,316.45 385.21,316.61 386.30,316.96 387.27,317.56 388.06,318.38 388.64,319.36"/>
    </edge>
    <edge id=":201_0" function="internal">
        <lane id=":201_0_0" index="0" disallow="pedestrian tram rail_urban rail rail_electric rail_fast ship" speed="6.90" length="9.90" width="3.50" shape="340.07,343.50 339.69,342.40 339.56,341.28 339.70,340.17 340.06,339.11 340.92,337.66 342.42,335.99 343.53,335.08"/>
    </edge>
    <edge id=":201_1" function="internal">
        <lane id=":201_1_0" index="0" disallow="pedestrian tram rail_urban rail rail_electric rail_fast ship" speed="36.11" length="9.99" width="3.50" shape="334.14,338.62 338.59,336.47 343.14,334.28"/>
    </edge>
    <edge id=":201_2" function="internal">
        <lane id=":201_2_0" index="0" disallow="pedestrian tram rail_urban rail rail_electric rail_fast ship" speed="6.82" length="9.94" width="3.50" shape="334.51,339.41 335.91,339.12 337.61,338.97 339.30,339.09 340.40,339.37 341.42,339.87 342.29,340.59 342.97,341.50 343.23,342.01"/>
    </edge>
    <edge id=":202_0" function="internal">
        <lane id=":202_0_0" index="0" disallow="pedestrian tram rail_urban rail rail_electric rail_fast ship" speed="7.47" length="5.97" width="3.49" shape="336.03,358.13 334.10,357.57 331.51,357.11 330.18,357.06"/>
    </edge>
    <edge id=":202_1" function="internal">
        <lane id=":202_1_0" index="0" disallow="pedestrian tram rail_urban rail rail_electric rail_fast ship" speed="36.11" length="7.39" width="3.49" shape="336.40,352.91 332.83,354.61 329.73,356.09"/>
    </edge>
    <edge id=":203_0" function="internal">
        <lane id=":203_0_0" index="0" disallow="pedestrian tram rail_urban rail rail_electric rail_fast ship" speed="36.11" length="10.01" width="3.50" shape="322.88,359.34 316.02,362.59 313.84,363.63"/>
    </edge>
    <edge id=":203_1" function="internal">
        <lane id=":203_1_0" index="0" disallow="pedestrian tram rail_urban rail rail_electric rail_fast ship" speed="7.08" length="10.31" width="3.50" shape="322.76,359.07 321.19,359.49 319.47,359.68 317.74,359.55 316.63,359.21 315.62,358.65 314.76,357.88 314.07,356.95 313.77,356.44"/>
    </edge>
    <edge id=":203_2" function="internal">
        <lane id=":203_2_0" index="0" disallow="pedestrian tram rail_urban rail rail_electric rail_fast ship" speed="6.66" length="9.61" width="3.50" shape="316.87,354.78 317.30,355.91 317.42,357.05 317.25,358.18 316.82,359.24 315.86,360.67 314.24,362.30 313.48,362.87"/>
    </edge>
    <edge id=":204_0" function="internal">
        <lane id=":204_0_0" index="0" disallow="pedestrian tram rail_urban rail rail_electric rail_fast ship" speed="6.76" length="9.87" width="3.50" shape="313.69,356.28 313.24,355.18 313.06,354.06 313.15,352.93 313.48,351.85 314.33,350.37 315.44,349.08 316.85,347.84"/>
    </edge>
    <edge id=":204_1" function="internal">
        <lane id=":204_1_0" index="0" disallow="pedestrian tram rail_urban rail rail_electric rail_fast ship" speed="36.11" length="10.01" width="3.50" shape="307.49,351.44 311.81,349.36 316.51,347.11"/>
    </edge>
    <edge id=":204_2" function="internal">
        <lane id=":204_2_0" index="0" disallow="pedestrian tram rail_urban rail rail_electric rail_fast ship" speed="6.94" length="10.01" width="3.50" shape="307.86,352.21 309.32,351.89 311.58,351.73 313.28,351.94 314.35,352.30 315.33,352.88 316.15,353.67 316.77,354.62"/>
    </edge>
    <edge id=":205_0" function="internal">
        <lane id=":205_0_0" index="0" disallow="pedestrian tram rail_urban rail rail_electric rail_fast ship" speed="18.88" length="37.19" width="3.50" shape="411.57,407.82 410.61,404.96 409.31,402.23 407.70,399.66 405.83,397.23 403.75,394.96 401.50,392.83 398.27,390.19 394.86,387.78 390.38,385.01 385.75,382.51"/>
    </edge>
    <edge id=":205_1" function="internal">
        <lane id=":205_1_0" index="0" disallow="pedestrian tram rail_urban rail rail_electric rail_fast ship" speed="36.11" length="41.13" width="3.50" shape="411.57,407.82 410.59,403.65 409.65,398.43 408.86,392.14 408.28,384.79 407.97,376.40 407.97,366.97"/>
    </edge>
    <edge id=":205_2" function="internal">
        <lane id=":205_2_0" index="0" disallow="pedestrian tram rail_urban rail rail_electric rail_fast ship" speed="36.11" length="40.14" width="3.50" shape="411.47,367.03 411.47,376.28 411.76,384.51 412.33,391.70 413.10,397.83 414.00,402.89 414.95,406.90"/>
    </edge>
    <edge id=":205_3" function="internal">
        <lane id=":205_3_0" index="0" disallow="pedestrian tram rail_urban rail rail_electric rail_fast ship" speed="11.33" length="39.58" width="3.50" shape="411.47,367.03 411.22,371.32 410.79,374.23 410.07,377.09 409.55,378.54 408.91,379.95 408.11,381.31 407.13,382.60 405.96,383.75 404.61,384.73 403.12,385.47 401.55,385.96 399.95,386.23 398.37,386.29 396.83,386.21 395.30,385.98 392.44,385.28 389.67,384.30 385.75,382.51"/>
    </edge>
    <edge id=":205_4" function="internal">
        <lane id=":205_4_0" index="0" disallow="pedestrian tram rail_urban rail rail_electric rail_fast ship" speed="10.25" length="32.09" width="3.50" shape="387.33,379.39 390.70,380.93 393.03,381.75 395.43,382.34 396.65,382.52 397.88,382.59 399.12,382.54 400.33,382.34 401.51,381.97 402.62,381.42 403.62,380.70 404.49,379.83 405.24,378.85 405.86,377.78 406.38,376.66 406.79,375.50 407.39,373.10 407.75,370.66 407.97,366.97"/>
    </edge>
    <edge id=":205_5" function="internal">
        <lane id=":205_5_0" index="0" disallow="pedestrian tram rail_urban rail rail_electric rail_fast ship" speed="19.60" length="40.12" width="3.50" shape="387.33,379.39 392.23,382.04 396.97,384.98 400.59,387.57 404.03,390.40 406.45,392.71 408.69,395.20 410.71,397.86 412.46,400.71 413.89,403.73 414.95,406.90"/>
    </edge>
    <edge id=":206_0" function="internal">
        <lane id=":206_0_0" index="0" disallow="pedestrian tram rail_urban rail rail_electric rail_fast ship" speed="36.11" length="9.96" width="3.50" shape="394.25,323.62 386.87,327.34 385.36,328.10"/>
    </edge>
    <edge id=":206_1" function="internal">
        <lane id=":206_1_0" index="0" disallow="pedestrian tram rail_urban rail rail_electric rail_fast ship" speed="6.89" length="10.24" width="3.50" shape="394.21,323.52 393.23,323.92 391.44,324.34 390.22,324.41 389.01,324.24 387.88,323.78 386.91,323.05 386.14,322.10 385.55,321.01"/>
    </edge>
    <edge id=":206_2" function="internal">
        <lane id=":206_2_0" index="0" disallow="pedestrian tram rail_urban rail rail_electric rail_fast ship" speed="6.84" length="9.47" width="3.50" shape="388.72,319.53 389.07,320.66 389.11,321.78 388.86,322.88 388.09,324.37 387.03,325.68 385.38,327.21 385.03,327.46"/>
    </edge>
    <edge id=":207_0" function="internal">
        <lane id=":207_0_0" index="0" disallow="pedestrian tram rail_urban rail rail_electric rail_fast ship" speed="9.77" length="21.21" width="3.50" shape="405.74,298.41 406.18,296.68 406.38,294.96 406.29,292.64 405.87,290.36 404.99,287.60 409.49,296.70"/>
    </edge>
    <edge id=":207_1" function="internal">
        <lane id=":207_1_0" index="0" disallow="pedestrian tram rail_urban rail rail_electric rail_fast ship" speed="36.11" length="8.08" width="3.50" shape="407.70,302.26 414.92,298.63"/>
    </edge>
    <edge id=":208_0" function="internal">
        <lane id=":208_0_0" index="0" disallow="pedestrian tram rail_urban rail rail_electric rail_fast ship" speed="13.08" length="25.46" width="3.50" shape="417.82,314.82 417.35,315.45 416.04,317.79 414.78,320.75 413.69,324.34 412.82,328.55 412.24,333.34 411.96,338.70 411.95,339.23"/>
    </edge>
    <edge id=":208_1" function="internal">
        <lane id=":208_1_0" index="0" disallow="pedestrian tram rail_urban rail rail_electric rail_fast ship" speed="36.11" length="15.52" width="3.50" shape="416.80,312.71 410.06,315.96 402.82,319.46"/>
    </edge>
    <edge id=":208_2" function="internal">
        <lane id=":208_2_0" index="0" disallow="pedestrian tram rail_urban rail rail_electric rail_fast ship" speed="7.66" length="17.43" width="3.50" shape="408.45,339.19 408.37,334.52 408.05,331.21 407.56,328.59 406.99,326.68 406.17,324.86 405.43,323.75 404.51,322.80 404.41,322.73"/>
    </edge>
    <edge id=":209_0" function="internal">
        <lane id=":209_0_0" index="0" disallow="pedestrian tram rail_urban rail rail_electric rail_fast ship" speed="36.11" length="9.91" width="3.50" shape="397.12,271.31 392.72,262.43"/>
    </edge>
    <edge id=":209_1" function="internal">
        <lane id=":209_1_0" index="0" disallow="pedestrian tram rail_urban rail rail_electric rail_fast ship" speed="6.92" length="9.85" width="3.50" shape="398.00,270.88 397.67,269.38 397.51,267.17 397.69,265.51 398.02,264.45 398.56,263.49 399.32,262.67 400.24,262.06"/>
    </edge>
    <edge id=":209_2" function="internal">
        <lane id=":209_2_0" index="0" disallow="pedestrian tram rail_urban rail rail_electric rail_fast ship" speed="6.80" length="9.73" width="3.50" shape="401.92,265.13 400.82,265.57 399.71,265.73 398.59,265.61 397.53,265.26 396.07,264.42 394.38,262.94 393.57,261.99"/>
    </edge>
    <edge id=":210_0" function="internal">
        <lane id=":210_0_0" index="0" disallow="pedestrian tram rail_urban rail rail_electric rail_fast ship" speed="3.67" length="1.97" width="3.50" shape="426.43,288.31 426.85,288.55 428.24,289.09"/>
    </edge>
    <edge id=":210_1" function="internal">
        <lane id=":210_1_0" index="0" disallow="pedestrian tram rail_urban rail rail_electric rail_fast ship" speed="36.11" length="8.07" width="3.50" shape="422.24,295.11 429.53,291.66"/>
    </edge>
    <edge id=":211_0" function="internal">
        <lane id=":211_0_0" index="0" disallow="pedestrian tram rail_urban rail rail_electric rail_fast ship" speed="36.11" length="12.68" width="3.50" shape="257.86,382.95 255.59,377.44 253.04,371.22"/>
    </edge>
    <edge id=":211_1" function="internal">
        <lane id=":211_1_0" index="0" disallow="pedestrian tram rail_urban rail rail_electric rail_fast ship" speed="7.78" length="12.63" width="3.50" shape="257.86,382.95 257.52,381.85 257.45,380.73 257.64,379.62 258.06,378.58 258.97,377.16 260.51,375.53 262.72,373.78 263.87,373.06"/>
    </edge>
    <edge id=":211_2" function="internal">
        <lane id=":211_2_0" index="0" disallow="pedestrian tram rail_urban rail rail_electric rail_fast ship" speed="6.32" length="8.78" width="3.50" shape="256.28,369.89 257.17,371.67 257.58,372.09 258.05,372.42 259.13,372.83 260.29,372.96 262.02,372.80 263.54,372.40"/>
    </edge>
    <edge id=":211_3" function="internal">
        <lane id=":211_3_0" index="0" disallow="pedestrian tram rail_urban rail rail_electric rail_fast ship" speed="36.11" length="12.62" width="3.50" shape="256.28,369.89 258.83,376.11 261.07,381.57"/>
    </edge>
    <edge id=":211_4" function="internal">
        <lane id=":211_4_0" index="0" disallow="pedestrian tram rail_urban rail rail_electric rail_fast ship" speed="6.90" length="9.86" width="3.50" shape="249.99,379.32 250.93,378.81 252.37,377.66 253.14,376.69 253.64,375.57 253.83,374.36 253.70,373.14 253.04,371.22"/>
    </edge>
    <edge id=":211_5" function="internal">
        <lane id=":211_5_0" index="0" disallow="pedestrian tram rail_urban rail rail_electric rail_fast ship" speed="36.11" length="15.23" width="3.50" shape="250.00,379.36 263.53,372.87 263.73,372.78"/>
    </edge>
    <edge id=":211_6" function="internal">
        <lane id=":211_6_0" index="0" disallow="pedestrian tram rail_urban rail rail_electric rail_fast ship" speed="7.59" length="12.79" width="3.50" shape="250.03,379.41 252.06,378.62 254.35,378.07 256.12,377.98 257.28,378.14 258.39,378.54 259.38,379.18 260.20,380.03 260.82,381.03 261.07,381.57"/>
    </edge>
    <edge id=":212_0" function="internal">
        <lane id=":212_0_0" index="0" disallow="pedestrian tram rail_urban rail rail_electric rail_fast ship" speed="36.11" length="9.83" width="3.50" shape="224.92,404.80 221.04,406.59 216.07,409.07"/>
    </edge>
    <edge id=":212_1" function="internal">
        <lane id=":212_1_0" index="0" disallow="pedestrian tram rail_urban rail rail_electric rail_fast ship" speed="6.95" length="9.44" width="3.50" shape="224.64,404.18 221.84,404.67 220.19,404.70 218.56,404.42 217.55,403.98 216.69,403.31 216.04,402.42"/>
    </edge>
    <edge id=":212_2" function="internal">
        <lane id=":212_2_0" index="0" disallow="pedestrian tram rail_urban rail rail_electric rail_fast ship" speed="6.65" length="9.29" width="3.50" shape="219.07,400.65 219.52,401.80 219.62,402.93 219.39,404.05 218.91,405.09 217.89,406.47 216.25,408.06 215.74,408.44"/>
    </edge>
    <edge id=":213_0" function="internal">
        <lane id=":213_0_0" index="0" disallow="pedestrian tram rail_urban rail rail_electric rail_fast ship" speed="7.23" length="10.01" width="3.50" shape="263.67,394.38 262.00,391.82 261.59,391.47 260.59,391.04 259.51,390.89 257.88,391.00 255.34,391.57"/>
    </edge>
    <edge id=":213_1" function="internal">
        <lane id=":213_1_0" index="0" disallow="pedestrian tram rail_urban rail rail_electric rail_fast ship" speed="36.11" length="12.62" width="3.50" shape="263.67,394.38 260.24,388.28 257.94,383.15"/>
    </edge>
    <edge id=":213_2" function="internal">
        <lane id=":213_2_0" index="0" disallow="pedestrian tram rail_urban rail rail_electric rail_fast ship" speed="6.48" length="9.62" width="3.50" shape="268.94,385.07 268.71,385.19 266.83,386.53 265.64,387.78 265.12,388.80 265.04,389.37 265.12,389.94 266.66,392.55"/>
    </edge>
    <edge id=":213_3" function="internal">
        <lane id=":213_3_0" index="0" disallow="pedestrian tram rail_urban rail rail_electric rail_fast ship" speed="36.11" length="15.06" width="3.50" shape="268.86,384.90 257.06,390.42 255.20,391.25"/>
    </edge>
    <edge id=":213_4" function="internal">
        <lane id=":213_4_0" index="0" disallow="pedestrian tram rail_urban rail rail_electric rail_fast ship" speed="7.41" length="12.30" width="3.50" shape="268.82,384.82 268.59,384.91 265.86,385.78 263.59,386.16 261.87,386.12 260.75,385.86 259.72,385.36 258.85,384.61 258.20,383.67 257.94,383.15"/>
    </edge>
    <edge id=":213_5" function="internal">
        <lane id=":213_5_0" index="0" disallow="pedestrian tram rail_urban rail rail_electric rail_fast ship" speed="36.11" length="12.13" width="3.50" shape="261.15,381.76 263.37,386.71 266.66,392.55"/>
    </edge>
    <edge id=":213_6" function="internal">
        <lane id=":213_6_0" index="0" disallow="pedestrian tram rail_urban rail rail_electric rail_fast ship" speed="7.54" length="12.11" width="3.50" shape="261.16,381.76 261.49,382.89 261.52,384.02 261.25,385.13 260.76,386.15 259.72,387.51 258.04,389.05 255.69,390.67 255.09,391.00"/>
    </edge>
    <edge id=":214_0" function="internal">
        <lane id=":214_0_0" index="0" disallow="pedestrian tram rail_urban rail rail_electric rail_fast ship" speed="11.44" length="28.55" width="3.50" shape="221.48,267.13 221.27,265.99 220.43,262.64 219.68,260.55 218.73,258.55 217.58,256.72 216.17,255.06 215.43,254.36 214.60,253.70 213.73,253.11 212.84,252.61 210.84,251.79 208.74,251.27 206.56,251.01 204.34,250.97 202.08,251.14"/>
    </edge>
    <edge id=":214_1" function="internal">
        <lane id=":214_1_0" index="0" disallow="pedestrian tram rail_urban rail rail_electric rail_fast ship" speed="36.11" length="43.40" width="3.50" shape="221.48,267.13 220.68,261.95 218.86,247.61 216.37,224.04"/>
    </edge>
    <edge id=":214_2" function="internal">
        <lane id=":214_2_0" index="0" disallow="pedestrian tram rail_urban rail rail_electric rail_fast ship" speed="15.06" length="40.79" width="3.50" shape="221.48,267.13 221.08,263.51 221.05,261.11 221.24,258.73 221.66,256.37 222.31,254.06 223.19,251.83 224.28,249.69 225.56,247.67 227.80,244.86 230.35,242.32 233.13,240.04 236.08,238.00 240.22,235.58 241.29,235.03"/>
    </edge>
    <edge id=":214_3" function="internal">
        <lane id=":214_3_0" index="0" disallow="pedestrian tram rail_urban rail rail_electric rail_fast ship" speed="14.22" length="36.32" width="3.50" shape="242.88,238.15 241.92,238.64 238.10,240.86 235.41,242.72 232.89,244.76 230.60,247.02 228.59,249.51 227.45,251.27 226.48,253.12 225.70,255.06 225.12,257.07 224.74,259.13 224.56,261.22 224.57,263.31 224.93,266.53"/>
    </edge>
    <edge id=":214_4" function="internal">
        <lane id=":214_4_0" index="0" disallow="pedestrian tram rail_urban rail rail_electric rail_fast ship" speed="36.11" length="43.04" width="3.50" shape="242.88,238.15 238.17,240.44 231.47,243.38 225.59,245.62 219.59,247.56 213.50,249.17 207.31,250.41 202.08,251.14"/>
    </edge>
    <edge id=":214_5" function="internal">
        <lane id=":214_5_0" index="0" disallow="pedestrian tram rail_urban rail rail_electric rail_fast ship" speed="11.37" length="38.31" width="3.50" shape="242.88,238.15 239.07,239.88 236.38,240.83 233.60,241.50 232.12,241.72 230.63,241.81 229.11,241.77 227.58,241.55 226.06,241.14 224.60,240.52 223.24,239.69 222.02,238.69 220.95,237.55 220.04,236.32 219.27,235.02 218.62,233.66 217.65,230.96 216.97,228.18 216.37,224.04"/>
    </edge>
    <edge id=":214_6" function="internal">
        <lane id=":214_6_0" index="0" disallow="pedestrian tram rail_urban rail rail_electric rail_fast ship" speed="10.31" length="31.20" width="3.50" shape="219.85,223.69 220.37,227.25 220.94,229.58 221.75,231.84 222.27,232.92 222.89,233.96 223.60,234.92 224.42,235.79 225.35,236.55 226.38,237.17 227.48,237.64 228.64,237.95 229.83,238.11 231.03,238.14 232.23,238.06 233.42,237.89 235.75,237.32 238.01,236.52 241.29,235.03"/>
    </edge>
    <edge id=":214_7" function="internal">
        <lane id=":214_7_0" index="0" disallow="pedestrian tram rail_urban rail rail_electric rail_fast ship" speed="36.11" length="43.15" width="3.50" shape="219.85,223.69 222.33,247.17 224.14,261.43 224.93,266.53"/>
    </edge>
    <edge id=":214_8" function="internal">
        <lane id=":214_8_0" index="0" disallow="pedestrian tram rail_urban rail rail_electric rail_fast ship" speed="12.81" length="37.28" width="3.50" shape="219.85,223.69 220.10,227.54 220.05,231.39 219.81,233.95 219.36,236.48 218.66,238.96 217.68,241.34 216.38,243.55 215.61,244.58 214.76,245.55 213.84,246.44 212.84,247.26 210.68,248.64 208.34,249.70 205.88,250.46 203.36,250.97 202.08,251.14"/>
    </edge>
    <edge id=":214_9" function="internal">
        <lane id=":214_9_0" index="0" disallow="pedestrian tram rail_urban rail rail_electric rail_fast ship" speed="11.85" length="31.75" width="3.50" shape="201.69,247.66 202.78,247.52 204.96,247.08 207.03,246.43 208.97,245.53 210.76,244.35 211.53,243.69 212.28,242.95 212.96,242.15 213.56,241.33 214.62,239.45 215.42,237.44 215.99,235.32 216.36,233.13 216.56,230.90 216.60,227.47 216.37,224.04"/>
    </edge>
    <edge id=":214_10" function="internal">
        <lane id=":214_10_0" index="0" disallow="pedestrian tram rail_urban rail rail_electric rail_fast ship" speed="36.11" length="41.79" width="3.50" shape="201.69,247.66 206.75,246.95 212.74,245.75 218.65,244.19 224.47,242.30 230.18,240.13 236.71,237.26 241.29,235.03"/>
    </edge>
    <edge id=":214_11" function="internal">
        <lane id=":214_11_0" index="0" disallow="pedestrian tram rail_urban rail rail_electric rail_fast ship" speed="12.43" length="33.90" width="3.50" shape="201.69,247.66 204.30,247.47 206.91,247.51 209.49,247.81 212.02,248.43 214.43,249.41 215.57,250.04 216.66,250.76 217.68,251.57 218.64,252.45 220.32,254.44 221.72,256.63 222.84,258.98 223.73,261.43 224.69,265.22 224.93,266.53"/>
    </edge>
    <edge id=":215_0" function="internal">