<routes>
	<vehicle depart="0.1" departLane="0" departPos="2.5" departSpeed="1.953016e-07" id="31" type="passenger">
		<route edges=":210_1 85132"/>
	</vehicle>
	<vehicle depart="0.1" departLane="0" departPos="20.51553176409118" departSpeed="0.0" id="32" type="passenger">
		<route edges=":220_2 85979"/>
	</vehicle>
	<vehicle depart="0.1" departLane="0" departPos="2.5" departSpeed="3.4002288" id="315" type="passenger">
		<route edges=":200_0 85128 83948"/>
	</vehicle>
	<vehicle depart="0.1" departLane="0" departPos="10.024338617547183" departSpeed="3.3078585" id="317" type="passenger">
		<route edges=":208_2 85981"/>
	</vehicle>
	<vehicle depart="0.1" departLane="0" departPos="15.879164208059358" departSpeed="2.2803172" id="340" type="passenger">
		<route edges="85185 85981"/>
	</vehicle>
	<vehicle depart="0.1" departLane="0" departPos="11.43735297694233" departSpeed="0.0" id="348" type="passenger">
		<route edges=":210_0 85132"/>
	</vehicle>
	<vehicle depart="0.1" departLane="0" departPos="13.387330238592018" departSpeed="2.9834977" id="349" type="passenger">
		<route edges=":207_1 85130"/>
	</vehicle>
	<vehicle depart="0.1" departLane="0" departPos="2.5" departSpeed="0.0021531793" id="353" type="passenger">
		<route edges=":210_0 85132"/>
	</vehicle>
	<vehicle depart="0.1" departLane="0" departPos="13.093055508038951" departSpeed="7.5752211" id="381" type="passenger">
		<route edges=":205_4 85185"/>
	</vehicle>
	<vehicle depart="0.1" departLane="0" departPos="10.365257210493766" departSpeed="0.31521632" id="30" type="truck">
		<route edges=":217_2 83913"/>
	</vehicle>
</routes>
