<routes>
	<vehicle depart="0.1" departLane="0" departPos="38.763262092344874" departSpeed="1.3133378" id="31" type="passenger">
		<route edges=":24_5 2478"/>
	</vehicle>
	<vehicle depart="0.1" departLane="0" departPos="10.760502356405645" departSpeed="0.0" id="32" type="passenger">
		<route edges=":24_4 1753"/>
	</vehicle>
	<vehicle depart="0.1" departLane="0" departPos="8.716749772057032" departSpeed="0.20819326" id="35" type="passenger">
		<route edges=":24_5 2478"/>
	</vehicle>
	<vehicle depart="0.1" departLane="0" departPos="2.5" departSpeed="0.0" id="36" type="passenger">
		<route edges=":24_4 1753"/>
	</vehicle>
	<vehicle depart="0.1" departLane="0" departPos="32.806541706406094" departSpeed="0.66586276" id="37" type="passenger">
		<route edges="3555"/>
	</vehicle>
	<vehicle depart="0.1" departLane="0" departPos="18.261984000444524" departSpeed="0.0" id="310" type="passenger">
		<route edges=":24_4 1753"/>
	</vehicle>
	<vehicle depart="0.1" departLane="0" departPos="19.745478827953228" departSpeed="0.99854047" id="314" type="passenger">
		<route edges="3983 1755"/>
	</vehicle>
	<vehicle depart="0.1" departLane="0" departPos="49.0542135150313" departSpeed="7.9219625" id="324" type="passenger">
		<route edges=":24_8 1753 3808"/>
	</vehicle>
	<vehicle depart="0.1" departLane="0" departPos="12.01365279565461" departSpeed="5.5111144" id="333" type="passenger">
		<route edges="1755 2478"/>
	</vehicle>
	<vehicle depart="0.1" departLane="1" departPos="6.2048168206598175" departSpeed="0.12645798" id="34" type="motorcycle">
		<route edges="1755 2047"/>
	</vehicle>
</routes>
