<routes>
	<vehicle depart="0.1" departLane="0" departPos="0" departSpeed="0.0" id="33" type="passenger">
		<route edges="61"/>
	</vehicle>
	<vehicle depart="0.1" departLane="0" departPos="54.70479842033603" departSpeed="9.8351" id="35" type="passenger">
		<route edges="67 61"/>
	</vehicle>
	<vehicle depart="0.1" departLane="0" departPos="55.83206494800381" departSpeed="25.8179" id="39" type="passenger">
		<route edges="61"/>
	</vehicle>
	<vehicle depart="0.1" departLane="0" departPos="12.731295179143338" departSpeed="20.4892" id="310" type="passenger">
		<route edges="62 56 67 61"/>
	</vehicle>
	<vehicle depart="0.1" departLane="1" departPos="46.1758142351827" departSpeed="31.2806" id="311" type="passenger">
		<route edges="61"/>
	</vehicle>
	<vehicle depart="0.1" departLane="0" departPos="65.20866230430515" departSpeed="24.0268" id="312" type="passenger">
		<route edges="68 61"/>
	</vehicle>
	<vehicle depart="0.1" departLane="0" departPos="119.30448029091701" departSpeed="23.3352" id="313" type="passenger">
		<route edges="59 62 56 67 61"/>
	</vehicle>
	<vehicle depart="0.1" departLane="0" departPos="0" departSpeed="24.6566" id="314" type="passenger">
		<route edges="59 62 56 67 61"/>
	</vehicle>
	<vehicle depart="0.1" departLane="1" departPos="39.11128242664847" departSpeed="21.5581" id="315" type="passenger">
		<route edges="68 61"/>
	</vehicle>
	<vehicle depart="0.1" departLane="1" departPos="168.56400582092212" departSpeed="24.0085" id="316" type="passenger">
		<route edges="58 66 68 61"/>
	</vehicle>
	<vehicle depart="0.1" departLane="0" departPos="0" departSpeed="16.4576" id="317" type="passenger">
		<route edges="68 61"/>
	</vehicle>
	<vehicle depart="0.1" departLane="0" departPos="0" departSpeed="20.5345" id="318" type="passenger">
		<route edges="59 62 56 67 61"/>
	</vehicle>
	<vehicle depart="0.1" departLane="0" departPos="130.7589798610269" departSpeed="22.3107" id="319" type="passenger">
		<route edges="58 66 55 68 61"/>
	</vehicle>
	<vehicle depart="0.1" departLane="1" departPos="103.53203427090708" departSpeed="19.7579" id="320" type="passenger">
		<route edges="58 66 68 61"/>
	</vehicle>
	<vehicle depart="0.1" departLane="0" departPos="102.98329418577168" departSpeed="19.6912" id="321" type="passenger">
		<route edges="58 66 55 68 61"/>
	</vehicle>
	<vehicle depart="0.1" departLane="0" departPos="68.69710141592581" departSpeed="14.6869" id="323" type="passenger">
		<route edges="53 65 59 62 56 67 61"/>
	</vehicle>
	<vehicle depart="0.1" departLane="0" departPos="0" departSpeed="7.8079" id="325" type="passenger">
		<route edges="53 65 59 62 56 67 61"/>
	</vehicle>
</routes>
