<!-- generated on 2020-12-18 16:22:50.247260 by ipykernel_launcher.py v1_2_0+5214-53edc58fcd
-->
<nodes>
	<node id="1" type="from" x="158.7366" y="467.5413"/>
	<node id="2" type="to" x="111.34425" y="417.80944999999997"/>
	<node id="3" type="from" x="-41.672450000000005" y="265.4501"/>
	<node id="4" type="to" x="-41.87842499999999" y="265.347"/>
	<node id="5" type="from" x="-35.1048" y="286.4404"/>
	<node id="6" type="to" x="-42.9748" y="279.82955"/>
	<node id="7" type="from" x="170.0802" y="414.70664999999997"/>
	<node id="8" type="to" x="-24.508575" y="276.690225"/>
	<node id="9" type="from" x="94.25925000000001" y="401.26995"/>
	<node id="10" type="to" x="-17.11345" y="302.01265"/>
	<node id="11" type="from" x="-97.84440000000001" y="232.979925"/>
	<node id="12" type="to" x="-149.6865" y="163.6898"/>
</nodes>
