<!-- generated on Wed Feb 10 12:30:45 2021 by Eclipse SUMO netconvert Version 1.8.0
<configuration xmlns:xsi="http://www.w3.org/2001/XMLSchema-instance" xsi:noNamespaceSchemaLocation="http://sumo.dlr.de/xsd/netconvertConfiguration.xsd">

    <input>
        <node-files value="./converted_scenarios/SUMO/DEU_Flensburg-92_1_I-1-1/DEU_Flensburg-92_1_I-1-1.nod.xml"/>
        <edge-files value="./converted_scenarios/SUMO/DEU_Flensburg-92_1_I-1-1/DEU_Flensburg-92_1_I-1-1.edg.xml"/>
        <connection-files value="./converted_scenarios/SUMO/DEU_Flensburg-92_1_I-1-1/DEU_Flensburg-92_1_I-1-1.con.xml"/>
        <tllogic-files value="./converted_scenarios/SUMO/DEU_Flensburg-92_1_I-1-1/DEU_Flensburg-92_1_I-1-1.tll.xml"/>
        <type-files value="/home/zen/commonroad-interactive-benchmarks/install/commonroad-map-tool/crmapconverter/sumo_map/templates/DEU.typ.xml"/>
    </input>

    <output>
        <output-file value="./converted_scenarios/SUMO/DEU_Flensburg-92_1_I-1-1/DEU_Flensburg-92_1_I-1-1.net.xml"/>
    </output>

    <processing>
        <geometry.remove.keep-edges.explicit value="true"/>
        <geometry.avoid-overlap value="true"/>
        <offset.disable-normalization value="true"/>
    </processing>

    <junctions>
        <no-turnarounds value="true"/>
        <junctions.internal-link-detail value="20"/>
    </junctions>

    <report>
        <aggregate-warnings value="5"/>
    </report>

    <random_number>
        <seed value="1234"/>
    </random_number>

</configuration>
--><net xmlns:xsi="http://www.w3.org/2001/XMLSchema-instance" version="1.6" junctionCornerDetail="5" junctionLinkDetail="20" limitTurnSpeed="5.50" xsi:noNamespaceSchemaLocation="http://sumo.dlr.de/xsd/net_file.xsd">

    <location netOffset="0.00,0.00" convBoundary="-48.54,133.37,100.86,361.95" origBoundary="-48.54,130.74,100.86,361.95" projParameter="!"/>

    <type id="highway.bridleway" priority="1" speed="2.78" allow="pedestrian" oneway="1" width="2.00"/>
    <type id="highway.bus_guideway" priority="1" speed="27.78" allow="bus" oneway="1"/>
    <type id="highway.cycleway" priority="1" speed="8.33" allow="bicycle" oneway="0" width="1.00"/>
    <type id="highway.footway" priority="1" speed="2.78" allow="pedestrian" oneway="1" width="2.00"/>
    <type id="highway.ford" priority="1" speed="2.78" allow="army" oneway="0"/>
    <type id="highway.living_street" priority="2" speed="2.78" disallow="tram rail_urban rail rail_electric rail_fast ship" oneway="0"/>
    <type id="highway.motorway" priority="14" speed="39.44" allow="private emergency authority army vip passenger hov taxi bus coach delivery truck trailer motorcycle evehicle custom1 custom2" oneway="1"/>
    <type id="highway.motorway_link" priority="9" speed="22.22" allow="private emergency authority army vip passenger hov taxi bus coach delivery truck trailer motorcycle evehicle custom1 custom2" oneway="1"/>
    <type id="highway.path" priority="1" speed="2.78" allow="pedestrian bicycle" oneway="0" width="2.00"/>
    <type id="highway.pedestrian" priority="1" speed="2.78" allow="pedestrian" oneway="1" width="2.00"/>
    <type id="highway.primary" priority="12" speed="27.78" disallow="pedestrian tram rail_urban rail rail_electric rail_fast ship" oneway="0"/>
    <type id="highway.primary_link" priority="7" speed="22.22" disallow="pedestrian tram rail_urban rail rail_electric rail_fast ship" oneway="0"/>
    <type id="highway.raceway" priority="15" speed="83.33" allow="vip" oneway="0"/>
    <type id="highway.residential" priority="3" speed="13.89" disallow="pedestrian tram rail_urban rail rail_electric rail_fast ship" oneway="0"/>
    <type id="highway.secondary" priority="11" speed="27.78" disallow="pedestrian tram rail_urban rail rail_electric rail_fast ship" oneway="0"/>
    <type id="highway.secondary_link" priority="6" speed="22.22" disallow="pedestrian tram rail_urban rail rail_electric rail_fast ship" oneway="0"/>
    <type id="highway.service" priority="1" speed="5.56" allow="pedestrian delivery bicycle" oneway="0"/>
    <type id="highway.stairs" priority="1" speed="1.39" allow="pedestrian" oneway="1" width="2.00"/>
    <type id="highway.step" priority="1" speed="1.39" allow="pedestrian" oneway="1" width="2.00"/>
    <type id="highway.steps" priority="1" speed="1.39" allow="pedestrian" oneway="1" width="2.00"/>
    <type id="highway.tertiary" priority="10" speed="22.22" disallow="pedestrian tram rail_urban rail rail_electric rail_fast ship" oneway="0"/>
    <type id="highway.tertiary_link" priority="5" speed="22.22" disallow="pedestrian tram rail_urban rail rail_electric rail_fast ship" oneway="0"/>
    <type id="highway.track" priority="1" speed="5.56" allow="pedestrian motorcycle moped bicycle" oneway="0"/>
    <type id="highway.trunk" priority="13" speed="27.78" disallow="pedestrian bicycle tram rail_urban rail rail_electric rail_fast ship" oneway="0"/>
    <type id="highway.trunk_link" priority="8" speed="22.22" disallow="pedestrian bicycle tram rail_urban rail rail_electric rail_fast ship" oneway="0"/>
    <type id="highway.unclassified" priority="4" speed="13.89" disallow="pedestrian tram rail_urban rail rail_electric rail_fast ship" oneway="0"/>
    <type id="highway.unsurfaced" priority="1" speed="8.33" disallow="tram rail_urban rail rail_electric rail_fast ship" oneway="0"/>
    <type id="railway.highspeed" priority="21" speed="69.44" allow="rail_fast" oneway="1"/>
    <type id="railway.light_rail" priority="19" speed="27.78" allow="rail_urban" oneway="1"/>
    <type id="railway.preserved" priority="16" speed="27.78" allow="rail" oneway="1"/>
    <type id="railway.rail" priority="20" speed="44.44" allow="rail" oneway="1"/>
    <type id="railway.subway" priority="18" speed="27.78" allow="rail_urban" oneway="1"/>
    <type id="railway.tram" priority="17" speed="13.89" allow="tram" oneway="1"/>

    <edge id=":17_0" function="internal">
        <lane id=":17_0_0" index="0" disallow="pedestrian tram rail_urban rail rail_electric rail_fast ship" speed="36.11" length="19.73" width="3.50" shape="40.69,132.22 26.90,131.23 21.00,130.91"/>
    </edge>
    <edge id=":17_1" function="internal">
        <lane id=":17_1_0" index="0" disallow="pedestrian tram rail_urban rail rail_electric rail_fast ship" speed="6.33" length="9.24" width="3.50" shape="26.12,136.96 26.20,135.82 26.09,134.60 25.73,133.44 25.06,132.42 24.10,131.66 22.97,131.20 21.76,130.97 21.00,130.91"/>
    </edge>
    <edge id=":18_0" function="internal">
        <lane id=":18_0_0" index="0" disallow="pedestrian tram rail_urban rail rail_electric rail_fast ship" speed="36.11" length="15.16" width="3.49" shape="10.47,289.27 13.04,290.46 16.36,292.15 17.87,292.65 19.46,292.85 24.86,292.59"/>
    </edge>
    <edge id=":18_1" function="internal">
        <lane id=":18_1_0" index="0" disallow="pedestrian tram rail_urban rail rail_electric rail_fast ship" speed="6.51" length="8.31" width="3.50" shape="13.01,299.28 13.07,298.94 13.04,297.24 12.82,296.12 12.39,295.08 11.74,294.15 10.89,293.39 9.91,292.81 9.37,292.58"/>
    </edge>
    <edge id=":18_2" function="internal">
        <lane id=":18_2_0" index="0" disallow="pedestrian tram rail_urban rail rail_electric rail_fast ship" speed="8.80" length="14.64" width="3.49" shape="13.27,299.34 13.36,299.05 14.31,297.04 15.28,295.68 16.48,294.52 17.88,293.62 19.44,293.01 24.86,292.59"/>
    </edge>
    <edge id=":19_0" function="internal">
        <lane id=":19_0_0" index="0" disallow="pedestrian tram rail_urban rail rail_electric rail_fast ship" speed="6.95" length="10.77" width="3.50" shape="-18.10,288.04 -19.79,287.70 -20.85,287.28 -21.81,286.66 -22.61,285.85 -23.22,284.88 -23.62,283.81 -23.90,282.11 -23.88,280.50"/>
    </edge>
    <edge id=":19_1" function="internal">
        <lane id=":19_1_0" index="0" disallow="pedestrian tram rail_urban rail rail_electric rail_fast ship" speed="36.11" length="11.88" width="3.50" shape="-26.00,292.20 -24.90,285.69 -24.03,280.48"/>
    </edge>
    <edge id=":19_2" function="internal">
        <lane id=":19_2_0" index="0" disallow="pedestrian tram rail_urban rail rail_electric rail_fast ship" speed="7.74" length="12.63" width="3.50" shape="-25.96,292.20 -25.62,290.65 -25.04,289.00 -24.23,287.47 -23.13,286.13 -22.21,285.42 -21.17,284.92 -20.05,284.61 -18.31,284.51 -17.70,284.56"/>
    </edge>

    <edge id="1" from="13" to="19" priority="3" type="highway.residential" spreadType="center" length="70.73">
        <lane id="1_0" index="0" disallow="pedestrian tram rail_urban rail rail_electric rail_fast ship" speed="36.11" length="70.73" width="3.50" customShape="1" shape="-37.70,361.95 -35.66,349.13 -29.29,312.26 -26.00,292.20"/>
    </edge>
    <edge id="12" from="16" to="17" priority="3" type="highway.residential" spreadType="center" length="62.04">
        <lane id="12_0" index="0" disallow="pedestrian tram rail_urban rail rail_electric rail_fast ship" speed="36.11" length="62.04" width="3.50" customShape="1" shape="100.86,146.64 95.71,145.04 80.82,140.01 73.97,138.07 66.57,136.39 52.59,133.81 44.04,132.56 40.69,132.22"/>
    </edge>
    <edge id="14" from="17" to="3" priority="3" type="highway.residential" spreadType="center" length="70.00">
        <lane id="14_0" index="0" disallow="pedestrian tram rail_urban rail rail_electric rail_fast ship" speed="36.11" length="70.00" width="3.50" customShape="1" shape="21.04,130.92 12.43,130.74 4.76,130.88 -5.86,131.66 -18.38,132.95 -31.35,134.68 -48.28,137.31 -48.54,137.37"/>
    </edge>
    <edge id="3" from="19" to="17" priority="3" type="highway.residential" spreadType="center" length="152.66">
        <lane id="3_0" index="0" disallow="pedestrian tram rail_urban rail rail_electric rail_fast ship" speed="36.11" length="152.66" width="3.50" customShape="1" shape="-24.03,280.48 -21.34,264.52 -19.76,257.10 -17.71,249.30 -15.02,240.67 -10.66,228.34 -6.96,218.99 -2.14,207.94 12.06,177.41 16.62,166.80 20.06,157.89 22.81,149.80 25.05,142.08 26.00,138.15 26.18,136.97"/>
    </edge>
    <edge id="381" from="9" to="18" priority="3" type="highway.residential" spreadType="center" length="14.88">
        <lane id="381_0" index="0" disallow="pedestrian tram rail_urban rail rail_electric rail_fast ship" speed="36.11" length="14.88" width="3.49" customShape="1" shape="10.75,314.00 11.90,305.88 12.60,301.70 13.15,299.32"/>
    </edge>
    <edge id="383" from="18" to="12" priority="3" type="highway.residential" spreadType="center" length="51.58">
        <lane id="383_0" index="0" disallow="pedestrian tram rail_urban rail rail_electric rail_fast ship" speed="36.11" length="51.58" width="3.49" customShape="1" shape="24.86,292.59 26.63,292.64 30.18,292.99 35.19,293.92 42.18,295.38 45.72,295.84 48.78,295.93 51.37,295.72 52.93,295.20 55.48,293.88 56.39,293.11 57.30,291.79 58.47,288.86 59.79,284.45 60.99,278.96 61.72,274.94"/>
    </edge>
    <edge id="5" from="18" to="19" priority="3" type="highway.residential" spreadType="center" length="27.91" shape="12.92,295.67 -21.88,287.68">
        <lane id="5_0" index="0" disallow="pedestrian tram rail_urban rail rail_electric rail_fast ship" speed="36.11" length="27.91" width="3.50" customShape="1" shape="9.37,292.58 7.54,291.98 1.66,290.65 -5.18,289.53 -18.12,288.04"/>
    </edge>
    <edge id="6" from="19" to="18" priority="3" type="highway.residential" spreadType="center" length="28.61" shape="-21.10,284.28 13.70,292.26">
        <lane id="6_0" index="0" disallow="pedestrian tram rail_urban rail rail_electric rail_fast ship" speed="36.11" length="28.61" width="3.50" customShape="1" shape="-17.70,284.56 -4.69,286.06 2.34,287.22 8.50,288.61 10.47,289.27"/>
    </edge>

    <junction id="12" type="dead_end" x="61.72" y="274.94" incLanes="383_0" intLanes="" shape="60.00,274.63 63.44,275.26" rightOfWay="edgePriority"/>
    <junction id="13" type="dead_end" x="-37.70" y="361.95" incLanes="" intLanes="" shape="-35.97,362.22 -39.43,361.67" rightOfWay="edgePriority"/>
    <junction id="16" type="dead_end" x="100.86" y="146.64" incLanes="" intLanes="" shape="101.38,144.96 100.35,148.31" rightOfWay="edgePriority"/>
    <junction id="17" type="priority" x="26.62" y="133.37" incLanes="12_0 3_0" intLanes=":17_0_0 :17_1_0" shape="40.57,133.97 40.81,130.48 21.03,129.17 20.96,132.67 23.17,133.15 23.88,133.72 24.33,134.50 24.52,135.49 24.45,136.70 27.90,137.23 29.61,134.89 31.41,134.19 33.83,133.80 36.89,133.73">
        <request index="0" response="10" foes="10" cont="0"/>
        <request index="1" response="00" foes="01" cont="0"/>
    </junction>
    <junction id="18" type="priority" x="13.31" y="293.96" incLanes="6_0 381_0" intLanes=":18_0_0 :18_1_0 :18_2_0" shape="25.06,294.35 24.66,290.84 21.68,290.68 19.49,290.40 17.71,289.98 15.95,289.38 13.85,288.60 11.02,287.61 8.81,294.24 10.65,295.27 11.20,295.99 11.52,296.83 11.61,297.81 11.45,298.92 14.85,299.71 16.57,296.62 18.06,295.56 19.97,294.83 22.31,294.42">
        <request index="0" response="000" foes="100" cont="0"/>
        <request index="1" response="000" foes="000" cont="0"/>
        <request index="2" response="001" foes="001" cont="0"/>
    </junction>
    <junction id="19" type="priority" x="-21.41" y="286.00" incLanes="5_0 1_0" intLanes=":19_0_0 :19_1_0 :19_2_0" shape="-18.30,289.78 -17.50,282.83 -20.28,282.34 -21.23,282.02 -21.88,281.65 -22.24,281.23 -22.30,280.77 -25.75,280.18 -27.73,291.91 -24.27,292.48 -23.37,290.70 -22.51,290.14 -21.38,289.80 -19.98,289.68">
        <request index="0" response="110" foes="110" cont="0"/>
        <request index="1" response="000" foes="001" cont="0"/>
        <request index="2" response="000" foes="001" cont="0"/>
    </junction>
    <junction id="3" type="dead_end" x="-48.54" y="137.37" incLanes="14_0" intLanes="" shape="-48.16,139.08 -48.92,135.66" rightOfWay="edgePriority"/>
    <junction id="9" type="dead_end" x="10.75" y="314.00" incLanes="" intLanes="" shape="12.48,314.24 9.02,313.76" rightOfWay="edgePriority"/>

    <connection from="1" to="3" fromLane="0" toLane="0" contPos="-4.00" shape="-26.12,292.91 -24.90,285.69 -23.69,278.47" via=":19_1_0" dir="s" state="M"/>
    <connection from="1" to="6" fromLane="0" toLane="0" contPos="-4.00" shape="-26.12,292.91 -25.62,290.65 -25.04,289.00 -24.23,287.47 -23.13,286.13 -22.21,285.42 -21.17,284.92 -20.05,284.61 -18.31,284.51 -17.70,284.56" via=":19_2_0" dir="l" state="M"/>
    <connection from="12" to="14" fromLane="0" toLane="0" contPos="-4.00" shape="32.76,131.55 26.90,131.23 21.04,130.92" via=":17_0_0" dir="s" state="m"/>
    <connection from="3" to="14" fromLane="0" toLane="0" contPos="-4.00" shape="26.07,137.65 26.20,135.82 26.09,134.60 25.73,133.44 25.06,132.42 24.10,131.66 22.97,131.20 21.76,130.97 21.04,130.92" via=":17_1_0" dir="r" state="M"/>
    <connection from="381" to="5" fromLane="0" toLane="0" contPos="-4.00" shape="12.72,301.19 13.07,298.94 13.04,297.24 12.82,296.12 12.39,295.08 11.74,294.15 10.89,293.39 9.91,292.81 9.37,292.58" via=":18_1_0" dir="r" state="M"/>
    <connection from="381" to="383" fromLane="0" toLane="0" contPos="-4.00" shape="12.72,301.19 13.36,299.05 14.31,297.04 15.28,295.68 16.48,294.52 17.88,293.62 19.44,293.01 20.52,292.76" via=":18_2_0" dir="l" state="m"/>
    <connection from="5" to="3" fromLane="0" toLane="0" contPos="-4.00" shape="-18.12,288.04 -19.79,287.70 -20.85,287.28 -21.81,286.66 -22.61,285.85 -23.22,284.88 -23.62,283.81 -23.90,282.11 -23.86,279.83 -23.69,278.47" via=":19_0_0" dir="l" state="m"/>
    <connection from="6" to="383" fromLane="0" toLane="0" contPos="-4.00" shape="10.62,289.32 13.04,290.46 16.36,292.15 17.87,292.65 19.46,292.85 20.52,292.76" via=":18_0_0" dir="s" state="M"/>

    <connection from=":17_0" to="14" fromLane="0" toLane="0" dir="s" state="M"/>
    <connection from=":17_1" to="14" fromLane="0" toLane="0" dir="r" state="M"/>
    <connection from=":18_0" to="383" fromLane="0" toLane="0" dir="s" state="M"/>
    <connection from=":18_1" to="5" fromLane="0" toLane="0" dir="r" state="M"/>
    <connection from=":18_2" to="383" fromLane="0" toLane="0" dir="l" state="M"/>
    <connection from=":19_0" to="3" fromLane="0" toLane="0" dir="l" state="M"/>
    <connection from=":19_1" to="3" fromLane="0" toLane="0" dir="s" state="M"/>
    <connection from=":19_2" to="6" fromLane="0" toLane="0" dir="l" state="M"/>

</net>