<routes>
	<vehicle depart="0.1" departLane="0" departPos="61.90791421224776" departSpeed="6.9421956" id="315" type="bicycle">
		<route edges="110 238"/>
	</vehicle>
	<vehicle depart="0.1" departLane="0" departPos="16.509437525509085" departSpeed="3.3573126" id="346" type="bus">
		<route edges="107 110"/>
	</vehicle>
	<vehicle depart="0.1" departLane="0" departPos="70.17951977233888" departSpeed="0.0" id="38" type="passenger">
		<route edges="85 106"/>
	</vehicle>
	<vehicle depart="0.1" departLane="0" departPos="29.276751770734492" departSpeed="20.511884" id="312" type="passenger">
		<route edges="106"/>
	</vehicle>
	<vehicle depart="0.1" departLane="0" departPos="2.5" departSpeed="20.503665" id="318" type="passenger">
		<route edges="106"/>
	</vehicle>
	<vehicle depart="0.1" departLane="0" departPos="287.0075619656205" departSpeed="20.348003" id="319" type="passenger">
		<route edges="109 106"/>
	</vehicle>
	<vehicle depart="0.1" departLane="0" departPos="39.88509591881973" departSpeed="14.707867" id="320" type="passenger">
		<route edges="110 238"/>
	</vehicle>
	<vehicle depart="0.1" departLane="0" departPos="22.10323627856789" departSpeed="13.448595" id="323" type="passenger">
		<route edges="110 238"/>
	</vehicle>
	<vehicle depart="0.1" departLane="0" departPos="5.008853109988214" departSpeed="11.953396" id="325" type="passenger">
		<route edges="110 238"/>
	</vehicle>
	<vehicle depart="0.1" departLane="0" departPos="63.14589078736008" departSpeed="0.0038446912" id="327" type="passenger">
		<route edges="85 106"/>
	</vehicle>
	<vehicle depart="0.1" departLane="0" departPos="12.385388548929361" departSpeed="10.909933" id="328" type="passenger">
		<route edges=":21_3 110 238"/>
	</vehicle>
	<vehicle depart="0.1" departLane="0" departPos="51.631080943610776" departSpeed="0.14050875" id="333" type="passenger">
		<route edges="85 106"/>
	</vehicle>
	<vehicle depart="0.1" departLane="0" departPos="44.34693164248118" departSpeed="0.4365965" id="335" type="passenger">
		<route edges="85 106"/>
	</vehicle>
	<vehicle depart="0.1" departLane="0" departPos="36.46802044532145" departSpeed="0.90786246" id="337" type="passenger">
		<route edges="85 106"/>
	</vehicle>
	<vehicle depart="0.1" departLane="0" departPos="41.14506530329499" departSpeed="7.2666516" id="338" type="passenger">
		<route edges="107 110 238"/>
	</vehicle>
	<vehicle depart="0.1" departLane="0" departPos="27.990265837328515" departSpeed="1.432169" id="340" type="passenger">
		<route edges="85 106"/>
	</vehicle>
	<vehicle depart="0.1" departLane="0" departPos="28.447573031904675" departSpeed="6.3467685" id="342" type="passenger">
		<route edges="107 86"/>
	</vehicle>
	<vehicle depart="0.1" departLane="0" departPos="18.84342548050922" departSpeed="1.8511219" id="343" type="passenger">
		<route edges="85 106"/>
	</vehicle>
	<vehicle depart="0.1" departLane="0" departPos="9.441194743332936" departSpeed="1.8787793" id="345" type="passenger">
		<route edges="85 106"/>
	</vehicle>
	<vehicle depart="0.1" departLane="0" departPos="67.83876438741753" departSpeed="22.121092" id="330" type="motorcycle">
		<route edges="109 106"/>
	</vehicle>
	<vehicle depart="0.1" departLane="0" departPos="56.17290035637025" departSpeed="0.029691326" id="331" type="motorcycle">
		<route edges="85 106"/>
	</vehicle>
	<vehicle depart="0.1" departLane="0" departPos="53.53571933429367" departSpeed="8.7578792" id="334" type="motorcycle">
		<route edges="107 86"/>
	</vehicle>
</routes>
