<routes>
	<vehicle depart="0.1" departLane="0" departPos="16.523593409511108" departSpeed="2.3222883" id="37" type="bicycle">
		<route edges="51937 52801"/>
	</vehicle>
	<vehicle depart="0.1" departLane="0" departPos="69.04771877902806" departSpeed="0.0" id="327" type="bus">
		<route edges="52798 51938"/>
	</vehicle>
	<vehicle depart="0.1" departLane="0" departPos="26.32128416113042" departSpeed="0.21563602" id="36" type="passenger">
		<route edges=":65_5 51938"/>
	</vehicle>
	<vehicle depart="0.1" departLane="0" departPos="65.4718016747691" departSpeed="0.0" id="312" type="passenger">
		<route edges="52062 51941"/>
	</vehicle>
	<vehicle depart="0.1" departLane="0" departPos="22.256978496032666" departSpeed="1.3302669" id="340" type="passenger">
		<route edges="51938 52063"/>
	</vehicle>
	<vehicle depart="0.1" departLane="0" departPos="24.544089453710164" departSpeed="11.741808" id="344" type="passenger">
		<route edges=":64_1 51937 52801"/>
	</vehicle>
	<vehicle depart="0.1" departLane="0" departPos="5.354092040111789" departSpeed="11.327349" id="350" type="passenger">
		<route edges="51940 51937"/>
	</vehicle>
	<vehicle depart="0.1" departLane="0" departPos="13.841122475793895" departSpeed="0.9984574" id="33" type="motorcycle">
		<route edges="51938 52063"/>
	</vehicle>
	<vehicle depart="0.1" departLane="0" departPos="32.653875466895144" departSpeed="0.027828846" id="334" type="motorcycle">
		<route edges=":65_5 51938"/>
	</vehicle>
</routes>
