<routes>
	<vehicle depart="0.1" departLane="0" departPos="63.004541804467884" departSpeed="0.0" id="334" type="bicycle">
		<route edges="31634 31336"/>
	</vehicle>
	<vehicle depart="0.1" departLane="0" departPos="17.25532596185618" departSpeed="2.9062598" id="36" type="passenger">
		<route edges=":63_4 31636 31633"/>
	</vehicle>
	<vehicle depart="0.1" departLane="0" departPos="69.00467095641194" departSpeed="0.0" id="333" type="passenger">
		<route edges="31634 31336"/>
	</vehicle>
	<vehicle depart="0.1" departLane="0" departPos="61.504426441574125" departSpeed="0.0" id="343" type="passenger">
		<route edges="31634 31336"/>
	</vehicle>
	<vehicle depart="0.1" departLane="0" departPos="54.37668335540367" departSpeed="0.0" id="353" type="passenger">
		<route edges="31634 31336"/>
	</vehicle>
	<vehicle depart="0.1" departLane="0" departPos="2.5" departSpeed="14.782355" id="358" type="passenger">
		<route edges=":68_0 31633"/>
	</vehicle>
	<vehicle depart="0.1" departLane="0" departPos="47.248757214050336" departSpeed="0.0" id="360" type="passenger">
		<route edges="31634 31336"/>
	</vehicle>
	<vehicle depart="0.1" departLane="0" departPos="39.7485880516712" departSpeed="3.0973998e-05" id="368" type="passenger">
		<route edges="31634 31336"/>
	</vehicle>
	<vehicle depart="0.1" departLane="0" departPos="59.00745791736126" departSpeed="10.628667" id="370" type="passenger">
		<route edges="31639 31636 31633"/>
	</vehicle>
	<vehicle depart="0.1" departLane="0" departPos="26.65764503116445" departSpeed="10.29271" id="383" type="passenger">
		<route edges="31639 31182"/>
	</vehicle>
</routes>
