<!-- generated on Tue Feb  9 22:19:52 2021 by Eclipse SUMO netconvert Version 1.8.0
<configuration xmlns:xsi="http://www.w3.org/2001/XMLSchema-instance" xsi:noNamespaceSchemaLocation="http://sumo.dlr.de/xsd/netconvertConfiguration.xsd">

    <input>
        <node-files value="./converted_scenarios/scenario-factory/DEU_Moelln-9_1_I-1-1/DEU_Moelln-9_1_I-1-1.nod.xml"/>
        <edge-files value="./converted_scenarios/scenario-factory/DEU_Moelln-9_1_I-1-1/DEU_Moelln-9_1_I-1-1.edg.xml"/>
        <connection-files value="./converted_scenarios/scenario-factory/DEU_Moelln-9_1_I-1-1/DEU_Moelln-9_1_I-1-1.con.xml"/>
        <tllogic-files value="./converted_scenarios/scenario-factory/DEU_Moelln-9_1_I-1-1/DEU_Moelln-9_1_I-1-1.tll.xml"/>
        <type-files value="/home/zen/commonroad-interactive-benchmarks/install/commonroad-map-tool/crmapconverter/sumo_map/templates/DEU.typ.xml"/>
    </input>

    <output>
        <output-file value="./converted_scenarios/scenario-factory/DEU_Moelln-9_1_I-1-1/DEU_Moelln-9_1_I-1-1.net.xml"/>
    </output>

    <processing>
        <geometry.remove.keep-edges.explicit value="true"/>
        <geometry.avoid-overlap value="true"/>
        <offset.disable-normalization value="true"/>
    </processing>

    <junctions>
        <no-turnarounds value="true"/>
        <junctions.internal-link-detail value="20"/>
    </junctions>

    <report>
        <aggregate-warnings value="5"/>
    </report>

    <random_number>
        <seed value="1234"/>
    </random_number>

</configuration>
--><net xmlns:xsi="http://www.w3.org/2001/XMLSchema-instance" version="1.6" junctionCornerDetail="5" junctionLinkDetail="20" limitTurnSpeed="5.50" xsi:noNamespaceSchemaLocation="http://sumo.dlr.de/xsd/net_file.xsd">

    <location netOffset="0.00,0.00" convBoundary="574.47,341.18,664.90,448.84" origBoundary="574.47,341.18,664.90,448.84" projParameter="!"/>

    <type id="highway.bridleway" priority="1" speed="2.78" allow="pedestrian" oneway="1" width="2.00"/>
    <type id="highway.bus_guideway" priority="1" speed="27.78" allow="bus" oneway="1"/>
    <type id="highway.cycleway" priority="1" speed="8.33" allow="bicycle" oneway="0" width="1.00"/>
    <type id="highway.footway" priority="1" speed="2.78" allow="pedestrian" oneway="1" width="2.00"/>
    <type id="highway.ford" priority="1" speed="2.78" allow="army" oneway="0"/>
    <type id="highway.living_street" priority="2" speed="2.78" disallow="tram rail_urban rail rail_electric rail_fast ship" oneway="0"/>
    <type id="highway.motorway" priority="14" speed="39.44" allow="private emergency authority army vip passenger hov taxi bus coach delivery truck trailer motorcycle evehicle custom1 custom2" oneway="1"/>
    <type id="highway.motorway_link" priority="9" speed="22.22" allow="private emergency authority army vip passenger hov taxi bus coach delivery truck trailer motorcycle evehicle custom1 custom2" oneway="1"/>
    <type id="highway.path" priority="1" speed="2.78" allow="pedestrian bicycle" oneway="0" width="2.00"/>
    <type id="highway.pedestrian" priority="1" speed="2.78" allow="pedestrian" oneway="1" width="2.00"/>
    <type id="highway.primary" priority="12" speed="27.78" disallow="pedestrian tram rail_urban rail rail_electric rail_fast ship" oneway="0"/>
    <type id="highway.primary_link" priority="7" speed="22.22" disallow="pedestrian tram rail_urban rail rail_electric rail_fast ship" oneway="0"/>
    <type id="highway.raceway" priority="15" speed="83.33" allow="vip" oneway="0"/>
    <type id="highway.residential" priority="3" speed="13.89" disallow="pedestrian tram rail_urban rail rail_electric rail_fast ship" oneway="0"/>
    <type id="highway.secondary" priority="11" speed="27.78" disallow="pedestrian tram rail_urban rail rail_electric rail_fast ship" oneway="0"/>
    <type id="highway.secondary_link" priority="6" speed="22.22" disallow="pedestrian tram rail_urban rail rail_electric rail_fast ship" oneway="0"/>
    <type id="highway.service" priority="1" speed="5.56" allow="pedestrian delivery bicycle" oneway="0"/>
    <type id="highway.stairs" priority="1" speed="1.39" allow="pedestrian" oneway="1" width="2.00"/>
    <type id="highway.step" priority="1" speed="1.39" allow="pedestrian" oneway="1" width="2.00"/>
    <type id="highway.steps" priority="1" speed="1.39" allow="pedestrian" oneway="1" width="2.00"/>
    <type id="highway.tertiary" priority="10" speed="22.22" disallow="pedestrian tram rail_urban rail rail_electric rail_fast ship" oneway="0"/>
    <type id="highway.tertiary_link" priority="5" speed="22.22" disallow="pedestrian tram rail_urban rail rail_electric rail_fast ship" oneway="0"/>
    <type id="highway.track" priority="1" speed="5.56" allow="pedestrian motorcycle moped bicycle" oneway="0"/>
    <type id="highway.trunk" priority="13" speed="27.78" disallow="pedestrian bicycle tram rail_urban rail rail_electric rail_fast ship" oneway="0"/>
    <type id="highway.trunk_link" priority="8" speed="22.22" disallow="pedestrian bicycle tram rail_urban rail rail_electric rail_fast ship" oneway="0"/>
    <type id="highway.unclassified" priority="4" speed="13.89" disallow="pedestrian tram rail_urban rail rail_electric rail_fast ship" oneway="0"/>
    <type id="highway.unsurfaced" priority="1" speed="8.33" disallow="tram rail_urban rail rail_electric rail_fast ship" oneway="0"/>
    <type id="railway.highspeed" priority="21" speed="69.44" allow="rail_fast" oneway="1"/>
    <type id="railway.light_rail" priority="19" speed="27.78" allow="rail_urban" oneway="1"/>
    <type id="railway.preserved" priority="16" speed="27.78" allow="rail" oneway="1"/>
    <type id="railway.rail" priority="20" speed="44.44" allow="rail" oneway="1"/>
    <type id="railway.subway" priority="18" speed="27.78" allow="rail_urban" oneway="1"/>
    <type id="railway.tram" priority="17" speed="13.89" allow="tram" oneway="1"/>

    <edge id=":15_0" function="internal">
        <lane id=":15_0_0" index="0" disallow="pedestrian tram rail_urban rail rail_electric rail_fast ship" speed="36.11" length="3.00" width="3.50" shape="642.50,431.59 640.09,429.80"/>
    </edge>
    <edge id=":19_0" function="internal">
        <lane id=":19_0_0" index="0" disallow="pedestrian tram rail_urban rail rail_electric rail_fast ship" speed="10.85" length="29.25" width="3.50" shape="644.54,367.99 641.26,366.61 639.06,365.93 636.83,365.46 634.57,365.28 633.51,365.31 632.43,365.43 631.38,365.64 630.36,365.95 629.37,366.36 628.43,366.87 627.54,367.46 626.69,368.14 625.92,368.87 624.46,370.60 623.23,372.51 622.17,374.57 621.26,376.73"/>
    </edge>
    <edge id=":19_1" function="internal">
        <lane id=":19_1_0" index="0" disallow="pedestrian tram rail_urban rail rail_electric rail_fast ship" speed="12.47" length="33.89" width="3.50" shape="610.33,349.02 612.70,350.12 614.96,351.41 617.08,352.93 619.00,354.69 619.86,355.67 620.65,356.71 621.34,357.82 621.94,358.97 622.44,360.18 622.84,361.42 623.33,363.98 623.45,366.58 623.25,369.18 622.79,371.74 621.71,375.50 621.26,376.73"/>
    </edge>
    <edge id=":19_2" function="internal">
        <lane id=":19_2_0" index="0" disallow="pedestrian tram rail_urban rail rail_electric rail_fast ship" speed="11.48" length="28.57" width="3.50" shape="617.95,375.59 618.37,374.44 619.33,371.13 619.72,368.95 619.90,366.75 619.81,364.59 619.41,362.47 619.10,361.50 618.70,360.53 618.22,359.60 617.67,358.70 617.03,357.85 616.35,357.07 614.75,355.59 612.96,354.31 611.03,353.20 608.96,352.24"/>
    </edge>
    <edge id=":19_3" function="internal">
        <lane id=":19_3_0" index="0" disallow="pedestrian tram rail_urban rail rail_electric rail_fast ship" speed="36.11" length="27.51" width="3.50" shape="617.95,375.59 618.26,374.76 618.66,373.76 619.14,372.62 619.69,371.35 620.30,369.98 620.96,368.52 621.66,366.99 622.39,365.42 623.14,363.83 623.91,362.22 624.67,360.63 625.42,359.06 626.15,357.55 626.86,356.11 627.52,354.76 628.13,353.52 628.68,352.41 629.16,351.44 629.55,350.65"/>
    </edge>
    <edge id=":19_4" function="internal">
        <lane id=":19_4_0" index="0" disallow="pedestrian tram rail_urban rail rail_electric rail_fast ship" speed="11.87" length="35.24" width="3.50" shape="617.95,375.59 619.03,372.99 620.27,370.59 621.74,368.32 623.48,366.25 624.45,365.32 625.51,364.47 626.63,363.72 627.82,363.08 629.06,362.56 630.36,362.16 631.68,361.89 633.02,361.73 634.37,361.69 637.06,361.91 639.71,362.45 642.29,363.26 646.03,364.83"/>
    </edge>
    <edge id=":21_0" function="internal">
        <lane id=":21_0_0" index="0" disallow="pedestrian tram rail_urban rail rail_electric rail_fast ship" speed="13.54" length="9.47" width="3.49" shape="613.52,411.69 611.77,410.93 608.79,409.95 605.72,409.32 604.44,409.19"/>
    </edge>
    <edge id=":21_1" function="internal">
        <lane id=":21_1_0" index="0" disallow="pedestrian tram rail_urban rail rail_electric rail_fast ship" speed="10.11" length="17.46" width="3.50" shape="615.02,409.60 613.90,407.96 612.66,405.49 611.95,403.40 611.52,401.23 611.37,399.02 611.51,396.81 612.04,394.10 612.35,393.04"/>
    </edge>
    <edge id=":21_2" function="internal">
        <lane id=":21_2_0" index="0" disallow="pedestrian tram rail_urban rail rail_electric rail_fast ship" speed="10.32" length="19.92" width="3.49" shape="615.69,394.07 614.03,398.72 612.45,402.20 611.08,404.56 609.78,406.30 608.63,407.46 607.30,408.41 606.30,408.86 605.25,409.12 604.44,409.15"/>
    </edge>

    <edge id="51923" from="19" to="12" priority="3" type="highway.residential" spreadType="center" length="13.89" shape="625.19,362.67 658.45,371.04">
        <lane id="51923_0" index="0" disallow="pedestrian tram rail_urban rail rail_electric rail_fast ship" speed="36.11" length="13.89" width="3.50" customShape="1" shape="646.03,364.83 647.42,365.49 658.45,371.04"/>
    </edge>
    <edge id="51924" from="14" to="19" priority="3" type="highway.residential" spreadType="center" length="13.79" shape="656.85,374.15 624.34,366.06">
        <lane id="51924_0" index="0" disallow="pedestrian tram rail_urban rail rail_electric rail_fast ship" speed="36.11" length="13.79" width="3.50" customShape="1" shape="656.85,374.15 645.89,368.64 644.52,367.98"/>
    </edge>
    <edge id="51926" from="13" to="19" priority="3" type="highway.residential" spreadType="center" length="18.80" shape="593.05,341.62 625.87,362.96">
        <lane id="51926_0" index="0" disallow="pedestrian tram rail_urban rail rail_electric rail_fast ship" speed="36.11" length="18.80" width="3.50" customShape="1" shape="593.05,341.62 601.69,345.32 610.33,349.03"/>
    </edge>
    <edge id="51927" from="19" to="11" priority="3" type="highway.residential" spreadType="center" length="18.84" shape="623.96,365.89 591.64,344.83">
        <lane id="51927_0" index="0" disallow="pedestrian tram rail_urban rail rail_electric rail_fast ship" speed="36.11" length="18.84" width="3.50" customShape="1" shape="608.96,352.24 600.31,348.54 591.64,344.83"/>
    </edge>
    <edge id="52456" from="15" to="21" priority="3" type="highway.residential" spreadType="center" length="32.15">
        <lane id="52456_0" index="0" disallow="pedestrian tram rail_urban rail rail_electric rail_fast ship" speed="36.11" length="32.15" width="3.50" customShape="1" shape="640.09,429.80 624.15,418.05 622.92,417.17 622.81,417.09 614.11,410.87"/>
    </edge>
    <edge id="52502" from="16" to="15" priority="3" type="highway.residential" spreadType="center" length="28.27">
        <lane id="52502_0" index="0" disallow="pedestrian tram rail_urban rail rail_electric rail_fast ship" speed="36.11" length="28.27" width="3.50" customShape="1" shape="664.90,448.84 647.75,435.55 642.50,431.59"/>
    </edge>
    <edge id="52621" from="21" to="19" priority="3" type="highway.residential" spreadType="center" length="18.33" shape="612.02,402.92 623.17,363.90">
        <lane id="52621_0" index="0" disallow="pedestrian tram rail_urban rail rail_electric rail_fast ship" speed="36.11" length="18.33" width="3.50" customShape="1" shape="612.35,393.04 615.81,381.78 617.95,375.59"/>
    </edge>
    <edge id="52622" from="19" to="21" priority="3" type="highway.residential" spreadType="center" length="18.24" shape="626.53,364.87 615.38,403.88">
        <lane id="52622_0" index="0" disallow="pedestrian tram rail_urban rail rail_electric rail_fast ship" speed="36.11" length="18.24" width="3.50" customShape="1" shape="621.26,376.73 619.12,382.91 615.68,394.09"/>
    </edge>
    <edge id="54750" from="21" to="18" priority="3" type="highway.residential" spreadType="center" length="39.50">
        <lane id="54750_0" index="0" disallow="pedestrian tram rail_urban rail rail_electric rail_fast ship" speed="36.11" length="39.50" width="3.49" customShape="1" shape="604.44,409.18 604.03,409.15 603.90,409.14 600.32,409.10 594.19,409.29 591.13,409.06 589.13,408.65 589.00,408.62 588.88,408.59 587.42,408.05 585.65,406.97 583.70,405.25 581.66,402.90 579.58,399.92 577.22,395.89 574.69,390.77 574.47,390.30"/>
    </edge>
    <edge id="54962" from="19" to="20" priority="3" type="highway.residential" spreadType="center" length="10.62">
        <lane id="54962_0" index="0" disallow="pedestrian tram rail_urban rail rail_electric rail_fast ship" speed="36.11" length="10.62" width="3.50" customShape="1" shape="629.55,350.65 632.96,343.88 634.35,341.18"/>
    </edge>

    <junction id="11" type="dead_end" x="591.64" y="344.83" incLanes="51927_0" intLanes="" shape="590.95,346.44 592.33,343.22" rightOfWay="edgePriority"/>
    <junction id="12" type="dead_end" x="658.45" y="371.04" incLanes="51923_0" intLanes="" shape="659.24,369.48 657.67,372.61" rightOfWay="edgePriority"/>
    <junction id="13" type="dead_end" x="593.05" y="341.62" incLanes="" intLanes="" shape="592.36,343.23 593.73,340.02" rightOfWay="edgePriority"/>
    <junction id="14" type="dead_end" x="656.85" y="374.15" incLanes="" intLanes="" shape="657.63,372.59 656.06,375.72" rightOfWay="edgePriority"/>
    <junction id="15" type="priority" x="641.30" y="430.69" incLanes="52502_0" intLanes=":15_0_0" shape="641.44,432.99 643.55,430.20 641.13,428.40 639.06,431.21" rightOfWay="edgePriority">
        <request index="0" response="0" foes="0" cont="0"/>
    </junction>
    <junction id="16" type="dead_end" x="664.90" y="448.84" incLanes="" intLanes="" shape="665.97,447.46 663.83,450.23" rightOfWay="edgePriority"/>
    <junction id="18" type="dead_end" x="574.47" y="390.30" incLanes="54750_0" intLanes="" shape="572.88,391.03 576.06,389.57" rightOfWay="edgePriority"/>
    <junction id="19" type="priority" x="624.85" y="364.38" incLanes="51924_0 51926_0 52621_0" intLanes=":19_0_0 :19_1_0 :19_2_0 :19_3_0 :19_4_0" shape="643.76,369.56 646.79,363.25 641.52,360.60 637.32,358.21 634.18,356.09 632.11,354.24 631.11,352.65 631.17,351.32 627.94,349.97 625.20,351.40 622.74,351.26 619.56,350.55 615.65,349.27 611.02,347.42 608.27,353.85 612.21,356.03 615.11,358.75 616.96,362.01 617.78,365.80 617.56,370.14 616.30,375.02 622.91,377.31 624.95,372.86 627.57,369.67 630.76,367.75 634.52,367.09 638.85,367.69">
        <request index="0" response="00000" foes="00010" cont="0"/>
        <request index="1" response="00001" foes="11001" cont="0"/>
        <request index="2" response="00000" foes="00000" cont="0"/>
        <request index="3" response="00010" foes="00010" cont="0"/>
        <request index="4" response="00010" foes="00010" cont="0"/>
    </junction>
    <junction id="20" type="dead_end" x="634.35" y="341.18" incLanes="54962_0" intLanes="" shape="632.80,340.37 635.91,341.98"/>
    <junction id="21" type="priority" x="613.72" y="403.33" incLanes="52456_0 52622_0" intLanes=":21_0_0 :21_1_0 :21_2_0" shape="613.09,412.30 615.12,409.45 614.52,407.19 614.73,405.05 615.27,402.23 616.15,398.74 617.36,394.58 610.67,392.52 609.22,397.11 607.94,400.85 606.83,403.76 605.90,405.82 605.14,407.05 604.56,407.44 604.32,410.92 607.76,410.84 609.01,410.75 610.20,410.86 611.49,411.32">
        <request index="0" response="000" foes="100" cont="0"/>
        <request index="1" response="000" foes="100" cont="0"/>
        <request index="2" response="011" foes="011" cont="0"/>
    </junction>

    <connection from="51924" to="52622" fromLane="0" toLane="0" contPos="-4.00" shape="644.54,367.99 641.26,366.61 639.06,365.93 636.83,365.46 634.57,365.28 633.51,365.31 632.43,365.43 631.38,365.64 630.36,365.95 629.37,366.36 628.43,366.87 627.54,367.46 626.69,368.14 625.92,368.87 624.46,370.60 623.23,372.51 622.17,374.57 621.26,376.73" via=":19_0_0" dir="r" state="M"/>
    <connection from="51926" to="52622" fromLane="0" toLane="0" contPos="-4.00" shape="610.33,349.02 612.70,350.12 614.96,351.41 617.08,352.93 619.00,354.69 619.86,355.67 620.65,356.71 621.34,357.82 621.94,358.97 622.44,360.18 622.84,361.42 623.33,363.98 623.45,366.58 623.25,369.18 622.79,371.74 621.71,375.50 621.26,376.73" via=":19_1_0" dir="l" state="m"/>
    <connection from="52456" to="54750" fromLane="0" toLane="0" contPos="-4.00" shape="622.71,417.02 618.79,414.42 615.12,412.40 611.77,410.93 608.79,409.95 605.72,409.32 604.16,409.16" via=":21_0_0" dir="s" state="M"/>
    <connection from="52456" to="52621" fromLane="0" toLane="0" contPos="-4.00" shape="622.71,417.02 619.66,414.63 617.26,412.35 615.46,410.25 613.90,407.96 612.66,405.49 611.95,403.40 611.52,401.23 611.37,399.02 611.51,396.81 612.04,394.10 612.35,393.04" via=":21_1_0" dir="l" state="M"/>
    <connection from="52502" to="52456" fromLane="0" toLane="0" contPos="-4.00" via=":15_0_0" dir="s" state="M"/>
    <connection from="52621" to="51927" fromLane="0" toLane="0" contPos="-4.00" shape="617.99,375.49 618.37,374.44 619.33,371.13 619.72,368.95 619.90,366.75 619.81,364.59 619.41,362.47 619.10,361.50 618.70,360.53 618.22,359.60 617.67,358.70 617.03,357.85 616.35,357.07 614.75,355.59 612.96,354.31 611.03,353.20 608.96,352.24" via=":19_2_0" dir="r" state="M"/>
    <connection from="52621" to="54962" fromLane="0" toLane="0" contPos="-4.00" via=":19_3_0" dir="s" state="m"/>
    <connection from="52621" to="51923" fromLane="0" toLane="0" contPos="-4.00" shape="617.99,375.49 619.03,372.99 620.27,370.59 621.74,368.32 623.48,366.25 624.45,365.32 625.51,364.47 626.63,363.72 627.82,363.08 629.06,362.56 630.36,362.16 631.68,361.89 633.02,361.73 634.37,361.69 637.06,361.91 639.71,362.45 642.29,363.26 646.03,364.83" via=":19_4_0" dir="l" state="m"/>
    <connection from="52622" to="54750" fromLane="0" toLane="0" contPos="-4.00" shape="615.68,394.09 614.03,398.72 612.45,402.20 611.08,404.56 609.78,406.30 608.63,407.46 607.30,408.41 606.30,408.86 605.25,409.12 604.16,409.16" via=":21_2_0" dir="l" state="m"/>

    <connection from=":15_0" to="52456" fromLane="0" toLane="0" dir="s" state="M"/>
    <connection from=":19_0" to="52622" fromLane="0" toLane="0" dir="r" state="M"/>
    <connection from=":19_1" to="52622" fromLane="0" toLane="0" dir="l" state="M"/>
    <connection from=":19_2" to="51927" fromLane="0" toLane="0" dir="r" state="M"/>
    <connection from=":19_3" to="54962" fromLane="0" toLane="0" dir="s" state="M"/>
    <connection from=":19_4" to="51923" fromLane="0" toLane="0" dir="l" state="M"/>
    <connection from=":21_0" to="54750" fromLane="0" toLane="0" dir="s" state="M"/>
    <connection from=":21_1" to="52621" fromLane="0" toLane="0" dir="l" state="M"/>
    <connection from=":21_2" to="54750" fromLane="0" toLane="0" dir="l" state="M"/>

</net>