<additional>
	<vTypeDistribution id="DEFAULT_VEHTYPE">
		<vType accel="1.3" decel="4" guiShape="truck" id="truck" impatience="0.00" lcCooperative="1.00" lcImpatience="0.00" lcSpeedGain="3.00" lcStrategic="10.00" length="7.5" maxSpeed="36.11111111111111" minGap="2.5" probability="1.0" sigma="0.50" speedDev="0.10" speedFactor="0.90" vClass="truck" width="2.6"/>
	</vTypeDistribution>
</additional>
