<routes>
	<vehicle depart="0.1" departLane="0" departPos="12.326729875616962" departSpeed="9.5483926" id="38" type="truck">
		<route edges="52622 54750"/>
	</vehicle>
</routes>
