<!-- generated on 2020-12-18 16:01:41.508431 by ipykernel_launcher.py v1_2_0+5214-53edc58fcd
-->
<connections>
	<connection contPos="-4.0" from="3431" fromLane="4" keepClear="true" to="3438" toLane="5"/>
	<connection contPos="-4.0" from="3438" fromLane="5" keepClear="true" to="3450" toLane="5"/>
	<connection contPos="-4.0" from="3450" fromLane="5" keepClear="true" to="3664" toLane="1"/>
	<connection contPos="-4.0" from="3664" fromLane="1" keepClear="true" to="3495" toLane="2"/>
	<connection contPos="-4.0" from="3431" fromLane="3" keepClear="true" to="3438" toLane="4"/>
	<connection contPos="-4.0" from="3438" fromLane="4" keepClear="true" to="3450" toLane="4"/>
	<connection contPos="-4.0" from="3450" fromLane="4" keepClear="true" to="3664" toLane="0"/>
	<connection contPos="-4.0" from="3664" fromLane="0" keepClear="true" to="3495" toLane="1"/>
	<connection contPos="-4.0" from="3431" fromLane="2" keepClear="true" to="3438" toLane="3"/>
	<connection contPos="-4.0" from="3438" fromLane="3" keepClear="true" to="3450" toLane="3"/>
	<connection contPos="-4.0" from="3450" fromLane="3" keepClear="true" to="3610" toLane="2"/>
	<connection contPos="-4.0" from="3610" fromLane="2" keepClear="true" to="3646" toLane="2"/>
	<connection contPos="-4.0" from="3646" fromLane="2" keepClear="true" to="3626" toLane="2"/>
	<connection contPos="-4.0" from="3626" fromLane="2" keepClear="true" to="3542" toLane="2"/>
	<connection contPos="-4.0" from="3431" fromLane="1" keepClear="true" to="3438" toLane="2"/>
	<connection contPos="-4.0" from="3438" fromLane="2" keepClear="true" to="3450" toLane="2"/>
	<connection contPos="-4.0" from="3450" fromLane="2" keepClear="true" to="3610" toLane="1"/>
	<connection contPos="-4.0" from="3610" fromLane="1" keepClear="true" to="3646" toLane="1"/>
	<connection contPos="-4.0" from="3646" fromLane="1" keepClear="true" to="3626" toLane="1"/>
	<connection contPos="-4.0" from="3626" fromLane="1" keepClear="true" to="3542" toLane="1"/>
	<connection contPos="-4.0" from="3431" fromLane="0" keepClear="true" to="3438" toLane="0"/>
	<connection contPos="-4.0" from="3431" fromLane="0" keepClear="true" to="3438" toLane="1"/>
	<connection contPos="-4.0" from="3438" fromLane="1" keepClear="true" to="3450" toLane="1"/>
	<connection contPos="-4.0" from="3450" fromLane="1" keepClear="true" to="3610" toLane="0"/>
	<connection contPos="-4.0" from="3610" fromLane="0" keepClear="true" to="3646" toLane="0"/>
	<connection contPos="-4.0" from="3646" fromLane="0" keepClear="true" to="3626" toLane="0"/>
	<connection contPos="-4.0" from="3626" fromLane="0" keepClear="true" to="3542" toLane="0"/>
	<connection contPos="-4.0" from="3438" fromLane="0" keepClear="true" to="3450" toLane="0"/>
	<connection contPos="-4.0" from="3450" fromLane="0" keepClear="true" to="3604" toLane="0"/>
	<connection contPos="-4.0" from="3604" fromLane="0" keepClear="true" to="3487" toLane="0"/>
	<connection contPos="-4.0" from="3479" fromLane="2" keepClear="true" to="3672" toLane="0"/>
	<connection contPos="-4.0" from="3672" fromLane="0" keepClear="true" to="3456" toLane="2"/>
	<connection contPos="-4.0" from="3456" fromLane="2" keepClear="true" to="3462" toLane="2"/>
	<connection contPos="-4.0" from="3462" fromLane="2" keepClear="true" to="3470" toLane="2"/>
	<connection contPos="-4.0" from="3479" fromLane="1" keepClear="true" to="3636" toLane="1"/>
	<connection contPos="-4.0" from="3636" fromLane="1" keepClear="true" to="3658" toLane="1"/>
	<connection contPos="-4.0" from="3658" fromLane="1" keepClear="true" to="3676" toLane="1"/>
	<connection contPos="-4.0" from="3676" fromLane="1" keepClear="true" to="3495" toLane="2"/>
	<connection contPos="-4.0" from="3479" fromLane="0" keepClear="true" to="3636" toLane="0"/>
	<connection contPos="-4.0" from="3479" fromLane="0" keepClear="true" to="3600" toLane="0"/>
	<connection contPos="-4.0" from="3600" fromLane="0" keepClear="true" to="3542" toLane="0"/>
	<connection contPos="-4.0" from="3636" fromLane="0" keepClear="true" to="3658" toLane="0"/>
	<connection contPos="-4.0" from="3658" fromLane="0" keepClear="true" to="3676" toLane="0"/>
	<connection contPos="-4.0" from="3676" fromLane="0" keepClear="true" to="3495" toLane="1"/>
	<connection contPos="-4.0" from="3502" fromLane="1" keepClear="true" to="3528" toLane="2"/>
	<connection contPos="-4.0" from="3528" fromLane="2" keepClear="true" to="3534" toLane="2"/>
	<connection contPos="-4.0" from="3534" fromLane="2" keepClear="true" to="3668" toLane="0"/>
	<connection contPos="-4.0" from="3534" fromLane="2" keepClear="true" to="3620" toLane="1"/>
	<connection contPos="-4.0" from="3620" fromLane="1" keepClear="true" to="3662" toLane="1"/>
	<connection contPos="-4.0" from="3662" fromLane="1" keepClear="true" to="3640" toLane="1"/>
	<connection contPos="-4.0" from="3640" fromLane="1" keepClear="true" to="3487" toLane="2"/>
	<connection contPos="-4.0" from="3668" fromLane="0" keepClear="true" to="3542" toLane="2"/>
	<connection contPos="-4.0" from="3502" fromLane="0" keepClear="true" to="3528" toLane="0"/>
	<connection contPos="-4.0" from="3502" fromLane="0" keepClear="true" to="3528" toLane="1"/>
	<connection contPos="-4.0" from="3528" fromLane="1" keepClear="true" to="3534" toLane="1"/>
	<connection contPos="-4.0" from="3534" fromLane="1" keepClear="true" to="3620" toLane="0"/>
	<connection contPos="-4.0" from="3620" fromLane="0" keepClear="true" to="3662" toLane="0"/>
	<connection contPos="-4.0" from="3662" fromLane="0" keepClear="true" to="3640" toLane="0"/>
	<connection contPos="-4.0" from="3640" fromLane="0" keepClear="true" to="3487" toLane="1"/>
	<connection contPos="-4.0" from="3528" fromLane="0" keepClear="true" to="3534" toLane="0"/>
	<connection contPos="-4.0" from="3534" fromLane="0" keepClear="true" to="3602" toLane="0"/>
	<connection contPos="-4.0" from="3602" fromLane="0" keepClear="true" to="3456" toLane="0"/>
	<connection contPos="-4.0" from="3456" fromLane="0" keepClear="true" to="3462" toLane="0"/>
	<connection contPos="-4.0" from="3462" fromLane="0" keepClear="true" to="3470" toLane="0"/>
	<connection contPos="-4.0" from="3573" fromLane="4" keepClear="true" to="3670" toLane="0"/>
	<connection contPos="-4.0" from="3670" fromLane="0" keepClear="true" to="3640" toLane="1"/>
	<connection contPos="-4.0" from="3573" fromLane="3" keepClear="true" to="3632" toLane="2"/>
	<connection contPos="-4.0" from="3632" fromLane="2" keepClear="true" to="3652" toLane="2"/>
	<connection contPos="-4.0" from="3652" fromLane="2" keepClear="true" to="3616" toLane="2"/>
	<connection contPos="-4.0" from="3616" fromLane="2" keepClear="true" to="3456" toLane="2"/>
	<connection contPos="-4.0" from="3573" fromLane="2" keepClear="true" to="3632" toLane="1"/>
	<connection contPos="-4.0" from="3632" fromLane="1" keepClear="true" to="3652" toLane="1"/>
	<connection contPos="-4.0" from="3652" fromLane="1" keepClear="true" to="3616" toLane="1"/>
	<connection contPos="-4.0" from="3616" fromLane="1" keepClear="true" to="3456" toLane="1"/>
	<connection contPos="-4.0" from="3456" fromLane="1" keepClear="true" to="3462" toLane="1"/>
	<connection contPos="-4.0" from="3462" fromLane="1" keepClear="true" to="3470" toLane="1"/>
	<connection contPos="-4.0" from="3573" fromLane="1" keepClear="true" to="3680" toLane="1"/>
	<connection contPos="-4.0" from="3573" fromLane="1" keepClear="true" to="3632" toLane="0"/>
	<connection contPos="-4.0" from="3632" fromLane="0" keepClear="true" to="3652" toLane="0"/>
	<connection contPos="-4.0" from="3652" fromLane="0" keepClear="true" to="3616" toLane="0"/>
	<connection contPos="-4.0" from="3616" fromLane="0" keepClear="true" to="3456" toLane="0"/>
	<connection contPos="-4.0" from="3680" fromLane="1" keepClear="true" to="3495" toLane="1"/>
	<connection contPos="-4.0" from="3573" fromLane="0" keepClear="true" to="3680" toLane="0"/>
	<connection contPos="-4.0" from="3680" fromLane="0" keepClear="true" to="3495" toLane="0"/>
</connections>
