<!-- generated on 2020-12-18 16:01:41.437897 by ipykernel_launcher.py v1_2_0+5214-53edc58fcd
-->
<nodes>
	<node id="1" type="from" x="22.40334" y="73.4903"/>
	<node id="2" type="to" x="18.936349999999997" y="66.50486000000001"/>
	<node id="3" type="to" x="13.762191666666666" y="59.58928333333333"/>
	<node id="4" type="to" x="2.7659749999999996" y="37.49330833333333"/>
	<node id="5" type="to" x="21.968825" y="-2.3998"/>
	<node id="6" type="to" x="34.805816666666665" y="-10.732883333333334"/>
	<node id="7" type="to" x="-4.5661" y="25.971366666666665"/>
	<node id="8" type="to" x="-11.8924" y="11.077183333333332"/>
	<node id="9" type="to" x="-17.2743" y="0.13793333333333332"/>
	<node id="10" type="to" x="-34.25683333333334" y="-38.39066666666667"/>
	<node id="11" type="to" x="-17.5176" y="35.82195"/>
	<node id="12" type="to" x="-38.23048333333333" y="42.331466666666664"/>
	<node id="13" type="from" x="-43.29313333333334" y="32.32308333333334"/>
	<node id="14" type="to" x="-22.9692" y="22.218033333333334"/>
	<node id="15" type="to" x="12.28405" y="32.691900000000004"/>
	<node id="16" type="to" x="25.984700000000004" y="53.48131666666668"/>
	<node id="17" type="to" x="29.797383333333332" y="61.07063333333334"/>
	<node id="18" type="to" x="33.20033333333333" y="67.94751666666666"/>
	<node id="19" type="to" x="-14.625350000000001" y="16.19105"/>
	<node id="20" type="to" x="7.4815249999999995" y="4.806925000000001"/>
	<node id="21" type="from" x="40.10805" y="0.05867500000000003"/>
	<node id="22" type="to" x="29.727775" y="5.1332"/>
	<node id="23" type="to" x="24.582966666666664" y="9.6427"/>
	<node id="24" type="to" x="18.639716666666665" y="12.572983333333333"/>
	<node id="25" type="to" x="11.910174999999999" y="14.003150000000002"/>
	<node id="26" type="to" x="-10.1772" y="25.009050000000002"/>
	<node id="27" type="from" x="-21.87726" y="-44.49044"/>
	<node id="28" type="to" x="-3.2639000000000005" y="-7.228959999999999"/>
	<node id="29" type="to" x="1.8855833333333332" y="3.8449666666666666"/>
	<node id="30" type="to" x="9.245600000000001" y="19.220466666666667"/>
</nodes>
