<!-- generated on Tue Feb  9 22:02:11 2021 by Eclipse SUMO netconvert Version 1.8.0
<configuration xmlns:xsi="http://www.w3.org/2001/XMLSchema-instance" xsi:noNamespaceSchemaLocation="http://sumo.dlr.de/xsd/netconvertConfiguration.xsd">

    <input>
        <node-files value="./converted_scenarios/scenario-factory/DEU_Speyer-1_3_I-1-1/DEU_Speyer-1_3_I-1-1.nod.xml"/>
        <edge-files value="./converted_scenarios/scenario-factory/DEU_Speyer-1_3_I-1-1/DEU_Speyer-1_3_I-1-1.edg.xml"/>
        <connection-files value="./converted_scenarios/scenario-factory/DEU_Speyer-1_3_I-1-1/DEU_Speyer-1_3_I-1-1.con.xml"/>
        <tllogic-files value="./converted_scenarios/scenario-factory/DEU_Speyer-1_3_I-1-1/DEU_Speyer-1_3_I-1-1.tll.xml"/>
        <type-files value="/home/zen/commonroad-interactive-benchmarks/install/commonroad-map-tool/crmapconverter/sumo_map/templates/DEU.typ.xml"/>
    </input>

    <output>
        <output-file value="./converted_scenarios/scenario-factory/DEU_Speyer-1_3_I-1-1/DEU_Speyer-1_3_I-1-1.net.xml"/>
    </output>

    <processing>
        <geometry.remove.keep-edges.explicit value="true"/>
        <geometry.avoid-overlap value="true"/>
        <offset.disable-normalization value="true"/>
    </processing>

    <junctions>
        <no-turnarounds value="true"/>
        <junctions.internal-link-detail value="20"/>
    </junctions>

    <report>
        <aggregate-warnings value="5"/>
    </report>

    <random_number>
        <seed value="1234"/>
    </random_number>

</configuration>
--><net xmlns:xsi="http://www.w3.org/2001/XMLSchema-instance" version="1.6" junctionCornerDetail="5" junctionLinkDetail="20" limitTurnSpeed="5.50" xsi:noNamespaceSchemaLocation="http://sumo.dlr.de/xsd/net_file.xsd">

    <location netOffset="0.00,0.00" convBoundary="-1030.47,-304.17,-816.96,-95.41" origBoundary="-1030.47,-304.17,-816.96,-95.41" projParameter="!"/>

    <type id="highway.bridleway" priority="1" speed="2.78" allow="pedestrian" oneway="1" width="2.00"/>
    <type id="highway.bus_guideway" priority="1" speed="27.78" allow="bus" oneway="1"/>
    <type id="highway.cycleway" priority="1" speed="8.33" allow="bicycle" oneway="0" width="1.00"/>
    <type id="highway.footway" priority="1" speed="2.78" allow="pedestrian" oneway="1" width="2.00"/>
    <type id="highway.ford" priority="1" speed="2.78" allow="army" oneway="0"/>
    <type id="highway.living_street" priority="2" speed="2.78" disallow="tram rail_urban rail rail_electric rail_fast ship" oneway="0"/>
    <type id="highway.motorway" priority="14" speed="39.44" allow="private emergency authority army vip passenger hov taxi bus coach delivery truck trailer motorcycle evehicle custom1 custom2" oneway="1"/>
    <type id="highway.motorway_link" priority="9" speed="22.22" allow="private emergency authority army vip passenger hov taxi bus coach delivery truck trailer motorcycle evehicle custom1 custom2" oneway="1"/>
    <type id="highway.path" priority="1" speed="2.78" allow="pedestrian bicycle" oneway="0" width="2.00"/>
    <type id="highway.pedestrian" priority="1" speed="2.78" allow="pedestrian" oneway="1" width="2.00"/>
    <type id="highway.primary" priority="12" speed="27.78" disallow="pedestrian tram rail_urban rail rail_electric rail_fast ship" oneway="0"/>
    <type id="highway.primary_link" priority="7" speed="22.22" disallow="pedestrian tram rail_urban rail rail_electric rail_fast ship" oneway="0"/>
    <type id="highway.raceway" priority="15" speed="83.33" allow="vip" oneway="0"/>
    <type id="highway.residential" priority="3" speed="13.89" disallow="pedestrian tram rail_urban rail rail_electric rail_fast ship" oneway="0"/>
    <type id="highway.secondary" priority="11" speed="27.78" disallow="pedestrian tram rail_urban rail rail_electric rail_fast ship" oneway="0"/>
    <type id="highway.secondary_link" priority="6" speed="22.22" disallow="pedestrian tram rail_urban rail rail_electric rail_fast ship" oneway="0"/>
    <type id="highway.service" priority="1" speed="5.56" allow="pedestrian delivery bicycle" oneway="0"/>
    <type id="highway.stairs" priority="1" speed="1.39" allow="pedestrian" oneway="1" width="2.00"/>
    <type id="highway.step" priority="1" speed="1.39" allow="pedestrian" oneway="1" width="2.00"/>
    <type id="highway.steps" priority="1" speed="1.39" allow="pedestrian" oneway="1" width="2.00"/>
    <type id="highway.tertiary" priority="10" speed="22.22" disallow="pedestrian tram rail_urban rail rail_electric rail_fast ship" oneway="0"/>
    <type id="highway.tertiary_link" priority="5" speed="22.22" disallow="pedestrian tram rail_urban rail rail_electric rail_fast ship" oneway="0"/>
    <type id="highway.track" priority="1" speed="5.56" allow="pedestrian motorcycle moped bicycle" oneway="0"/>
    <type id="highway.trunk" priority="13" speed="27.78" disallow="pedestrian bicycle tram rail_urban rail rail_electric rail_fast ship" oneway="0"/>
    <type id="highway.trunk_link" priority="8" speed="22.22" disallow="pedestrian bicycle tram rail_urban rail rail_electric rail_fast ship" oneway="0"/>
    <type id="highway.unclassified" priority="4" speed="13.89" disallow="pedestrian tram rail_urban rail rail_electric rail_fast ship" oneway="0"/>
    <type id="highway.unsurfaced" priority="1" speed="8.33" disallow="tram rail_urban rail rail_electric rail_fast ship" oneway="0"/>
    <type id="railway.highspeed" priority="21" speed="69.44" allow="rail_fast" oneway="1"/>
    <type id="railway.light_rail" priority="19" speed="27.78" allow="rail_urban" oneway="1"/>
    <type id="railway.preserved" priority="16" speed="27.78" allow="rail" oneway="1"/>
    <type id="railway.rail" priority="20" speed="44.44" allow="rail" oneway="1"/>
    <type id="railway.subway" priority="18" speed="27.78" allow="rail_urban" oneway="1"/>
    <type id="railway.tram" priority="17" speed="13.89" allow="tram" oneway="1"/>

    <edge id=":33_0" function="internal">
        <lane id=":33_0_0" index="0" disallow="pedestrian tram rail_urban rail rail_electric rail_fast ship" speed="11.40" length="25.91" width="3.50" shape="-919.48,-213.66 -923.57,-213.11 -926.62,-212.50 -929.62,-211.66 -931.56,-210.93 -933.43,-210.04 -935.20,-208.95 -936.02,-208.31 -936.79,-207.62 -937.49,-206.86 -938.11,-206.03 -938.65,-205.14 -939.09,-204.20 -939.42,-203.22 -939.65,-202.21 -939.78,-201.18"/>
    </edge>
    <edge id=":33_1" function="internal">
        <lane id=":33_1_0" index="0" disallow="pedestrian tram rail_urban rail rail_electric rail_fast ship" speed="11.69" length="35.52" width="3.50" shape="-919.48,-213.66 -922.08,-213.48 -924.72,-213.49 -927.40,-213.75 -930.03,-214.32 -931.38,-214.78 -932.67,-215.34 -933.92,-216.03 -935.09,-216.85 -936.18,-217.80 -937.16,-218.86 -938.01,-220.01 -938.73,-221.24 -939.33,-222.51 -939.81,-223.82 -940.19,-225.17 -940.66,-227.80 -940.86,-230.48 -940.75,-234.37"/>
    </edge>
    <edge id=":33_2" function="internal">
        <lane id=":33_2_0" index="0" disallow="pedestrian tram rail_urban rail rail_electric rail_fast ship" speed="10.65" length="29.26" width="3.50" shape="-937.26,-234.13 -937.35,-230.76 -937.19,-228.51 -936.79,-226.29 -936.49,-225.21 -936.10,-224.15 -935.62,-223.13 -935.05,-222.16 -934.38,-221.25 -933.62,-220.43 -932.77,-219.69 -931.85,-219.04 -930.86,-218.50 -929.83,-218.05 -928.76,-217.69 -926.56,-217.21 -924.32,-216.99 -922.07,-216.99 -919.84,-217.14"/>
    </edge>
    <edge id=":33_3" function="internal">
        <lane id=":33_3_0" index="0" disallow="pedestrian tram rail_urban rail rail_electric rail_fast ship" speed="36.11" length="33.05" width="3.50" shape="-937.26,-234.13 -938.52,-217.66 -939.78,-201.18"/>
    </edge>
    <edge id=":33_4" function="internal">
        <lane id=":33_4_0" index="0" disallow="pedestrian tram rail_urban rail rail_electric rail_fast ship" speed="36.11" length="33.02" width="3.50" shape="-943.27,-201.45 -942.01,-217.92 -940.75,-234.37"/>
    </edge>
    <edge id=":33_5" function="internal">
        <lane id=":33_5_0" index="0" disallow="pedestrian tram rail_urban rail rail_electric rail_fast ship" speed="12.42" length="30.78" width="3.50" shape="-943.27,-201.45 -943.11,-202.72 -942.84,-203.99 -942.45,-205.24 -941.93,-206.45 -941.29,-207.59 -940.55,-208.67 -939.71,-209.66 -938.79,-210.56 -937.79,-211.39 -935.74,-212.76 -933.56,-213.88 -931.30,-214.78 -927.90,-215.79 -924.43,-216.51 -919.84,-217.14"/>
    </edge>
    <edge id=":34_0" function="internal">
        <lane id=":34_0_0" index="0" disallow="pedestrian tram rail_urban rail rail_electric rail_fast ship" speed="12.21" length="30.87" width="3.50" shape="-858.53,-199.59 -859.29,-202.78 -860.36,-205.87 -861.27,-207.79 -862.36,-209.60 -863.64,-211.25 -865.10,-212.72 -866.75,-213.98 -868.54,-215.02 -870.47,-215.82 -872.50,-216.40 -874.61,-216.78 -876.74,-216.97 -880.03,-216.96"/>
    </edge>
    <edge id=":34_1" function="internal">
        <lane id=":34_1_0" index="0" disallow="pedestrian tram rail_urban rail rail_electric rail_fast ship" speed="36.11" length="39.76" width="3.50" shape="-840.41,-220.22 -853.94,-218.81 -869.59,-217.57 -880.03,-216.96"/>
    </edge>
    <edge id=":34_2" function="internal">
        <lane id=":34_2_0" index="0" disallow="pedestrian tram rail_urban rail rail_electric rail_fast ship" speed="12.39" length="34.92" width="3.50" shape="-859.53,-239.71 -859.57,-235.96 -859.84,-233.43 -860.36,-230.91 -861.16,-228.44 -862.29,-226.09 -863.02,-224.94 -863.82,-223.87 -864.70,-222.87 -865.67,-221.95 -866.74,-221.09 -868.95,-219.70 -871.33,-218.63 -873.79,-217.86 -876.30,-217.35 -880.03,-216.96"/>
    </edge>
    <edge id=":34_3" function="internal">
        <lane id=":34_3_0" index="0" disallow="pedestrian tram rail_urban rail rail_electric rail_fast ship" speed="11.40" length="29.39" width="3.50" shape="-880.22,-220.46 -876.96,-220.79 -874.83,-221.23 -872.75,-221.88 -870.77,-222.77 -868.93,-223.93 -868.08,-224.62 -867.29,-225.37 -866.57,-226.19 -865.92,-227.06 -865.34,-227.98 -864.40,-229.94 -863.73,-232.01 -863.29,-234.15 -863.06,-236.31 -863.03,-239.57"/>
    </edge>
    <edge id=":34_4" function="internal">
        <lane id=":34_4_0" index="0" disallow="pedestrian tram rail_urban rail rail_electric rail_fast ship" speed="36.11" length="39.54" width="3.50" shape="-880.22,-220.46 -869.83,-221.07 -854.27,-222.29 -840.82,-223.70"/>
    </edge>
    <edge id=":34_5" function="internal">
        <lane id=":34_5_0" index="0" disallow="pedestrian tram rail_urban rail rail_electric rail_fast ship" speed="13.15" length="35.95" width="3.50" shape="-880.22,-220.46 -876.49,-220.47 -874.02,-220.25 -871.58,-219.81 -869.20,-219.13 -866.91,-218.18 -864.76,-216.94 -862.79,-215.44 -861.04,-213.68 -859.52,-211.72 -858.24,-209.60 -857.18,-207.36 -855.95,-203.85 -855.10,-200.24"/>
    </edge>
    <edge id=":35_0" function="internal">
        <lane id=":35_0_0" index="0" disallow="pedestrian tram rail_urban rail rail_electric rail_fast ship" speed="10.42" length="32.75" width="3.50" shape="-944.97,-165.41 -945.10,-169.47 -945.40,-172.08 -945.94,-174.65 -946.31,-175.84 -946.77,-177.00 -947.32,-178.08 -947.97,-179.07 -948.72,-179.95 -949.56,-180.69 -950.51,-181.28 -951.55,-181.73 -952.67,-182.02 -953.85,-182.18 -955.07,-182.21 -956.29,-182.13 -958.84,-181.69 -961.35,-180.97 -965.10,-179.50"/>
    </edge>
    <edge id=":35_1" function="internal">
        <lane id=":35_1_0" index="0" disallow="pedestrian tram rail_urban rail rail_electric rail_fast ship" speed="36.11" length="35.83" width="3.50" shape="-944.97,-165.41 -944.66,-178.07 -943.88,-192.79 -943.29,-201.19"/>
    </edge>
    <edge id=":35_2" function="internal">
        <lane id=":35_2_0" index="0" disallow="pedestrian tram rail_urban rail rail_electric rail_fast ship" speed="36.11" length="35.57" width="3.50" shape="-939.80,-200.92 -940.39,-192.58 -941.16,-177.94 -941.47,-165.39"/>
    </edge>
    <edge id=":35_3" function="internal">
        <lane id=":35_3_0" index="0" disallow="pedestrian tram rail_urban rail rail_electric rail_fast ship" speed="15.50" length="34.46" width="3.50" shape="-939.80,-200.92 -939.99,-199.64 -940.33,-198.39 -940.82,-197.17 -942.03,-195.07 -943.50,-193.19 -945.13,-191.51 -947.72,-189.29 -950.47,-187.31 -954.26,-184.95 -959.12,-182.32 -965.10,-179.50"/>
    </edge>
    <edge id=":35_4" function="internal">
        <lane id=":35_4_0" index="0" disallow="pedestrian tram rail_urban rail rail_electric rail_fast ship" speed="14.58" length="30.74" width="3.50" shape="-966.53,-182.69 -960.95,-185.32 -956.43,-187.72 -952.92,-189.84 -950.40,-191.59 -948.02,-193.53 -946.55,-194.96 -945.23,-196.53 -944.15,-198.27 -943.74,-199.20 -943.44,-200.18 -943.29,-201.19"/>
    </edge>
    <edge id=":35_5" function="internal">
        <lane id=":35_5_0" index="0" disallow="pedestrian tram rail_urban rail rail_electric rail_fast ship" speed="11.49" length="40.12" width="3.50" shape="-966.53,-182.69 -962.21,-184.39 -959.24,-185.24 -956.21,-185.77 -954.67,-185.87 -953.13,-185.84 -951.60,-185.64 -950.11,-185.25 -948.69,-184.65 -947.38,-183.84 -946.21,-182.84 -945.20,-181.67 -944.35,-180.38 -943.65,-179.01 -943.08,-177.58 -942.62,-176.11 -941.97,-173.09 -941.62,-170.03 -941.47,-165.39"/>
    </edge>

    <edge id="46591" from="35" to="3" priority="3" type="highway.residential" spreadType="center" length="70.01" shape="-949.54,-180.89 -1029.06,-151.04">
        <lane id="46591_0" index="0" disallow="pedestrian tram rail_urban rail rail_electric rail_fast ship" speed="36.11" length="70.01" width="3.50" customShape="1" shape="-965.10,-179.50 -1015.94,-156.88 -1029.06,-151.04"/>
    </edge>
    <edge id="46592" from="21" to="35" priority="3" type="highway.residential" spreadType="center" length="70.00" shape="-1030.47,-154.24 -950.77,-184.16">
        <lane id="46592_0" index="0" disallow="pedestrian tram rail_urban rail rail_electric rail_fast ship" speed="36.11" length="70.00" width="3.50" customShape="1" shape="-1030.47,-154.24 -1017.36,-160.08 -966.52,-182.70"/>
    </edge>
    <edge id="46616" from="34" to="33" priority="3" type="highway.residential" spreadType="center" length="39.61" shape="-859.59,-218.31 -933.32,-215.24">
        <lane id="46616_0" index="0" disallow="pedestrian tram rail_urban rail rail_electric rail_fast ship" speed="36.11" length="39.61" width="3.50" customShape="1" shape="-880.03,-216.96 -883.58,-216.77 -897.74,-215.73 -919.50,-213.66"/>
    </edge>
    <edge id="46617" from="33" to="34" priority="3" type="highway.residential" spreadType="center" length="39.77" shape="-933.47,-218.74 -859.74,-221.80">
        <lane id="46617_0" index="0" disallow="pedestrian tram rail_urban rail rail_electric rail_fast ship" speed="36.11" length="39.77" width="3.50" customShape="1" shape="-919.84,-217.14 -898.02,-219.22 -883.79,-220.26 -880.21,-220.46"/>
    </edge>
    <edge id="46619" from="28" to="34" priority="3" type="highway.residential" spreadType="center" length="23.62" shape="-816.96,-222.99 -859.59,-218.31">
        <lane id="46619_0" index="0" disallow="pedestrian tram rail_urban rail rail_electric rail_fast ship" speed="36.11" length="23.62" width="3.50" customShape="1" shape="-816.96,-222.99 -828.71,-221.60 -840.42,-220.22"/>
    </edge>
    <edge id="46620" from="34" to="25" priority="3" type="highway.residential" spreadType="center" length="23.56" shape="-859.97,-221.79 -817.42,-226.46">
        <lane id="46620_0" index="0" disallow="pedestrian tram rail_urban rail rail_electric rail_fast ship" speed="36.11" length="23.56" width="3.50" customShape="1" shape="-840.82,-223.70 -829.12,-225.08 -817.42,-226.46"/>
    </edge>
    <edge id="46638" from="35" to="5" priority="3" type="highway.residential" spreadType="center" length="70.00" shape="-948.45,-182.71 -940.08,-95.41">
        <lane id="46638_0" index="0" disallow="pedestrian tram rail_urban rail rail_electric rail_fast ship" speed="36.11" length="70.00" width="3.50" customShape="1" shape="-941.47,-165.39 -941.49,-162.37 -941.35,-145.16 -940.19,-103.16 -940.08,-95.41"/>
    </edge>
    <edge id="46639" from="22" to="35" priority="3" type="highway.residential" spreadType="center" length="70.01" shape="-943.58,-95.43 -951.94,-182.38">
        <lane id="46639_0" index="0" disallow="pedestrian tram rail_urban rail rail_electric rail_fast ship" speed="36.11" length="70.01" width="3.50" customShape="1" shape="-943.58,-95.43 -943.70,-103.33 -944.85,-145.20 -944.99,-162.39 -944.97,-165.42"/>
    </edge>
    <edge id="46641" from="33" to="35" priority="3" type="highway.residential" spreadType="center" length="0.29" shape="-931.82,-216.23 -948.66,-181.68">
        <lane id="46641_0" index="0" disallow="pedestrian tram rail_urban rail rail_electric rail_fast ship" speed="36.11" length="0.29" width="3.50" customShape="1" shape="-939.78,-201.18 -939.79,-201.05 -939.80,-200.89"/>
    </edge>
    <edge id="46642" from="35" to="33" priority="3" type="highway.residential" spreadType="center" length="0.28" shape="-951.80,-183.21 -934.97,-217.76">
        <lane id="46642_0" index="0" disallow="pedestrian tram rail_urban rail rail_electric rail_fast ship" speed="36.11" length="0.28" width="3.50" customShape="1" shape="-943.29,-201.19 -943.28,-201.32 -943.27,-201.47"/>
    </edge>
    <edge id="46644" from="23" to="33" priority="3" type="highway.residential" spreadType="center" length="70.03" shape="-931.93,-303.93 -931.65,-216.96">
        <lane id="46644_0" index="0" disallow="pedestrian tram rail_urban rail rail_electric rail_fast ship" speed="36.11" length="70.03" width="3.50" customShape="1" shape="-931.93,-303.93 -932.98,-290.17 -937.27,-234.10"/>
    </edge>
    <edge id="46645" from="33" to="11" priority="3" type="highway.residential" spreadType="center" length="70.00" shape="-935.15,-216.95 -935.42,-304.17">
        <lane id="46645_0" index="0" disallow="pedestrian tram rail_urban rail rail_electric rail_fast ship" speed="36.11" length="70.00" width="3.50" customShape="1" shape="-940.75,-234.37 -936.47,-290.44 -935.42,-304.17"/>
    </edge>
    <edge id="46821" from="29" to="34" priority="3" type="highway.residential" spreadType="center" length="34.58" shape="-860.80,-274.26 -857.96,-220.09">
        <lane id="46821_0" index="0" disallow="pedestrian tram rail_urban rail rail_electric rail_fast ship" speed="36.11" length="34.58" width="3.50" customShape="1" shape="-860.80,-274.26 -860.16,-256.99 -859.53,-239.70"/>
    </edge>
    <edge id="46822" from="34" to="31" priority="3" type="highway.residential" spreadType="center" length="34.60" shape="-861.45,-219.91 -864.30,-274.15">
        <lane id="46822_0" index="0" disallow="pedestrian tram rail_urban rail rail_electric rail_fast ship" speed="36.11" length="34.60" width="3.50" customShape="1" shape="-863.03,-239.57 -863.66,-256.86 -864.30,-274.15"/>
    </edge>
    <edge id="46902" from="34" to="32" priority="3" type="highway.residential" spreadType="center" length="14.78" shape="-858.00,-220.42 -852.35,-185.72">
        <lane id="46902_0" index="0" disallow="pedestrian tram rail_urban rail rail_electric rail_fast ship" speed="36.11" length="14.78" width="3.50" customShape="1" shape="-855.10,-200.24 -853.72,-192.97 -852.35,-185.72"/>
    </edge>
    <edge id="46903" from="30" to="34" priority="3" type="highway.residential" spreadType="center" length="14.80" shape="-855.79,-185.06 -861.45,-219.86">
        <lane id="46903_0" index="0" disallow="pedestrian tram rail_urban rail rail_electric rail_fast ship" speed="36.11" length="14.80" width="3.50" customShape="1" shape="-855.79,-185.06 -857.16,-192.32 -858.54,-199.60"/>
    </edge>

    <junction id="11" type="dead_end" x="-935.42" y="-304.17" incLanes="46645_0" intLanes="" shape="-937.17,-304.30 -933.68,-304.03" rightOfWay="edgePriority"/>
    <junction id="21" type="dead_end" x="-1030.47" y="-154.24" incLanes="" intLanes="" shape="-1029.76,-152.64 -1031.18,-155.84" rightOfWay="edgePriority"/>
    <junction id="22" type="dead_end" x="-943.58" y="-95.43" incLanes="" intLanes="" shape="-941.83,-95.45 -945.33,-95.40" rightOfWay="edgePriority"/>
    <junction id="23" type="dead_end" x="-931.93" y="-303.93" incLanes="" intLanes="" shape="-933.68,-304.06 -930.19,-303.80" rightOfWay="edgePriority"/>
    <junction id="25" type="dead_end" x="-817.42" y="-226.46" incLanes="46620_0" intLanes="" shape="-817.62,-228.20 -817.21,-224.73" rightOfWay="edgePriority"/>
    <junction id="28" type="dead_end" x="-816.96" y="-222.99" incLanes="" intLanes="" shape="-817.17,-224.73 -816.76,-221.26" rightOfWay="edgePriority"/>
    <junction id="29" type="dead_end" x="-860.80" y="-274.26" incLanes="" intLanes="" shape="-862.55,-274.20 -859.05,-274.33" rightOfWay="edgePriority"/>
    <junction id="3" type="dead_end" x="-1029.06" y="-151.04" incLanes="46591_0" intLanes="" shape="-1028.35,-149.44 -1029.77,-152.64" rightOfWay="edgePriority"/>
    <junction id="30" type="dead_end" x="-855.79" y="-185.06" incLanes="" intLanes="" shape="-854.07,-185.39 -857.51,-184.74" rightOfWay="edgePriority"/>
    <junction id="31" type="dead_end" x="-864.30" y="-274.15" incLanes="46822_0" intLanes="" shape="-866.05,-274.08 -862.55,-274.21" rightOfWay="edgePriority"/>
    <junction id="32" type="dead_end" x="-852.35" y="-185.72" incLanes="46902_0" intLanes="" shape="-850.63,-186.04 -854.07,-185.40" rightOfWay="edgePriority"/>
    <junction id="33" type="priority" x="-933.40" y="-216.99" incLanes="46616_0 46644_0 46642_0" intLanes=":33_0_0 :33_1_0 :33_2_0 :33_3_0 :33_4_0 :33_5_0" shape="-919.34,-211.92 -920.00,-218.88 -925.10,-218.86 -929.19,-219.85 -932.28,-221.85 -934.36,-224.88 -935.44,-228.91 -935.52,-233.97 -942.50,-234.50 -945.01,-201.58 -938.03,-201.05 -937.32,-203.89 -935.64,-206.32 -933.01,-208.34 -929.41,-209.95 -924.86,-211.14">
        <request index="0" response="001000" foes="001000" cont="0"/>
        <request index="1" response="111000" foes="111000" cont="0"/>
        <request index="2" response="000000" foes="100000" cont="0"/>
        <request index="3" response="000000" foes="100011" cont="0"/>
        <request index="4" response="000000" foes="000010" cont="0"/>
        <request index="5" response="001100" foes="001110" cont="0"/>
    </junction>
    <junction id="34" type="priority" x="-859.71" y="-220.06" incLanes="46903_0 46619_0 46821_0 46617_0" intLanes=":34_0_0 :34_1_0 :34_2_0 :34_3_0 :34_4_0 :34_5_0" shape="-860.25,-199.26 -853.38,-200.56 -853.85,-205.51 -853.26,-209.67 -851.60,-213.05 -848.87,-215.64 -845.07,-217.46 -840.20,-218.49 -841.03,-225.43 -845.98,-225.30 -850.07,-226.18 -853.29,-228.06 -855.65,-230.95 -857.15,-234.85 -857.78,-239.76 -864.77,-239.51 -865.04,-234.46 -866.23,-230.29 -868.36,-226.97 -871.41,-224.52 -875.40,-222.93 -880.32,-222.20 -879.93,-215.22 -874.80,-215.02 -870.42,-213.84 -866.77,-211.68 -863.86,-208.53 -861.69,-204.39">
        <request index="0" response="000010" foes="000110" cont="0"/>
        <request index="1" response="000000" foes="100101" cont="0"/>
        <request index="2" response="110011" foes="110011" cont="0"/>
        <request index="3" response="000000" foes="000000" cont="0"/>
        <request index="4" response="000000" foes="000100" cont="0"/>
        <request index="5" response="000010" foes="000110" cont="0"/>
    </junction>
    <junction id="35" type="priority" x="-950.19" y="-182.51" incLanes="46639_0 46641_0 46592_0" intLanes=":35_0_0 :35_1_0 :35_2_0 :35_3_0 :35_4_0 :35_5_0" shape="-946.72,-165.43 -939.72,-165.38 -938.06,-200.79 -945.03,-201.33 -945.81,-198.80 -947.75,-196.14 -950.87,-193.36 -955.16,-190.46 -960.61,-187.44 -967.24,-184.29 -964.39,-177.90 -959.27,-179.50 -954.91,-179.51 -951.41,-178.00 -948.83,-175.09 -947.24,-170.86">
        <request index="0" response="000000" foes="001000" cont="0"/>
        <request index="1" response="000000" foes="111000" cont="0"/>
        <request index="2" response="000000" foes="100000" cont="0"/>
        <request index="3" response="000011" foes="100011" cont="0"/>
        <request index="4" response="000010" foes="000010" cont="0"/>
        <request index="5" response="001110" foes="001110" cont="0"/>
    </junction>
    <junction id="5" type="dead_end" x="-940.08" y="-95.41" incLanes="46638_0" intLanes="" shape="-938.33,-95.44 -941.83,-95.38" rightOfWay="edgePriority"/>

    <connection from="46592" to="46642" fromLane="0" toLane="0" contPos="-4.00" shape="-966.52,-182.70 -960.95,-185.32 -956.43,-187.72 -952.92,-189.84 -950.40,-191.59 -948.02,-193.53 -946.55,-194.96 -945.23,-196.53 -944.15,-198.27 -943.74,-199.20 -943.44,-200.18 -943.29,-201.19" via=":35_4_0" dir="s" state="m"/>
    <connection from="46592" to="46638" fromLane="0" toLane="0" contPos="-4.00" shape="-966.52,-182.70 -962.21,-184.39 -959.24,-185.24 -956.21,-185.77 -954.67,-185.87 -953.13,-185.84 -951.60,-185.64 -950.11,-185.25 -948.69,-184.65 -947.38,-183.84 -946.21,-182.84 -945.20,-181.67 -944.35,-180.38 -943.65,-179.01 -943.08,-177.58 -942.62,-176.11 -941.97,-173.09 -941.62,-170.03 -941.47,-165.39" via=":35_5_0" dir="l" state="m"/>
    <connection from="46616" to="46641" fromLane="0" toLane="0" contPos="-4.00" shape="-919.48,-213.66 -923.57,-213.11 -926.62,-212.50 -929.62,-211.66 -931.56,-210.93 -933.43,-210.04 -935.20,-208.95 -936.02,-208.31 -936.79,-207.62 -937.49,-206.86 -938.11,-206.03 -938.65,-205.14 -939.09,-204.20 -939.42,-203.22 -939.65,-202.21 -939.78,-201.18" via=":33_0_0" dir="r" state="m"/>
    <connection from="46616" to="46645" fromLane="0" toLane="0" contPos="-4.00" shape="-919.48,-213.66 -922.08,-213.48 -924.72,-213.49 -927.40,-213.75 -930.03,-214.32 -931.38,-214.78 -932.67,-215.34 -933.92,-216.03 -935.09,-216.85 -936.18,-217.80 -937.16,-218.86 -938.01,-220.01 -938.73,-221.24 -939.33,-222.51 -939.81,-223.82 -940.19,-225.17 -940.66,-227.80 -940.86,-230.48 -940.75,-234.37" via=":33_1_0" dir="l" state="m"/>
    <connection from="46617" to="46822" fromLane="0" toLane="0" contPos="-4.00" shape="-880.21,-220.46 -876.96,-220.79 -874.83,-221.23 -872.75,-221.88 -870.77,-222.77 -868.93,-223.93 -868.08,-224.62 -867.29,-225.37 -866.57,-226.19 -865.92,-227.06 -865.34,-227.98 -864.40,-229.94 -863.73,-232.01 -863.29,-234.15 -863.06,-236.31 -863.03,-239.57" via=":34_3_0" dir="r" state="M"/>
    <connection from="46617" to="46620" fromLane="0" toLane="0" contPos="-4.00" shape="-880.21,-220.46 -869.83,-221.07 -854.27,-222.29 -840.82,-223.70" via=":34_4_0" dir="s" state="M"/>
    <connection from="46617" to="46902" fromLane="0" toLane="0" contPos="-4.00" shape="-880.21,-220.46 -876.49,-220.47 -874.02,-220.25 -871.58,-219.81 -869.20,-219.13 -866.91,-218.18 -864.76,-216.94 -862.79,-215.44 -861.04,-213.68 -859.52,-211.72 -858.24,-209.60 -857.18,-207.36 -855.95,-203.85 -855.10,-200.24" via=":34_5_0" dir="l" state="m"/>
    <connection from="46619" to="46616" fromLane="0" toLane="0" contPos="-4.00" shape="-840.42,-220.22 -853.94,-218.81 -869.59,-217.57 -880.03,-216.96" via=":34_1_0" dir="s" state="M"/>
    <connection from="46639" to="46591" fromLane="0" toLane="0" contPos="-4.00" shape="-944.97,-165.41 -945.10,-169.47 -945.40,-172.08 -945.94,-174.65 -946.31,-175.84 -946.77,-177.00 -947.32,-178.08 -947.97,-179.07 -948.72,-179.95 -949.56,-180.69 -950.51,-181.28 -951.55,-181.73 -952.67,-182.02 -953.85,-182.18 -955.07,-182.21 -956.29,-182.13 -958.84,-181.69 -961.35,-180.97 -965.10,-179.50" via=":35_0_0" dir="r" state="M"/>
    <connection from="46639" to="46642" fromLane="0" toLane="0" contPos="-4.00" shape="-944.97,-165.41 -944.66,-178.07 -943.88,-192.79 -943.29,-201.19" via=":35_1_0" dir="s" state="M"/>
    <connection from="46641" to="46638" fromLane="0" toLane="0" contPos="-4.00" shape="-939.80,-200.89 -940.39,-192.58 -941.16,-177.94 -941.47,-165.39" via=":35_2_0" dir="s" state="M"/>
    <connection from="46641" to="46591" fromLane="0" toLane="0" contPos="-4.00" shape="-939.80,-200.89 -939.99,-199.64 -940.33,-198.39 -940.82,-197.17 -942.03,-195.07 -943.50,-193.19 -945.13,-191.51 -947.72,-189.29 -950.47,-187.31 -954.26,-184.95 -959.12,-182.32 -965.10,-179.50" via=":35_3_0" dir="L" state="m"/>
    <connection from="46642" to="46645" fromLane="0" toLane="0" contPos="-4.00" shape="-943.27,-201.47 -942.01,-217.92 -940.75,-234.37" via=":33_4_0" dir="s" state="M"/>
    <connection from="46642" to="46617" fromLane="0" toLane="0" contPos="-4.00" shape="-943.27,-201.47 -943.11,-202.72 -942.84,-203.99 -942.45,-205.24 -941.93,-206.45 -941.29,-207.59 -940.55,-208.67 -939.71,-209.66 -938.79,-210.56 -937.79,-211.39 -935.74,-212.76 -933.56,-213.88 -931.30,-214.78 -927.90,-215.79 -924.43,-216.51 -919.84,-217.14" via=":33_5_0" dir="l" state="m"/>
    <connection from="46644" to="46617" fromLane="0" toLane="0" contPos="-4.00" shape="-937.26,-234.13 -937.35,-230.76 -937.19,-228.51 -936.79,-226.29 -936.49,-225.21 -936.10,-224.15 -935.62,-223.13 -935.05,-222.16 -934.38,-221.25 -933.62,-220.43 -932.77,-219.69 -931.85,-219.04 -930.86,-218.50 -929.83,-218.05 -928.76,-217.69 -926.56,-217.21 -924.32,-216.99 -922.07,-216.99 -919.84,-217.14" via=":33_2_0" dir="r" state="M"/>
    <connection from="46644" to="46641" fromLane="0" toLane="0" contPos="-4.00" shape="-937.26,-234.13 -938.52,-217.66 -939.78,-201.18" via=":33_3_0" dir="s" state="M"/>
    <connection from="46821" to="46616" fromLane="0" toLane="0" contPos="-4.00" shape="-859.53,-239.71 -859.57,-235.96 -859.84,-233.43 -860.36,-230.91 -861.16,-228.44 -862.29,-226.09 -863.02,-224.94 -863.82,-223.87 -864.70,-222.87 -865.67,-221.95 -866.74,-221.09 -868.95,-219.70 -871.33,-218.63 -873.79,-217.86 -876.30,-217.35 -880.03,-216.96" via=":34_2_0" dir="l" state="m"/>
    <connection from="46903" to="46616" fromLane="0" toLane="0" contPos="-4.00" shape="-858.54,-199.60 -859.29,-202.78 -860.36,-205.87 -861.27,-207.79 -862.36,-209.60 -863.64,-211.25 -865.10,-212.72 -866.75,-213.98 -868.54,-215.02 -870.47,-215.82 -872.50,-216.40 -874.61,-216.78 -876.74,-216.97 -880.03,-216.96" via=":34_0_0" dir="r" state="m"/>

    <connection from=":33_0" to="46641" fromLane="0" toLane="0" dir="r" state="M"/>
    <connection from=":33_1" to="46645" fromLane="0" toLane="0" dir="l" state="M"/>