<routes>
	<vehicle depart="0.1" departLane="0" departPos="70.03107201592267" departSpeed="0.0" id="331" type="bus">
		<route edges="46644 46641"/>
	</vehicle>
	<vehicle depart="0.1" departLane="0" departPos="5.039491832853534" departSpeed="4.6077939" id="31" type="passenger">
		<route edges=":33_5 46617"/>
	</vehicle>
	<vehicle depart="0.1" departLane="0" departPos="19.137937529292984" departSpeed="1.2474119" id="33" type="passenger">
		<route edges="46616 46641"/>
	</vehicle>
	<vehicle depart="0.1" departLane="0" departPos="17.287827277880204" departSpeed="3.9393826" id="38" type="passenger">
		<route edges=":35_1 46642 46617"/>
	</vehicle>
	<vehicle depart="0.1" departLane="0" departPos="22.933272196297914" departSpeed="4.731523" id="315" type="passenger">
		<route edges=":35_4 46642 46617 46620"/>
	</vehicle>
	<vehicle depart="0.1" departLane="0" departPos="31.47648191241324" departSpeed="1.3009799" id="324" type="passenger">
		<route edges=":34_0 46616 46641"/>
	</vehicle>
	<vehicle depart="0.1" departLane="0" departPos="27.599132259870665" departSpeed="2.3643187" id="30" type="truck">
		<route edges="46616 46641"/>
	</vehicle>
	<vehicle depart="0.1" departLane="0" departPos="12.415131700432577" departSpeed="1.1670337" id="322" type="truck">
		<route edges="46616 46641"/>
	</vehicle>
</routes>
