<routes>
	<vehicle depart="0.1" departLane="0" departPos="62.40032802554934" departSpeed="0.0" id="35" type="passenger">
		<route edges="77026 77551"/>
	</vehicle>
	<vehicle depart="0.1" departLane="0" departPos="33.021397617350544" departSpeed="0.0" id="318" type="passenger">
		<route edges="77549 77552"/>
	</vehicle>
	<vehicle depart="0.1" departLane="0" departPos="25.520316786248298" departSpeed="0.0" id="319" type="passenger">
		<route edges="77549 77552"/>
	</vehicle>
	<vehicle depart="0.1" departLane="0" departPos="69.90167605707693" departSpeed="0.0" id="326" type="passenger">
		<route edges="77026 77551"/>
	</vehicle>
	<vehicle depart="0.1" departLane="0" departPos="16.1058729771036" departSpeed="16.640413" id="377" type="passenger">
		<route edges=":47_1 77548 77545"/>
	</vehicle>
	<vehicle depart="0.1" departLane="0" departPos="7.846245110329194" departSpeed="10.857255" id="379" type="passenger">
		<route edges=":48_0 77551 77548"/>
	</vehicle>
	<vehicle depart="0.1" departLane="0" departPos="22.236004906538266" departSpeed="7.475116" id="382" type="passenger">
		<route edges="77554 77027"/>
	</vehicle>
	<vehicle depart="0.1" departLane="0" departPos="2.5" departSpeed="2.8145279" id="383" type="passenger">
		<route edges="77554 77027"/>
	</vehicle>
</routes>
