<!-- generated on 2020-12-18 15:58:43.378090 by ipykernel_launcher.py v1_2_0+5214-53edc58fcd
-->
<tlLogics/>
