<!-- generated on 2020-12-18 15:58:43.124974 by ipykernel_launcher.py v1_2_0+5214-53edc58fcd
-->
<edges>
	<edge from="1" function="normal" id="3498" length="9.586095898357156" numLanes="1" priority="1" speed="36.11111111111111" spreadType="center" to="2">
		<lane allow="moped bicycle pedestrian custom1 trailer evehicle rail_urban ship private truck vip custom2 authority delivery rail_electric taxi tram army hov coach motorcycle passenger bus rail emergency" index="0" length="9.586095898357156" shape="84.81545,70.7961 75.2347,71.11619999999999" speed="36.11111111111111" width="4.771086938004798"/>
	</edge>
	<edge from="2" function="normal" id="3716" length="18.680147901632274" numLanes="1" priority="1" speed="36.11111111111111" spreadType="center" to="3">
		<lane allow="moped bicycle pedestrian custom1 trailer evehicle rail_urban ship private vip custom2 authority delivery rail_electric taxi tram army hov coach motorcycle passenger rail emergency" index="0" length="18.680147901632274" shape="75.2347,71.11619999999999 71.25085000000001,72.55760000000001 68.39525,75.06025 67.34375,77.45035 66.6411,79.4786 66.7861,82.6236 67.77725,85.17855" speed="36.11111111111111" width="3.353872355949167"/>
	</edge>
	<edge from="4" function="normal" id="3509" length="15.632980848532545" numLanes="3" priority="1" speed="36.11111111111111" spreadType="center" to="5">
		<lane allow="moped bicycle pedestrian custom1 trailer evehicle rail_urban ship private truck vip custom2 authority delivery rail_electric taxi tram army hov coach motorcycle passenger bus rail emergency" index="0" length="15.632980848532545" shape="-25.9776,5.77675 -21.581400000000002,3.5959 -11.970949999999998,-1.18765" speed="36.11111111111111" width="3.2317602711216065"/>
		<lane allow="moped bicycle pedestrian custom1 trailer evehicle rail_urban ship private truck vip custom2 authority delivery rail_electric taxi tram army hov coach motorcycle passenger bus rail emergency" index="1" length="15.632980848532545" shape="-24.58805,8.5778 -20.15065,6.3765 -10.54015,1.59295" speed="36.11111111111111" width="3.0217924167619454"/>
		<lane allow="moped bicycle pedestrian custom1 trailer evehicle rail_urban ship private truck vip custom2 authority delivery rail_electric taxi tram army hov coach motorcycle passenger bus rail emergency" index="2" length="15.632980848532545" shape="-23.2369,11.301449999999999 -18.744300000000003,9.072799999999999 -9.2334,4.3522" speed="36.11111111111111" width="3.058956104621312"/>
	</edge>
	<edge from="5" function="normal" id="3672" length="43.429643178518916" numLanes="1" priority="1" speed="36.11111111111111" spreadType="center" to="6">
		<lane allow="moped bicycle pedestrian custom1 trailer evehicle rail_urban ship private vip custom2 authority delivery rail_electric taxi tram army hov coach motorcycle passenger rail emergency" index="0" length="43.429643178518916" shape="-9.2334,4.3522 -4.0762,1.81185 -0.4934,0.32735000000000003 3.35245,-1.0313 6.1331500000000005,-2.0016 8.6191,-2.4984499999999996 10.853950000000001,-2.7108499999999998 13.19015,-2.5938499999999998 14.83465,-2.45945 15.9441,-2.2032 16.88385,-1.6202 17.8031,-0.27 18.9588,1.65835 21.62625,5.8957999999999995 23.200000000000003,8.94755 24.671750000000003,12.0597" speed="36.11111111111111" width="2.91718217634758"/>
	</edge>
	<edge from="6" function="normal" id="3456" length="24.710920579823167" numLanes="3" priority="1" speed="36.11111111111111" spreadType="center" to="7">
		<lane allow="moped bicycle pedestrian custom1 trailer evehicle rail_urban ship private truck vip custom2 authority delivery rail_electric taxi tram army hov coach motorcycle passenger bus rail emergency" index="0" length="24.710920579823167" shape="30.1984,9.3 33.794200000000004,16.4936 37.647549999999995,24.4107 41.0102,31.5191" speed="36.11111111111111" width="3.0476685974692153"/>
		<lane allow="moped bicycle pedestrian custom1 trailer evehicle rail_urban ship private truck vip custom2 authority delivery rail_electric taxi tram army hov coach motorcycle passenger bus rail emergency" index="1" length="24.710920579823167" shape="27.36955,10.69425 31.22965,18.26115 34.9079,25.82675 38.34675,32.8572" speed="36.11111111111111" width="2.9148241130469654"/>
		<lane allow="moped bicycle pedestrian custom1 trailer evehicle rail_urban ship private truck vip custom2 authority delivery rail_electric taxi tram army hov coach motorcycle passenger bus rail emergency" index="2" length="24.710920579823167" shape="24.671750000000003,12.0597 28.60025,19.8219 32.3887,27.52445 35.76025,34.17105" speed="36.11111111111111" width="2.888004380190582"/>
	</edge>
	<edge from="7" function="normal" id="3462" length="8.466645302154799" numLanes="3" priority="1" speed="36.11111111111111" spreadType="center" to="8">
		<lane allow="moped bicycle pedestrian custom1 trailer evehicle rail_urban ship private truck vip custom2 authority delivery rail_electric taxi tram army hov coach motorcycle passenger bus rail emergency" index="0" length="8.466645302154799" shape="41.0102,31.5191 44.8895,39.08185" speed="36.11111111111111" width="3.0476685974692153"/>
		<lane allow="moped bicycle pedestrian custom1 trailer evehicle rail_urban ship private truck vip custom2 authority delivery rail_electric taxi tram army hov coach motorcycle passenger bus rail emergency" index="1" length="8.466645302154799" shape="38.34675,32.8572 42.16485,40.466899999999995" speed="36.11111111111111" width="2.9148241130469654"/>
		<lane allow="moped bicycle pedestrian custom1 trailer evehicle rail_urban ship private truck vip custom2 authority delivery rail_electric taxi tram army hov coach motorcycle passenger bus rail emergency" index="2" length="8.466645302154799" shape="35.76025,34.17105 39.5009,41.766549999999995" speed="36.11111111111111" width="2.888004380190582"/>
	</edge>
	<edge from="8" function="normal" id="3468" length="22.238196627283095" numLanes="3" priority="1" speed="36.11111111111111" spreadType="center" to="9">
		<lane allow="moped bicycle pedestrian custom1 trailer evehicle rail_urban ship private truck vip custom2 authority delivery rail_electric taxi tram army hov coach motorcycle passenger bus rail emergency" index="0" length="22.238196627283095" shape="44.8895,39.08185 49.48885,48.373400000000004 54.8655,59.0544" speed="36.11111111111111" width="3.032663985673318"/>
		<lane allow="moped bicycle pedestrian custom1 trailer evehicle rail_urban ship private truck vip custom2 authority delivery rail_electric taxi tram army hov coach motorcycle passenger bus rail emergency" index="1" length="22.238196627283095" shape="42.16485,40.466899999999995 46.811099999999996,49.788650000000004 52.06295,60.39445" speed="36.11111111111111" width="2.9980111023810445"/>
		<lane allow="moped bicycle pedestrian custom1 trailer evehicle rail_urban ship private truck vip custom2 authority delivery rail_electric taxi tram army hov coach motorcycle passenger bus rail emergency" index="2" length="22.238196627283095" shape="39.5009,41.766549999999995 44.11725,51.1656 49.3066,61.726150000000004" speed="36.11111111111111" width="2.9350875710956212"/>
	</edge>
	<edge from="9" function="normal" id="3713" length="29.142816807837455" numLanes="3" priority="1" speed="36.11111111111111" spreadType="center" to="10">
		<lane allow="moped bicycle pedestrian custom1 trailer evehicle rail_urban ship private truck vip custom2 authority delivery rail_electric taxi tram army hov coach motorcycle passenger bus rail emergency" index="0" length="29.142816807837455" shape="54.8655,59.0544 58.78165,67.04755 62.72825,74.9941 66.48435,82.60475 67.6577,85.2373" speed="36.11111111111111" width="3.1576335062828313"/>
		<lane allow="moped bicycle pedestrian custom1 trailer evehicle rail_urban ship private truck vip custom2 authority delivery rail_electric taxi tram army hov coach motorcycle passenger rail emergency" index="1" length="29.142816807837455" shape="52.06295,60.39445 55.50045,67.33245 59.44695,75.27905000000001 63.617599999999996,83.77635000000001 64.9026,86.5907" speed="36.11111111111111" width="2.9348672269797813"/>
		<lane allow="moped bicycle pedestrian custom1 trailer evehicle rail_urban ship private truck vip custom2 authority delivery rail_electric taxi tram army hov coach motorcycle passenger bus rail emergency" index="2" length="29.142816807837455" shape="49.3066,61.726150000000004 52.1392,67.4262 55.97395,75.1281 60.8125,84.93945 62.19865,87.91895" speed="36.11111111111111" width="3.067322045367916"/>
	</edge>
	<edge from="5" function="normal" id="3636" length="10.13044496320374" numLanes="2" priority="1" speed="36.11111111111111" spreadType="center" to="11">
		<lane allow="moped bicycle pedestrian custom1 trailer evehicle rail_urban ship private truck vip custom2 authority delivery rail_electric taxi tram army hov coach motorcycle passenger bus rail emergency" index="0" length="10.13044496320374" shape="-11.970949999999998,-1.18765 -2.95985,-5.873" speed="36.11111111111111" width="3.232186618993402"/>
		<lane allow="moped bicycle pedestrian custom1 trailer evehicle rail_urban ship private truck vip custom2 authority delivery rail_electric taxi tram army hov coach motorcycle passenger bus rail emergency" index="1" length="10.13044496320374" shape="-10.54015,1.59295 -1.51545,-3.0093" speed="36.11111111111111" width="3.0254656269738045"/>
	</edge>
	<edge from="11" function="normal" id="3658" length="24.834013362889845" numLanes="2" priority="1" speed="36.11111111111111" spreadType="center" to="12">
		<lane allow="moped bicycle pedestrian custom1 trailer evehicle rail_urban ship private truck vip custom2 authority delivery rail_electric taxi tram army hov coach motorcycle passenger bus rail emergency" index="0" length="24.834013362889845" shape="-2.95985,-5.873 -0.06405,-7.3789 2.59145,-8.75965 5.3084,-10.17235 8.296700000000001,-11.72625 10.99835,-13.13115 13.64305,-14.5063 16.3586,-15.918299999999999 19.13035,-17.35955" speed="36.11111111111111" width="3.308908788407441"/>
		<lane allow="moped bicycle pedestrian custom1 trailer evehicle rail_urban ship private truck vip custom2 authority delivery rail_electric taxi tram army hov coach motorcycle passenger bus rail emergency" index="1" length="24.834013362889845" shape="-1.51545,-3.0093 1.3525500000000001,-4.4719 4.02355,-5.83395 6.76185,-7.2303 9.72645,-8.742049999999999 12.436900000000001,-10.1243 15.08685,-11.47555 17.8213,-12.86985 20.6081,-14.291" speed="36.11111111111111" width="3.1057834261261683"/>
	</edge>
	<edge from="12" function="normal" id="3676" length="16.155928389455166" numLanes="2" priority="1" speed="36.11111111111111" spreadType="center" to="13">
		<lane allow="moped bicycle pedestrian custom1 trailer evehicle rail_urban ship private truck vip custom2 authority delivery rail_electric taxi tram army hov coach motorcycle passenger bus rail emergency" index="0" length="16.155928389455166" shape="19.13035,-17.35955 25.15005,-20.3658 33.5841,-24.5778" speed="36.11111111111111" width="3.503454903377521"/>
		<lane allow="moped bicycle pedestrian custom1 trailer evehicle rail_urban ship private truck vip custom2 authority delivery rail_electric taxi tram army hov coach motorcycle passenger bus rail emergency" index="1" length="16.155928389455166" shape="20.6081,-14.291 26.63275,-17.2763 35.12895,-21.4862" speed="36.11111111111111" width="3.308224526842155"/>
	</edge>
	<edge from="13" function="normal" id="3525" length="17.280435272672808" numLanes="3" priority="1" speed="36.11111111111111" spreadType="center" to="14">
		<lane allow="moped bicycle pedestrian custom1 trailer evehicle rail_urban ship private truck vip custom2 authority delivery rail_electric taxi tram army hov coach motorcycle passenger bus rail emergency" index="0" length="17.280435272672808" shape="31.96105,-27.905900000000003 40.68835,-32.20095 47.47665000000001,-35.54175" speed="36.11111111111111" width="3.873902747875843"/>
		<lane allow="moped bicycle pedestrian custom1 trailer evehicle rail_urban ship private truck vip custom2 authority delivery rail_electric taxi tram army hov coach motorcycle passenger bus rail emergency" index="1" length="17.280435272672808" shape="33.5841,-24.5778 42.31125,-28.87135 49.1105,-32.2164" speed="36.11111111111111" width="3.511789538113011"/>
		<lane allow="moped bicycle pedestrian custom1 trailer evehicle rail_urban ship private truck vip custom2 authority delivery rail_electric taxi tram army hov coach motorcycle passenger bus rail emergency" index="2" length="17.280435272672808" shape="35.12895,-21.4862 43.80775,-25.7548 50.6353,-29.1129" speed="36.11111111111111" width="3.379496749517598"/>
	</edge>
	<edge from="5" function="normal" id="3600" length="24.19746751136553" numLanes="1" priority="1" speed="36.11111111111111" spreadType="center" to="15">
		<lane allow="moped bicycle pedestrian custom1 trailer evehicle rail_urban ship private vip custom2 authority delivery rail_electric taxi tram army hov coach motorcycle passenger rail emergency" index="0" length="24.19746751136553" shape="-11.970949999999998,-1.18765 -7.4826500000000005,-3.5826000000000002 -5.489649999999999,-4.7727 -3.8865999999999996,-5.6833 -3.1435,-6.16325 -2.7194,-6.75085 -2.6836,-7.5578 -3.0907999999999998,-8.9694 -3.8917,-10.93555 -4.87215,-13.0339 -7.665050000000001,-19.03585" speed="36.11111111111111" width="3.232186618993402"/>
	</edge>
	<edge from="15" function="normal" id="3542" length="74.2461753523541" numLanes="3" priority="1" speed="36.11111111111111" spreadType="center" to="16">
		<lane allow="moped bicycle pedestrian custom1 trailer evehicle rail_urban ship private truck vip custom2 authority delivery rail_electric taxi tram army hov coach motorcycle passenger bus rail emergency" index="0" length="74.2461753523541" shape="-7.665050000000001,-19.03585 -11.82635,-27.574550000000002 -15.8796,-36.504549999999995 -19.65165,-45.22305 -23.276400000000002,-54.467 -26.9914,-63.52485 -30.67505,-72.55245 -34.3591,-81.6109 -36.64615,-87.40690000000001" speed="36.11111111111111" width="2.8235974571457607"/>
		<lane allow="moped bicycle pedestrian custom1 trailer evehicle rail_urban ship private truck vip custom2 authority delivery rail_electric taxi tram army hov coach motorcycle passenger bus rail emergency" index="1" length="74.2461753523541" shape="-4.821400000000001,-20.5285 -9.0648,-29.0833 -13.14695,-37.866699999999994 -16.8876,-46.5549 -20.541600000000003,-55.675200000000004 -24.194699999999997,-64.73405 -27.84615,-73.6697 -31.43745,-82.7295 -33.8287,-88.8532" speed="36.11111111111111" width="2.969358961122753"/>
		<lane allow="moped bicycle pedestrian custom1 trailer evehicle rail_urban ship private truck vip custom2 authority delivery rail_electric taxi tram army hov coach motorcycle passenger bus rail emergency" index="2" length="74.2461753523541" shape="-2.17335,-21.91845 -6.3961500000000004,-30.598399999999998 -10.4465,-39.3207 -14.218050000000002,-48.0085 -17.7129,-56.80785 -21.3684,-66.03595 -25.02025,-75.00245000000001 -28.48705,-84.00235 -30.9982,-90.30625" speed="36.11111111111111" width="2.962201547835663"/>
	</edge>
	<edge from="17" function="normal" id="3532" length="13.634900230131379" numLanes="2" priority="1" speed="36.11111111111111" spreadType="center" to="18">
		<lane allow="moped bicycle pedestrian custom1 trailer evehicle rail_urban ship private truck vip custom2 authority delivery rail_electric taxi tram army hov coach motorcycle passenger bus rail emergency" index="0" length="13.634900230131379" shape="55.181,-19.86105 48.24835,-16.4722 42.903949999999995,-13.85965" speed="36.11111111111111" width="3.607231317783765"/>
		<lane allow="moped bicycle pedestrian custom1 trailer evehicle rail_urban ship private truck vip custom2 authority delivery rail_electric taxi tram army hov coach motorcycle passenger bus rail emergency" index="1" length="13.634900230131379" shape="53.576350000000005,-23.127000000000002 46.71785,-19.7738 41.327,-17.13835" speed="36.11111111111111" width="3.623546501702441"/>
	</edge>
	<edge from="18" function="normal" id="3534" length="6.57557739613032" numLanes="3" priority="1" speed="36.11111111111111" spreadType="center" to="19">
		<lane allow="moped bicycle pedestrian custom1 trailer evehicle rail_urban ship private truck vip custom2 authority delivery rail_electric taxi tram army hov coach motorcycle passenger bus rail emergency" index="0" length="6.57557739613032" shape="42.903949999999995,-13.85965 38.4811,-7.8378" speed="36.11111111111111" width="3.245737241367513"/>
		<lane allow="moped bicycle pedestrian custom1 trailer evehicle rail_urban ship private truck vip custom2 authority delivery rail_electric taxi tram army hov coach motorcycle passenger bus rail emergency" index="1" length="6.57557739613032" shape="42.903949999999995,-13.85965 36.99195,-10.91965" speed="36.11111111111111" width="3.6024336135451573"/>
		<lane allow="moped bicycle pedestrian custom1 trailer evehicle rail_urban ship private truck vip custom2 authority delivery rail_electric taxi tram army hov coach motorcycle passenger bus rail emergency" index="2" length="6.57557739613032" shape="41.327,-17.13835 35.43895,-14.21105" speed="36.11111111111111" width="3.671307975367907"/>
	</edge>
	<edge from="19" function="normal" id="3536" length="6.6083636571393365" numLanes="3" priority="1" speed="36.11111111111111" spreadType="center" to="20">
		<lane allow="moped bicycle pedestrian custom1 trailer evehicle rail_urban ship private truck vip custom2 authority delivery rail_electric taxi tram army hov coach motorcycle passenger bus rail emergency" index="0" length="6.6083636571393365" shape="38.4811,-7.8378 32.50155,-4.9483500000000005" speed="36.11111111111111" width="3.1901671962453633"/>
		<lane allow="moped bicycle pedestrian custom1 trailer evehicle rail_urban ship private truck vip custom2 authority delivery rail_electric taxi tram army hov coach motorcycle passenger bus rail emergency" index="1" length="6.6083636571393365" shape="36.99195,-10.91965 31.0518,-7.9749" speed="36.11111111111111" width="3.521568769738851"/>
		<lane allow="moped bicycle pedestrian custom1 trailer evehicle rail_urban ship private truck vip custom2 authority delivery rail_electric taxi tram army hov coach motorcycle passenger bus rail emergency" index="2" length="6.6083636571393365" shape="35.43895,-14.21105 29.5289,-11.2544" speed="36.11111111111111" width="3.677371487897298"/>
	</edge>
	<edge from="20" function="normal" id="3620" length="6.669397413559938" numLanes="2" priority="1" speed="36.11111111111111" spreadType="center" to="21">
		<lane allow="moped bicycle pedestrian custom1 trailer evehicle rail_urban ship private truck vip custom2 authority delivery rail_electric taxi tram army hov coach motorcycle passenger bus rail emergency" index="0" length="6.669397413559938" shape="31.0518,-7.9749 25.0743,-5.0168" speed="36.11111111111111" width="3.45582194564477"/>
		<lane allow="moped bicycle pedestrian custom1 trailer evehicle rail_urban ship private truck vip custom2 authority delivery rail_electric taxi tram army hov coach motorcycle passenger bus rail emergency" index="1" length="6.669397413559938" shape="29.5289,-11.2544 23.52145,-8.2413" speed="36.11111111111111" width="3.7020390124902804"/>
	</edge>
	<edge from="21" function="normal" id="3662" length="24.644895567957" numLanes="2" priority="1" speed="36.11111111111111" spreadType="center" to="22">
		<lane allow="moped bicycle pedestrian custom1 trailer evehicle rail_urban ship private truck vip custom2 authority delivery rail_electric taxi tram army hov coach motorcycle passenger bus rail emergency" index="0" length="24.644895567957" shape="25.0743,-5.0168 22.25775,-3.6229500000000003 19.48095,-2.2488 16.83155,-0.9376 14.109449999999999,0.40954999999999997 11.23775,1.8307499999999999 8.44895,3.2108999999999996 5.7469,4.5481 2.9863,5.9144000000000005" speed="36.11111111111111" width="3.213340816035547"/>
		<lane allow="moped bicycle pedestrian custom1 trailer evehicle rail_urban ship private truck vip custom2 authority delivery rail_electric taxi tram army hov coach motorcycle passenger bus rail emergency" index="1" length="24.644895567957" shape="23.52145,-8.2413 20.716949999999997,-6.8346 17.956400000000002,-5.45075 15.30835,-4.1221 12.591650000000001,-2.76065 9.68985,-1.30305 6.9211,0.08704999999999996 4.23125,1.43625 1.4347,2.8393" speed="36.11111111111111" width="3.6754043750314063"/>
	</edge>
	<edge from="22" function="normal" id="3640" length="10.509859510002975" numLanes="2" priority="1" speed="36.11111111111111" spreadType="center" to="23">
		<lane allow="moped bicycle pedestrian custom1 trailer evehicle rail_urban ship private truck vip custom2 authority delivery rail_electric taxi tram army hov coach motorcycle passenger bus rail emergency" index="0" length="10.509859510002975" shape="2.9863,5.9144000000000005 -6.8472,10.735800000000001" speed="36.11111111111111" width="3.167378581729693"/>
		<lane allow="moped bicycle pedestrian custom1 trailer evehicle rail_urban ship private truck vip custom2 authority delivery rail_electric taxi tram army hov coach motorcycle passenger bus rail emergency" index="1" length="10.509859510002975" shape="1.4347,2.8393 -7.982899999999999,7.5047" speed="36.11111111111111" width="3.6754043750314063"/>
	</edge>
	<edge from="23" function="normal" id="3517" length="14.496753904957334" numLanes="3" priority="1" speed="36.11111111111111" spreadType="center" to="24">
		<lane allow="moped bicycle pedestrian custom1 trailer evehicle rail_urban ship private truck vip custom2 authority delivery rail_electric taxi tram army hov coach motorcycle passenger bus rail emergency" index="0" length="14.496753904957334" shape="-5.1299,15.18975 -14.343399999999999,19.629150000000003 -18.0919,21.673000000000002" speed="36.11111111111111" width="5.130906839926057"/>
		<lane allow="moped bicycle pedestrian custom1 trailer evehicle rail_urban ship private truck vip custom2 authority delivery rail_electric taxi tram army hov coach motorcycle passenger bus rail emergency" index="1" length="14.496753904957334" shape="-6.8472,10.735800000000001 -16.237650000000002,15.77785 -19.92315,17.98155" speed="36.11111111111111" width="3.110520139783699"/>
		<lane allow="moped bicycle pedestrian custom1 trailer evehicle rail_urban ship private truck vip custom2 authority delivery rail_electric taxi tram army hov coach motorcycle passenger bus rail emergency" index="2" length="14.496753904957334" shape="-7.982899999999999,7.5047 -17.7646,12.75235 -21.43,14.943999999999999" speed="36.11111111111111" width="3.6645851129425266"/>
	</edge>
	<edge from="20" function="normal" id="3668" length="38.24329000786905" numLanes="1" priority="1" speed="36.11111111111111" spreadType="center" to="15">
		<lane allow="moped bicycle pedestrian custom1 trailer evehicle rail_urban ship private vip custom2 authority delivery rail_electric taxi tram army hov coach motorcycle passenger rail emergency" index="0" length="38.24329000786905" shape="29.5289,-11.2544 26.19185,-10.145700000000001 23.2577,-9.33885 20.762050000000002,-8.59125 18.3467,-8.287700000000001 16.144849999999998,-8.20275 14.60865,-8.3311 12.6384,-8.5379 11.0343,-8.815249999999999 9.086500000000001,-9.1286 7.277800000000001,-9.8856 5.741899999999999,-11.1357 4.30225,-13.045300000000001 1.60195,-16.72305 -2.17335,-21.91845" speed="36.11111111111111" width="3.0119886487169913"/>
	</edge>
	<edge from="20" function="normal" id="3602" length="16.407319351256646" numLanes="1" priority="1" speed="36.11111111111111" spreadType="center" to="6">
		<lane allow="moped bicycle pedestrian custom1 trailer evehicle rail_urban ship private vip custom2 authority delivery rail_electric taxi tram army hov coach motorcycle passenger rail emergency" index="0" length="16.407319351256646" shape="32.50155,-4.9483500000000005 30.64895,-3.6642 29.4989,-2.4475 28.5712,-0.8185 27.99375,0.9902 27.935850000000002,2.36065 28.298299999999998,4.4869 29.1494,6.86215 30.1984,9.3" speed="36.11111111111111" width="2.9347200002725997"/>
	</edge>
	<edge from="9" function="normal" id="3718" length="22.831237741532025" numLanes="1" priority="1" speed="36.11111111111111" spreadType="center" to="25">
		<lane allow="moped bicycle pedestrian custom1 trailer evehicle rail_urban ship private vip custom2 authority delivery rail_electric taxi tram army hov coach motorcycle passenger rail emergency" index="0" length="22.831237741532025" shape="54.8655,59.0544 57.4872,62.426100000000005 59.55195,64.3413 62.14575,65.515 66.77405,65.9189 75.024,66.05615" speed="36.11111111111111" width="3.1576335062828313"/>
	</edge>
	<edge from="25" function="normal" id="3500" length="9.586145870473697" numLanes="1" priority="1" speed="36.11111111111111" spreadType="center" to="26">
		<lane allow="moped bicycle pedestrian custom1 trailer evehicle rail_urban ship private truck vip custom2 authority delivery rail_electric taxi tram army hov coach motorcycle passenger bus rail emergency" index="0" length="9.586145870473697" shape="75.024,66.05615 84.6048,65.73605" speed="36.11111111111111" width="5.358070392408075"/>
	</edge>
	<edge from="27" function="normal" id="3555" length="8.747302513489512" numLanes="4" priority="1" speed="36.11111111111111" spreadType="center" to="28">
		<lane allow="moped bicycle pedestrian custom1 trailer evehicle rail_urban ship private truck vip custom2 authority delivery rail_electric taxi tram army hov coach motorcycle passenger bus rail emergency" index="0" length="8.747302513489512" shape="-18.326700000000002,-96.8112 -14.3505,-89.01985" speed="36.11111111111111" width="3.5111446353005746"/>
		<lane allow="moped bicycle pedestrian custom1 trailer evehicle rail_urban ship private truck vip custom2 authority delivery rail_electric taxi tram army hov coach motorcycle passenger bus rail emergency" index="1" length="8.747302513489512" shape="-21.2705,-95.3 -17.240099999999998,-87.41805" speed="36.11111111111111" width="2.9942633818687363"/>
		<lane allow="moped bicycle pedestrian custom1 trailer evehicle rail_urban ship private truck vip custom2 authority delivery rail_electric taxi tram army hov coach motorcycle passenger bus rail emergency" index="2" length="8.747302513489512" shape="-23.97,-93.91425 -19.8818,-85.8809" speed="36.11111111111111" width="3.012211639310892"/>
		<lane allow="moped bicycle pedestrian custom1 trailer evehicle rail_urban ship private truck vip custom2 authority delivery rail_electric taxi tram army hov coach motorcycle passenger bus rail emergency" index="3" length="8.747302513489512" shape="-26.74795,-92.48814999999999 -22.567,-84.4425" speed="36.11111111111111" width="3.0805742451692346"/>
	</edge>
	<edge from="28" function="normal" id="3559" length="17.692935382095456" numLanes="5" priority="1" speed="36.11111111111111" spreadType="center" to="29">
		<lane allow="moped bicycle pedestrian custom1 trailer evehicle rail_urban ship private truck vip custom2 authority delivery rail_electric taxi tram army hov coach motorcycle passenger bus rail emergency" index="0" length="17.692935382095456" shape="-14.3505,-89.01985 -11.0048,-82.0522 -6.49575,-72.9734" speed="36.11111111111111" width="3.5111446353005746"/>
		<lane allow="moped bicycle pedestrian custom1 trailer evehicle rail_urban ship private truck vip custom2 authority delivery rail_electric taxi tram army hov coach motorcycle passenger bus rail emergency" index="1" length="17.692935382095456" shape="-17.240099999999998,-87.41805 -13.8453,-80.49289999999999 -9.285,-71.38235" speed="36.11111111111111" width="2.8911201583469373"/>
		<lane allow="moped bicycle pedestrian custom1 trailer evehicle rail_urban ship private truck vip custom2 authority delivery rail_electric taxi tram army hov coach motorcycle passenger bus rail emergency" index="2" length="17.692935382095456" shape="-19.8818,-85.8809 -16.5353,-79.09355 -11.975,-69.98304999999999" speed="36.11111111111111" width="3.012211639310892"/>
		<lane allow="moped bicycle pedestrian custom1 trailer evehicle rail_urban ship private truck vip custom2 authority delivery rail_electric taxi tram army hov coach motorcycle passenger bus rail emergency" index="3" length="17.692935382095456" shape="-22.567,-84.4425 -19.20615,-77.73235 -14.6458,-68.62180000000001" speed="36.11111111111111" width="2.8198292501497306"/>
		<lane allow="moped bicycle pedestrian custom1 trailer evehicle rail_urban ship private truck vip custom2 authority delivery rail_electric taxi tram army hov coach motorcycle passenger rail emergency" index="4" length="17.692935382095456" shape="-22.567,-84.4425 -20.7344,-76.70734999999999 -17.25355,-67.16905" speed="36.11111111111111" width="2.9068515975192115"/>
	</edge>
	<edge from="29" function="normal" id="3568" length="47.086685123121356" numLanes="5" priority="1" speed="36.11111111111111" spreadType="center" to="30">
		<lane allow="moped bicycle pedestrian custom1 trailer evehicle rail_urban ship private truck vip custom2 authority delivery rail_electric taxi tram army hov coach motorcycle passenger bus rail emergency" index="0" length="47.086685123121356" shape="-6.49575,-72.9734 -2.29675,-64.5184 1.9608999999999999,-55.94385 6.39935,-47.007850000000005 10.697949999999999,-38.546899999999994 14.88345,-30.8978" speed="36.11111111111111" width="3.346148869969775"/>
		<lane allow="moped bicycle pedestrian custom1 trailer evehicle rail_urban ship private truck vip custom2 authority delivery rail_electric taxi tram army hov coach motorcycle passenger bus rail emergency" index="1" length="47.086685123121356" shape="-9.285,-71.38235 -5.065,-62.9516 -0.8727,-54.5762 3.6656000000000004,-45.5095 7.883649999999999,-37.0826 11.75515,-29.258" speed="36.11111111111111" width="2.891084628647177"/>