<!-- generated on 2020-12-18 15:58:43.224447 by ipykernel_launcher.py v1_2_0+5214-53edc58fcd
-->
<nodes>
	<node id="1" type="from" x="84.81545" y="70.7961"/>
	<node id="2" type="to" x="75.2347" y="71.11619999999999"/>
	<node id="3" type="to" x="67.77725" y="85.17855"/>
	<node id="4" type="from" x="-24.600849999999998" y="8.552"/>
	<node id="5" type="to" x="-10.5815" y="1.5858333333333334"/>
	<node id="6" type="to" x="24.671750000000003" y="12.0597"/>
	<node id="7" type="to" x="38.3724" y="32.84911666666667"/>
	<node id="8" type="to" x="42.18508333333333" y="40.43843333333333"/>
	<node id="9" type="to" x="52.07835" y="60.39166666666667"/>
	<node id="10" type="to" x="64.91965" y="86.58231666666666"/>
	<node id="11" type="to" x="-2.23765" y="-4.44115"/>
	<node id="12" type="to" x="19.869225" y="-15.825275"/>
	<node id="13" type="to" x="34.356525000000005" y="-23.032"/>
	<node id="14" type="to" x="49.07415" y="-32.29035"/>
	<node id="15" type="to" x="-7.665050000000001" y="-19.03585"/>
	<node id="16" type="to" x="-33.82435" y="-88.85545000000002"/>
	<node id="17" type="from" x="54.378675" y="-21.494025"/>
	<node id="18" type="to" x="42.115474999999996" y="-15.498999999999999"/>
	<node id="19" type="to" x="36.970666666666666" y="-10.9895"/>
	<node id="20" type="to" x="31.027416666666667" y="-8.059216666666666"/>
	<node id="21" type="to" x="24.297875" y="-6.62905"/>
	<node id="22" type="to" x="2.2105" y="4.37685"/>
	<node id="23" type="to" x="-7.415049999999999" y="9.12025"/>
	<node id="24" type="to" x="-19.81501666666667" y="18.199516666666668"/>
	<node id="25" type="to" x="75.024" y="66.05615"/>
	<node id="26" type="to" x="84.6048" y="65.73605"/>
	<node id="27" type="from" x="-22.5787875" y="-94.6284"/>
	<node id="28" type="to" x="-18.50985" y="-86.690325"/>
	<node id="29" type="to" x="-11.93102" y="-70.02592999999999"/>
	<node id="30" type="to" x="9.1238" y="-27.86116"/>
	<node id="31" type="to" x="14.273283333333334" y="-16.787233333333333"/>
	<node id="32" type="to" x="21.633300000000002" y="-1.4117333333333333"/>
	<node id="33" type="from" x="54.044259999999994" y="91.92458"/>
	<node id="34" type="to" x="41.08562" y="65.54965999999999"/>
	<node id="35" type="to" x="31.32405" y="45.872659999999996"/>
	<node id="36" type="to" x="26.149891666666665" y="38.95708333333334"/>
	<node id="37" type="to" x="15.153674999999998" y="16.861108333333338"/>
	<node id="38" type="to" x="7.821599999999999" y="5.339166666666667"/>
	<node id="39" type="to" x="0.49530000000000013" y="-9.555016666666667"/>
</nodes>
