<routes>
	<vehicle depart="0.1" departLane="4" departPos="24.09840613091041" departSpeed="0.0" id="2716" type="passenger">
		<route edges="3450 3664 3525"/>
	</vehicle>
	<vehicle depart="0.1" departLane="4" departPos="18.40417167612031" departSpeed="0.0" id="2749" type="passenger">
		<route edges="3450 3664 3525"/>
	</vehicle>
	<vehicle depart="0.1" departLane="4" departPos="0" departSpeed="0.0" id="2770" type="passenger">
		<route edges="3450 3664 3525"/>
	</vehicle>
	<vehicle depart="0.1" departLane="4" departPos="6.240799481869211" departSpeed="0.0" id="2793" type="passenger">
		<route edges="3438 3450 3664 3525"/>
	</vehicle>
	<vehicle depart="0.1" departLane="2" departPos="35.49436429602685" departSpeed="2.6579" id="2810" type="passenger">
		<route edges="3542"/>
	</vehicle>
	<vehicle depart="0.1" departLane="4" departPos="0" departSpeed="0.0" id="2815" type="passenger">
		<route edges="3450 3664 3525"/>
	</vehicle>
	<vehicle depart="0.1" departLane="5" departPos="24.06281554417825" departSpeed="0.0" id="2829" type="passenger">
		<route edges="3450 3664 3525"/>
	</vehicle>
	<vehicle depart="0.1" departLane="5" departPos="17.21012136371305" departSpeed="0.0" id="2839" type="passenger">
		<route edges="3450 3664 3525"/>
	</vehicle>
	<vehicle depart="0.1" departLane="5" departPos="0" departSpeed="0.0" id="2858" type="passenger">
		<route edges="3450 3664 3525"/>
	</vehicle>
	<vehicle depart="0.1" departLane="3" departPos="14.822077761526664" departSpeed="0.0" id="2867" type="passenger">
		<route edges="3426 3438 3450 3664 3525"/>
	</vehicle>
	<vehicle depart="0.1" departLane="3" departPos="21.203846528615532" departSpeed="0.0" id="2870" type="passenger">
		<route edges="3426 3438 3450 3664 3525"/>
	</vehicle>
	<vehicle depart="0.1" departLane="3" departPos="0" departSpeed="0.0" id="2872" type="passenger">
		<route edges="3426 3438 3450 3664 3525"/>
	</vehicle>
	<vehicle depart="0.1" departLane="3" departPos="22.586573655461216" departSpeed="0.0" id="2873" type="passenger">
		<route edges="3705 3426 3438 3450 3664 3525"/>
	</vehicle>
	<vehicle depart="0.1" departLane="3" departPos="15.448957780321424" departSpeed="0.14935" id="2878" type="passenger">
		<route edges="3705 3426 3438 3450 3664 3525"/>
	</vehicle>
	<vehicle depart="0.1" departLane="0" departPos="74.28443874208686" departSpeed="7.0957" id="2879" type="passenger">
		<route edges="3542"/>
	</vehicle>
	<vehicle depart="0.1" departLane="3" departPos="29.455265030351704" departSpeed="0.0" id="2880" type="passenger">
		<route edges="3705 3426 3438 3450 3664 3525"/>
	</vehicle>
	<vehicle depart="0.1" departLane="0" departPos="50.730850959852276" departSpeed="1.6276" id="2882" type="passenger">
		<route edges="3542"/>
	</vehicle>
	<vehicle depart="0.1" departLane="0" departPos="60.99081363112288" departSpeed="4.0843" id="2884" type="passenger">
		<route edges="3542"/>
	</vehicle>
	<vehicle depart="0.1" departLane="3" departPos="0" departSpeed="0.0" id="2886" type="passenger">
		<route edges="3705 3426 3438 3450 3664 3525"/>
	</vehicle>
	<vehicle depart="0.1" departLane="0" departPos="42.974299565340964" departSpeed="1.0211" id="2888" type="passenger">
		<route edges="3542"/>
	</vehicle>
	<vehicle depart="0.1" departLane="3" departPos="0" departSpeed="0.0" id="2890" type="passenger">
		<route edges="3705 3426 3438 3450 3664 3525"/>
	</vehicle>
	<vehicle depart="0.1" departLane="1" departPos="65.57748375944647" departSpeed="4.8372" id="2891" type="passenger">
		<route edges="3542"/>
	</vehicle>
	<vehicle depart="0.1" departLane="5" departPos="0" departSpeed="0.0" id="2893" type="passenger">
		<route edges="3450 3664 3525"/>
	</vehicle>
	<vehicle depart="0.1" departLane="1" departPos="39.4937933547623" departSpeed="0.012192" id="2894" type="passenger">
		<route edges="3542"/>
	</vehicle>
	<vehicle depart="0.1" departLane="1" departPos="52.651306231908315" departSpeed="2.1397" id="2895" type="passenger">
		<route edges="3542"/>
	</vehicle>
	<vehicle depart="0.1" departLane="1" departPos="24.20670894344779" departSpeed="0.01524" id="2896" type="passenger">
		<route edges="3450 3610 3646 3626 3542"/>
	</vehicle>
	<vehicle depart="0.1" departLane="2" departPos="0" departSpeed="0.0" id="2897" type="passenger">
		<route edges="3632 3652 3616 3456 3462 3468 3713"/>
	</vehicle>
	<vehicle depart="0.1" departLane="1" departPos="15.256733207925027" departSpeed="0.0" id="2898" type="passenger">
		<route edges="3450 3610 3646 3626 3542"/>
	</vehicle>
	<vehicle depart="0.1" departLane="1" departPos="47.086685123121356" departSpeed="0.0" id="2900" type="passenger">
		<route edges="3568 3680 3525"/>
	</vehicle>
	<vehicle depart="0.1" departLane="5" departPos="4.974668942939553" departSpeed="0.11582" id="2901" type="passenger">
		<route edges="3438 3450 3664 3525"/>
	</vehicle>
	<vehicle depart="0.1" departLane="2" departPos="0" departSpeed="0.0" id="2903" type="passenger">
		<route edges="3450 3610 3646 3626 3542"/>
	</vehicle>
	<vehicle depart="0.1" departLane="3" departPos="23.046141780285463" departSpeed="0.018288" id="2904" type="passenger">
		<route edges="3450 3610 3646 3626 3542"/>
	</vehicle>
	<vehicle depart="0.1" departLane="3" departPos="14.151810793190704" departSpeed="0.024384" id="2908" type="passenger">
		<route edges="3450 3610 3646 3626 3542"/>
	</vehicle>
	<vehicle depart="0.1" departLane="4" departPos="11.86681658564927" departSpeed="0.024384" id="2909" type="passenger">
		<route edges="3426 3438 3450 3664 3525"/>
	</vehicle>
	<vehicle depart="0.1" departLane="1" departPos="0" departSpeed="0.0" id="2912" type="passenger">
		<route edges="3450 3610 3646 3626 3542"/>
	</vehicle>
	<vehicle depart="0.1" departLane="2" departPos="23.257853370640625" departSpeed="0.0" id="2914" type="passenger">
		<route edges="3450 3610 3646 3626 3542"/>
	</vehicle>
	<vehicle depart="0.1" departLane="3" departPos="0" departSpeed="1.0942" id="2915" type="passenger">
		<route edges="3450 3610 3646 3626 3542"/>
	</vehicle>
	<vehicle depart="0.1" departLane="2" departPos="16.47629600899909" departSpeed="0.0" id="2916" type="passenger">
		<route edges="3450 3610 3646 3626 3542"/>
	</vehicle>
	<vehicle depart="0.1" departLane="1" departPos="14.522305759420092" departSpeed="0.0" id="2922" type="passenger">
		<route edges="3426 3438 3450 3610 3646 3626 3542"/>
	</vehicle>
	<vehicle depart="0.1" departLane="1" departPos="0" departSpeed="0.0" id="2924" type="passenger">
		<route edges="3450 3610 3646 3626 3542"/>
	</vehicle>
	<vehicle depart="0.1" departLane="1" departPos="0" departSpeed="2.6731" id="2926" type="passenger">
		<route edges="3438 3450 3610 3646 3626 3542"/>
	</vehicle>
	<vehicle depart="0.1" departLane="1" departPos="33.54191946353868" departSpeed="0.009144" id="2928" type="passenger">
		<route edges="3568 3680 3525"/>
	</vehicle>
	<vehicle depart="0.1" departLane="1" departPos="47.086685123121356" departSpeed="0.0" id="2929" type="passenger">
		<route edges="3568 3680 3525"/>
	</vehicle>
	<vehicle depart="0.1" departLane="1" departPos="18.985965229029656" departSpeed="7.0927" id="2930" type="passenger">
		<route edges="3705 3426 3438 3450 3610 3646 3626 3542"/>
	</vehicle>
	<vehicle depart="0.1" departLane="1" departPos="0" departSpeed="0.0" id="2931" type="passenger">
		<route edges="3632 3652 3616 3456 3462 3468 3713"/>
	</vehicle>
	<vehicle depart="0.1" departLane="2" departPos="37.219885524503816" departSpeed="0.0" id="2935" type="passenger">
		<route edges="3568 3632 3652 3616 3456 3462 3468 3713"/>
	</vehicle>
	<vehicle depart="0.1" departLane="4" departPos="20.617099379996326" departSpeed="0.18593" id="2936" type="passenger">
		<route edges="3426 3438 3450 3664 3525"/>
	</vehicle>
	<vehicle depart="0.1" departLane="1" departPos="26.205125357475577" departSpeed="0.0" id="2937" type="passenger">
		<route edges="3568 3680 3525"/>
	</vehicle>
	<vehicle depart="0.1" departLane="2" departPos="28.513696645111153" departSpeed="0.0" id="2938" type="passenger">
		<route edges="3568 3632 3652 3616 3456 3462 3468 3713"/>
	</vehicle>
	<vehicle depart="0.1" departLane="1" departPos="19.361051082115424" departSpeed="0.0" id="2939" type="passenger">
		<route edges="3568 3680 3525"/>
	</vehicle>
	<vehicle depart="0.1" departLane="0" departPos="36.244811557924386" departSpeed="0.10363" id="2944" type="passenger">
		<route edges="3542"/>
	</vehicle>
	<vehicle depart="0.1" departLane="1" departPos="0" departSpeed="0.0" id="2945" type="passenger">
		<route edges="3568 3680 3525"/>
	</vehicle>
	<vehicle depart="0.1" departLane="3" departPos="47.161908523916466" departSpeed="0.0" id="2948" type="passenger">
		<route edges="3568 3632 3652 3616 3456 3462 3468 3713"/>
	</vehicle>
	<vehicle depart="0.1" departLane="2" departPos="63.73303084943101" departSpeed="6.1387" id="2952" type="passenger">
		<route edges="3542"/>
	</vehicle>
	<vehicle depart="0.1" departLane="2" departPos="22.177270051980937" departSpeed="0.0" id="2954" type="passenger">
		<route edges="3568 3632 3652 3616 3456 3462 3468 3713"/>
	</vehicle>
	<vehicle depart="0.1" departLane="1" departPos="0" departSpeed="0.0" id="2955" type="passenger">
		<route edges="3568 3680 3525"/>
	</vehicle>
	<vehicle depart="0.1" departLane="1" departPos="15.572610255599503" departSpeed="0.0" id="2958" type="passenger">
		<route edges="3559 3568 3680 3525"/>
	</vehicle>
	<vehicle depart="0.1" departLane="2" departPos="0" departSpeed="0.0" id="2959" type="passenger">
		<route edges="3568 3632 3652 3616 3456 3462 3468 3713"/>
	</vehicle>
	<vehicle depart="0.1" departLane="3" departPos="31.924359840465304" departSpeed="0.0" id="2963" type="passenger">
		<route edges="3568 3632 3652 3616 3456 3462 3468 3713"/>
	</vehicle>
	<vehicle depart="0.1" departLane="0" departPos="0" departSpeed="0.0" id="2965" type="passenger">
		<route edges="3602 3456 3462 3468 3713"/>
	</vehicle>
	<vehicle depart="0.1" departLane="1" departPos="0" departSpeed="0.0" id="2966" type="passenger">
		<route edges="3559 3568 3680 3525"/>
	</vehicle>
	<vehicle depart="0.1" departLane="3" departPos="24.883801881730147" departSpeed="0.018288" id="2967" type="passenger">
		<route edges="3568 3632 3652 3616 3456 3462 3468 3713"/>
	</vehicle>
	<vehicle depart="0.1" departLane="1" departPos="0" departSpeed="0.0" id="2968" type="passenger">
		<route edges="3559 3568 3680 3525"/>
	</vehicle>
	<vehicle depart="0.1" departLane="2" departPos="0" departSpeed="0.0" id="2969" type="passenger">
		<route edges="3568 3632 3652 3616 3456 3462 3468 3713"/>
	</vehicle>
	<vehicle depart="0.1" departLane="1" departPos="0" departSpeed="0.0" id="2970" type="passenger">
		<route edges="3555 3559 3568 3680 3525"/>
	</vehicle>
	<vehicle depart="0.1" departLane="2" departPos="0" departSpeed="0.0" id="2971" type="passenger">
		<route edges="3568 3632 3652 3616 3456 3462 3468 3713"/>
	</vehicle>
	<vehicle depart="0.1" departLane="3" departPos="9.067128918516595" departSpeed="8.382" id="2972" type="passenger">
		<route edges="3555 3559 3568 3632 3652 3616 3456 3462 3468 3713"/>
	</vehicle>
	<vehicle depart="0.1" departLane="2" departPos="13.221169457279412" departSpeed="0.0" id="2973" type="passenger">
		<route edges="3559 3568 3632 3652 3616 3456 3462 3468 3713"/>
	</vehicle>
	<vehicle depart="0.1" departLane="0" departPos="26.046616348252222" departSpeed="8.7417" id="2974" type="passenger">
		<route edges="3568 3680 3525"/>
	</vehicle>
	<vehicle depart="0.1" departLane="0" departPos="0" departSpeed="0.018288" id="2976" type="passenger">
		<route edges="3536 3602 3456 3462 3468 3713"/>
	</vehicle>
	<vehicle depart="0.1" departLane="3" departPos="0" departSpeed="0.51206" id="2977" type="passenger">
		<route edges="3568 3632 3652 3616 3456 3462 3468 3713"/>
	</vehicle>
	<vehicle depart="0.1" departLane="0" departPos="0" departSpeed="0.0" id="2979" type="passenger">
		<route edges="3620 3662 3640 3517"/>
	</vehicle>
	<vehicle depart="0.1" departLane="1" departPos="24.94810016821578" departSpeed="15.6362" id="2980" type="passenger">
		<route edges="3713"/>
	</vehicle>
	<vehicle depart="0.1" departLane="2" departPos="0" departSpeed="0.0" id="2982" type="passenger">
		<route edges="3559 3568 3632 3652 3616 3456 3462 3468 3713"/>
	</vehicle>
	<vehicle depart="0.1" departLane="2" departPos="9.013772321425696" departSpeed="0.19507" id="2985" type="passenger">
		<route edges="3555 3559 3568 3632 3652 3616 3456 3462 3468"/>
	</vehicle>
	<vehicle depart="0.1" departLane="1" departPos="0" departSpeed="15.6454" id="2987" type="passenger">
		<route edges="3713"/>
	</vehicle>
	<vehicle depart="0.1" departLane="2" departPos="0" departSpeed="0.0" id="2988" type="passenger">
		<route edges="3555 3559 3568 3632 3652 3616 3456 3462 3468"/>
	</vehicle>
	<vehicle depart="0.1" departLane="1" departPos="0" departSpeed="7.3731" id="2991" type="passenger">
		<route edges="3456 3456 3462 3468 3713"/>
	</vehicle>
	<vehicle depart="0.1" departLane="1" departPos="7.2199368545127935" departSpeed="6.6446" id="2995" type="passenger">
		<route edges="3616 3456 3456 3462 3468 3713"/>
	</vehicle>
	<vehicle depart="0.1" departLane="0" departPos="0" departSpeed="11.2288" id="3000" type="passenger">
		<route edges="3676 3525"/>
	</vehicle>
	<vehicle depart="0.1" departLane="0" departPos="16.046234422698245" departSpeed="7.4737" id="21001" type="passenger">
		<route edges="3664 3664 3672 3616 3456 3456 3462 3468 3713"/>
	</vehicle>
	<vehicle depart="0.1" departLane="1" departPos="16.420832037924256" departSpeed="10.668" id="21002" type="passenger">
		<route edges="3658 3676 3525"/>
	</vehicle>
</routes>
