<routes>
	<vehicle depart="0.1" departLane="0" departPos="20.032004376276447" departSpeed="6.1952641" id="1" type="passenger">
		<route edges="50201 50213 50197"/>
	</vehicle>
	<vehicle depart="0.1" departLane="0" departPos="104.214359513" departSpeed="2.3753411" id="2" type="passenger">
		<route edges="50195 50211 50199"/>
	</vehicle>
	<vehicle depart="0.1" departLane="0" departPos="124.19919740372504" departSpeed="3.0635193" id="4" type="passenger">
		<route edges="50205 50207 50197"/>
	</vehicle>
	<vehicle depart="0.1" departLane="0" departPos="132.2003368699739" departSpeed="4.4617653" id="5" type="passenger">
		<route edges="50205 50217 50199"/>
	</vehicle>
	<vehicle depart="0.1" departLane="0" departPos="12.0296824929303" departSpeed="4.3250391" id="7" type="passenger">
		<route edges="50201 50213 50197"/>
	</vehicle>
</routes>
