<!-- generated on Tue Feb  9 22:08:12 2021 by Eclipse SUMO netconvert Version 1.8.0
<configuration xmlns:xsi="http://www.w3.org/2001/XMLSchema-instance" xsi:noNamespaceSchemaLocation="http://sumo.dlr.de/xsd/netconvertConfiguration.xsd">

    <input>
        <node-files value="./converted_scenarios/scenario-factory/ESP_Almansa-2_2_I-1-1/ESP_Almansa-2_2_I-1-1.nod.xml"/>
        <edge-files value="./converted_scenarios/scenario-factory/ESP_Almansa-2_2_I-1-1/ESP_Almansa-2_2_I-1-1.edg.xml"/>
        <connection-files value="./converted_scenarios/scenario-factory/ESP_Almansa-2_2_I-1-1/ESP_Almansa-2_2_I-1-1.con.xml"/>
        <tllogic-files value="./converted_scenarios/scenario-factory/ESP_Almansa-2_2_I-1-1/ESP_Almansa-2_2_I-1-1.tll.xml"/>
        <type-files value="/home/zen/commonroad-interactive-benchmarks/install/commonroad-map-tool/crmapconverter/sumo_map/templates/DEU.typ.xml"/>
    </input>

    <output>
        <output-file value="./converted_scenarios/scenario-factory/ESP_Almansa-2_2_I-1-1/ESP_Almansa-2_2_I-1-1.net.xml"/>
    </output>

    <processing>
        <geometry.remove.keep-edges.explicit value="true"/>
        <geometry.avoid-overlap value="true"/>
        <offset.disable-normalization value="true"/>
    </processing>

    <junctions>
        <no-turnarounds value="true"/>
        <junctions.internal-link-detail value="20"/>
    </junctions>

    <report>
        <aggregate-warnings value="5"/>
    </report>

    <random_number>
        <seed value="1234"/>
    </random_number>

</configuration>
--><net xmlns:xsi="http://www.w3.org/2001/XMLSchema-instance" version="1.6" junctionCornerDetail="5" junctionLinkDetail="20" limitTurnSpeed="5.50" xsi:noNamespaceSchemaLocation="http://sumo.dlr.de/xsd/net_file.xsd">

    <location netOffset="0.00,0.00" convBoundary="-662.74,322.33,-164.01,828.99" origBoundary="-662.74,322.33,-164.01,828.99" projParameter="!"/>

    <type id="highway.bridleway" priority="1" speed="2.78" allow="pedestrian" oneway="1" width="2.00"/>
    <type id="highway.bus_guideway" priority="1" speed="27.78" allow="bus" oneway="1"/>
    <type id="highway.cycleway" priority="1" speed="8.33" allow="bicycle" oneway="0" width="1.00"/>
    <type id="highway.footway" priority="1" speed="2.78" allow="pedestrian" oneway="1" width="2.00"/>
    <type id="highway.ford" priority="1" speed="2.78" allow="army" oneway="0"/>
    <type id="highway.living_street" priority="2" speed="2.78" disallow="tram rail_urban rail rail_electric rail_fast ship" oneway="0"/>
    <type id="highway.motorway" priority="14" speed="39.44" allow="private emergency authority army vip passenger hov taxi bus coach delivery truck trailer motorcycle evehicle custom1 custom2" oneway="1"/>
    <type id="highway.motorway_link" priority="9" speed="22.22" allow="private emergency authority army vip passenger hov taxi bus coach delivery truck trailer motorcycle evehicle custom1 custom2" oneway="1"/>
    <type id="highway.path" priority="1" speed="2.78" allow="pedestrian bicycle" oneway="0" width="2.00"/>
    <type id="highway.pedestrian" priority="1" speed="2.78" allow="pedestrian" oneway="1" width="2.00"/>
    <type id="highway.primary" priority="12" speed="27.78" disallow="pedestrian tram rail_urban rail rail_electric rail_fast ship" oneway="0"/>
    <type id="highway.primary_link" priority="7" speed="22.22" disallow="pedestrian tram rail_urban rail rail_electric rail_fast ship" oneway="0"/>
    <type id="highway.raceway" priority="15" speed="83.33" allow="vip" oneway="0"/>
    <type id="highway.residential" priority="3" speed="13.89" disallow="pedestrian tram rail_urban rail rail_electric rail_fast ship" oneway="0"/>
    <type id="highway.secondary" priority="11" speed="27.78" disallow="pedestrian tram rail_urban rail rail_electric rail_fast ship" oneway="0"/>
    <type id="highway.secondary_link" priority="6" speed="22.22" disallow="pedestrian tram rail_urban rail rail_electric rail_fast ship" oneway="0"/>
    <type id="highway.service" priority="1" speed="5.56" allow="pedestrian delivery bicycle" oneway="0"/>
    <type id="highway.stairs" priority="1" speed="1.39" allow="pedestrian" oneway="1" width="2.00"/>
    <type id="highway.step" priority="1" speed="1.39" allow="pedestrian" oneway="1" width="2.00"/>
    <type id="highway.steps" priority="1" speed="1.39" allow="pedestrian" oneway="1" width="2.00"/>
    <type id="highway.tertiary" priority="10" speed="22.22" disallow="pedestrian tram rail_urban rail rail_electric rail_fast ship" oneway="0"/>
    <type id="highway.tertiary_link" priority="5" speed="22.22" disallow="pedestrian tram rail_urban rail rail_electric rail_fast ship" oneway="0"/>
    <type id="highway.track" priority="1" speed="5.56" allow="pedestrian motorcycle moped bicycle" oneway="0"/>
    <type id="highway.trunk" priority="13" speed="27.78" disallow="pedestrian bicycle tram rail_urban rail rail_electric rail_fast ship" oneway="0"/>
    <type id="highway.trunk_link" priority="8" speed="22.22" disallow="pedestrian bicycle tram rail_urban rail rail_electric rail_fast ship" oneway="0"/>
    <type id="highway.unclassified" priority="4" speed="13.89" disallow="pedestrian tram rail_urban rail rail_electric rail_fast ship" oneway="0"/>
    <type id="highway.unsurfaced" priority="1" speed="8.33" disallow="tram rail_urban rail rail_electric rail_fast ship" oneway="0"/>
    <type id="railway.highspeed" priority="21" speed="69.44" allow="rail_fast" oneway="1"/>
    <type id="railway.light_rail" priority="19" speed="27.78" allow="rail_urban" oneway="1"/>
    <type id="railway.preserved" priority="16" speed="27.78" allow="rail" oneway="1"/>
    <type id="railway.rail" priority="20" speed="44.44" allow="rail" oneway="1"/>
    <type id="railway.subway" priority="18" speed="27.78" allow="rail_urban" oneway="1"/>
    <type id="railway.tram" priority="17" speed="13.89" allow="tram" oneway="1"/>

    <edge id=":237_0" function="internal">
        <lane id=":237_0_0" index="0" disallow="pedestrian tram rail_urban rail rail_electric rail_fast ship" speed="11.21" length="28.69" width="3.50" shape="-405.39,530.29 -407.96,528.21 -409.81,527.01 -411.78,526.00 -413.86,525.26 -414.93,525.00 -416.02,524.83 -417.12,524.76 -418.22,524.77 -419.32,524.89 -420.40,525.10 -421.47,525.40 -423.51,526.24 -425.42,527.35 -427.19,528.66 -428.84,530.13 -430.38,531.71"/>
    </edge>
    <edge id=":237_1" function="internal">
        <lane id=":237_1_0" index="0" disallow="pedestrian tram rail_urban rail rail_electric rail_fast ship" speed="36.11" length="38.83" width="3.50" shape="-405.39,530.29 -419.80,517.28 -434.20,504.26"/>
    </edge>
    <edge id=":237_2" function="internal">
        <lane id=":237_2_0" index="0" disallow="pedestrian tram rail_urban rail rail_electric rail_fast ship" speed="12.16" length="34.14" width="3.50" shape="-405.39,530.29 -408.18,527.50 -409.84,525.47 -411.28,523.27 -412.43,520.92 -412.88,519.68 -413.23,518.41 -413.47,517.12 -413.59,515.82 -413.60,514.50 -413.49,513.19 -413.28,511.90 -412.55,509.38 -411.48,506.98 -410.14,504.72 -408.60,502.59 -406.91,500.58"/>
    </edge>
    <edge id=":237_3" function="internal">
        <lane id=":237_3_0" index="0" disallow="pedestrian tram rail_urban rail rail_electric rail_fast ship" speed="11.16" length="28.55" width="3.50" shape="-404.31,502.93 -405.79,504.67 -407.11,506.50 -408.25,508.42 -409.14,510.42 -409.75,512.52 -409.91,513.53 -410.00,514.58 -409.99,515.63 -409.89,516.68 -409.70,517.71 -409.42,518.74 -409.07,519.71 -408.10,521.69 -406.89,523.54 -405.48,525.26 -403.05,527.69"/>
    </edge>
    <edge id=":237_4" function="internal">
        <lane id=":237_4_0" index="0" disallow="pedestrian tram rail_urban rail rail_electric rail_fast ship" speed="36.11" length="38.83" width="3.50" shape="-404.31,502.93 -417.34,517.32 -430.38,531.71"/>
    </edge>
    <edge id=":237_5" function="internal">
        <lane id=":237_5_0" index="0" disallow="pedestrian tram rail_urban rail rail_electric rail_fast ship" speed="12.19" length="34.23" width="3.50" shape="-404.31,502.93 -407.02,505.62 -409.05,507.25 -411.25,508.68 -413.62,509.81 -414.92,510.27 -416.23,510.62 -417.57,510.85 -418.93,510.96 -420.30,510.96 -421.65,510.83 -422.99,510.60 -424.31,510.25 -426.77,509.32 -429.09,508.11 -431.25,506.67 -434.20,504.26"/>
    </edge>
    <edge id=":237_6" function="internal">
        <lane id=":237_6_0" index="0" disallow="pedestrian tram rail_urban rail rail_electric rail_fast ship" speed="11.19" length="28.64" width="3.50" shape="-431.85,501.67 -429.29,503.76 -427.46,504.98 -425.51,506.00 -423.45,506.78 -422.38,507.06 -421.29,507.26 -420.20,507.36 -419.09,507.36 -418.00,507.27 -416.91,507.08 -415.84,506.81 -414.80,506.44 -412.82,505.49 -410.97,504.29 -409.25,502.91 -406.91,500.58"/>
    </edge>
    <edge id=":237_7" function="internal">
        <lane id=":237_7_0" index="0" disallow="pedestrian tram rail_urban rail rail_electric rail_fast ship" speed="36.11" length="38.81" width="3.50" shape="-431.85,501.67 -417.45,514.68 -403.05,527.69"/>
    </edge>
    <edge id=":237_8" function="internal">
        <lane id=":237_8_0" index="0" disallow="pedestrian tram rail_urban rail rail_electric rail_fast ship" speed="12.24" length="34.50" width="3.50" shape="-431.85,501.67 -429.05,504.49 -427.38,506.56 -425.93,508.78 -424.76,511.16 -424.32,512.41 -423.97,513.69 -423.73,515.00 -423.61,516.32 -423.60,517.65 -423.71,518.97 -423.93,520.28 -424.67,522.83 -425.75,525.25 -427.11,527.53 -428.66,529.68 -430.38,531.71"/>
    </edge>
    <edge id=":237_9" function="internal">
        <lane id=":237_9_0" index="0" disallow="pedestrian tram rail_urban rail rail_electric rail_fast ship" speed="11.24" length="28.92" width="3.50" shape="-432.97,529.36 -431.48,527.60 -430.13,525.74 -428.98,523.80 -428.08,521.78 -427.46,519.66 -427.29,518.63 -427.20,517.56 -427.21,516.50 -427.31,515.44 -427.50,514.39 -427.78,513.35 -428.13,512.36 -429.11,510.35 -430.33,508.48 -431.75,506.72 -434.20,504.26"/>
    </edge>
    <edge id=":237_10" function="internal">
        <lane id=":237_10_0" index="0" disallow="pedestrian tram rail_urban rail rail_electric rail_fast ship" speed="36.11" length="38.83" width="3.50" shape="-432.97,529.36 -419.94,514.97 -406.91,500.58"/>
    </edge>
    <edge id=":237_11" function="internal">
        <lane id=":237_11_0" index="0" disallow="pedestrian tram rail_urban rail rail_electric rail_fast ship" speed="12.21" length="34.26" width="3.50" shape="-432.97,529.36 -431.20,527.53 -429.27,525.82 -427.18,524.28 -424.89,522.96 -422.45,521.96 -421.12,521.58 -419.78,521.32 -418.43,521.18 -417.06,521.15 -415.70,521.25 -414.36,521.46 -413.02,521.78 -410.55,522.68 -408.20,523.87 -406.02,525.29 -403.05,527.69"/>
    </edge>
    <edge id=":238_0" function="internal">
        <lane id=":238_0_0" index="0" disallow="pedestrian tram rail_urban rail rail_electric rail_fast ship" speed="11.11" length="28.63" width="3.50" shape="-514.01,650.44 -516.53,648.33 -518.36,647.09 -520.30,646.05 -522.35,645.26 -523.42,644.98 -524.50,644.79 -525.60,644.69 -526.70,644.69 -527.80,644.79 -528.88,644.98 -529.95,645.27 -530.98,645.65 -532.96,646.62 -534.80,647.84 -536.50,649.24 -538.83,651.58"/>
    </edge>
    <edge id=":238_1" function="internal">
        <lane id=":238_1_0" index="0" disallow="pedestrian tram rail_urban rail rail_electric rail_fast ship" speed="36.11" length="38.90" width="3.50" shape="-514.01,650.44 -528.27,637.24 -542.55,624.01"/>
    </edge>
    <edge id=":238_2" function="internal">
        <lane id=":238_2_0" index="0" disallow="pedestrian tram rail_urban rail rail_electric rail_fast ship" speed="12.26" length="34.29" width="3.50" shape="-514.01,650.44 -515.81,648.65 -517.49,646.70 -519.01,644.59 -520.31,642.28 -521.29,639.83 -521.66,638.49 -521.91,637.15 -522.05,635.79 -522.06,634.43 -521.96,633.07 -521.74,631.73 -521.42,630.39 -520.52,627.91 -519.32,625.57 -517.89,623.38 -515.48,620.41"/>
    </edge>
    <edge id=":238_3" function="internal">
        <lane id=":238_3_0" index="0" disallow="pedestrian tram rail_urban rail rail_electric rail_fast ship" speed="11.26" length="28.76" width="3.50" shape="-512.88,622.76 -514.98,625.33 -516.19,627.19 -517.20,629.16 -517.95,631.24 -518.21,632.31 -518.38,633.41 -518.46,634.51 -518.45,635.62 -518.34,636.72 -518.13,637.81 -517.84,638.88 -517.02,640.93 -515.93,642.86 -514.64,644.65 -513.19,646.33 -511.63,647.87"/>
    </edge>
    <edge id=":238_4" function="internal">
        <lane id=":238_4_0" index="0" disallow="pedestrian tram rail_urban rail rail_electric rail_fast ship" speed="36.11" length="38.78" width="3.50" shape="-512.88,622.76 -525.86,637.17 -538.83,651.58"/>
    </edge>
    <edge id=":238_5" function="internal">
        <lane id=":238_5_0" index="0" disallow="pedestrian tram rail_urban rail rail_electric rail_fast ship" speed="12.14" length="34.14" width="3.50" shape="-512.88,622.76 -515.67,625.53 -517.71,627.18 -519.91,628.61 -522.28,629.75 -523.51,630.19 -524.78,630.53 -526.08,630.75 -527.38,630.87 -528.69,630.86 -530.00,630.74 -531.29,630.51 -533.80,629.75 -536.19,628.66 -538.44,627.30 -540.55,625.74 -542.55,624.01"/>
    </edge>
    <edge id=":238_6" function="internal">
        <lane id=":238_6_0" index="0" disallow="pedestrian tram rail_urban rail rail_electric rail_fast ship" speed="11.13" length="28.52" width="3.50" shape="-540.18,621.44 -538.44,622.95 -536.62,624.29 -534.72,625.44 -532.73,626.36 -530.64,626.99 -529.63,627.16 -528.58,627.26 -527.54,627.26 -526.49,627.17 -525.46,626.99 -524.44,626.72 -523.46,626.38 -521.48,625.43 -519.63,624.22 -517.90,622.83 -515.48,620.41"/>
    </edge>
    <edge id=":238_7" function="internal">
        <lane id=":238_7_0" index="0" disallow="pedestrian tram rail_urban rail rail_electric rail_fast ship" speed="36.11" length="38.91" width="3.50" shape="-540.18,621.44 -525.89,634.67 -511.63,647.87"/>
    </edge>
    <edge id=":238_8" function="internal">
        <lane id=":238_8_0" index="0" disallow="pedestrian tram rail_urban rail rail_electric rail_fast ship" speed="12.31" length="34.50" width="3.50" shape="-540.18,621.44 -537.38,624.30 -535.74,626.38 -534.31,628.62 -533.18,631.01 -532.75,632.27 -532.42,633.55 -532.19,634.86 -532.08,636.18 -532.08,637.51 -532.20,638.83 -532.42,640.13 -533.17,642.68 -534.24,645.10 -535.58,647.39 -537.13,649.55 -538.83,651.58"/>
    </edge>
    <edge id=":238_9" function="internal">
        <lane id=":238_9_0" index="0" disallow="pedestrian tram rail_urban rail rail_electric rail_fast ship" speed="11.31" length="28.97" width="3.50" shape="-541.44,649.25 -539.95,647.47 -538.62,645.61 -537.48,643.66 -536.57,641.64 -535.95,639.51 -535.77,638.47 -535.68,637.41 -535.67,636.34 -535.76,635.28 -535.95,634.22 -536.22,633.18 -536.56,632.18 -537.51,630.16 -538.71,628.28 -540.11,626.51 -542.55,624.01"/>
    </edge>
    <edge id=":238_10" function="internal">
        <lane id=":238_10_0" index="0" disallow="pedestrian tram rail_urban rail rail_electric rail_fast ship" speed="36.11" length="38.80" width="3.50" shape="-541.44,649.25 -528.46,634.83 -515.48,620.41"/>
    </edge>
    <edge id=":238_11" function="internal">
        <lane id=":238_11_0" index="0" disallow="pedestrian tram rail_urban rail rail_electric rail_fast ship" speed="12.11" length="34.28" width="3.50" shape="-541.44,649.25 -538.75,646.54 -536.74,644.89 -534.54,643.44 -532.18,642.28 -530.89,641.81 -529.58,641.45 -528.23,641.21 -526.87,641.08 -525.50,641.08 -524.14,641.20 -522.80,641.44 -521.47,641.79 -519.01,642.74 -516.70,643.98 -514.54,645.44 -511.63,647.87"/>
    </edge>
    <edge id=":239_0" function="internal">
        <lane id=":239_0_0" index="0" disallow="pedestrian tram rail_urban rail rail_electric rail_fast ship" speed="11.15" length="28.50" width="3.50" shape="-346.49,464.84 -348.16,463.43 -349.94,462.15 -351.84,461.05 -353.86,460.19 -354.90,459.86 -355.97,459.62 -357.06,459.47 -358.15,459.41 -359.25,459.45 -360.34,459.58 -361.41,459.81 -362.46,460.13 -364.48,460.99 -366.36,462.11 -368.12,463.42 -369.75,464.88 -371.28,466.46"/>
    </edge>
    <edge id=":239_1" function="internal">
        <lane id=":239_1_0" index="0" disallow="pedestrian tram rail_urban rail rail_electric rail_fast ship" speed="36.11" length="38.15" width="3.50" shape="-346.49,464.84 -354.85,457.19 -374.45,438.89"/>
    </edge>
    <edge id=":239_2" function="internal">
        <lane id=":239_2_0" index="0" disallow="pedestrian tram rail_urban rail rail_electric rail_fast ship" speed="36.11" length="38.05" width="3.50" shape="-372.04,436.35 -352.48,454.62 -344.15,462.24"/>
    </edge>
    <edge id=":239_3" function="internal">
        <lane id=":239_3_0" index="0" disallow="pedestrian tram rail_urban rail rail_electric rail_fast ship" speed="12.32" length="34.38" width="3.50" shape="-372.04,436.35 -370.17,438.24 -368.47,440.27 -366.98,442.45 -365.75,444.79 -364.86,447.28 -364.56,448.56 -364.37,449.87 -364.29,451.19 -364.33,452.51 -364.48,453.83 -365.09,456.40 -366.05,458.86 -367.29,461.19 -368.76,463.39 -371.28,466.46"/>
    </edge>
    <edge id=":239_4" function="internal">
        <lane id=":239_4_0" index="0" disallow="pedestrian tram rail_urban rail rail_electric rail_fast ship" speed="11.33" length="28.90" width="3.50" shape="-373.88,464.12 -371.67,461.42 -370.41,459.55 -369.35,457.57 -368.54,455.52 -368.04,453.38 -367.92,452.35 -367.89,451.28 -367.95,450.22 -368.10,449.17 -368.33,448.15 -369.07,446.08 -370.09,444.13 -371.36,442.28 -372.82,440.54 -374.45,438.89"/>
    </edge>
    <edge id=":239_5" function="internal">
        <lane id=":239_5_0" index="0" disallow="pedestrian tram rail_urban rail rail_electric rail_fast ship" speed="12.16" length="34.09" width="3.50" shape="-373.88,464.12 -372.11,462.29 -370.20,460.59 -368.13,459.04 -365.88,457.72 -363.46,456.69 -362.14,456.29 -360.82,456.01 -359.47,455.85 -358.11,455.81 -356.76,455.88 -355.42,456.08 -354.11,456.38 -352.80,456.78 -350.41,457.81 -348.16,459.12 -346.07,460.61 -344.15,462.24"/>
    </edge>
    <edge id=":240_0" function="internal">
        <lane id=":240_0_0" index="0" disallow="pedestrian tram rail_urban rail rail_electric rail_fast ship" speed="9.31" length="23.30" width="3.50" shape="-363.21,571.62 -363.84,570.82 -364.55,570.11 -365.32,569.55 -366.16,569.16 -367.07,568.94 -368.02,568.91 -369.01,569.05 -370.02,569.34 -371.02,569.75 -372.02,570.26 -372.98,570.85 -374.91,572.24 -376.73,573.79 -379.34,576.37 -381.81,579.11"/>
    </edge>
    <edge id=":240_1" function="internal">
        <lane id=":240_1_0" index="0" disallow="pedestrian tram rail_urban rail rail_electric rail_fast ship" speed="36.11" length="30.57" width="3.50" shape="-363.21,571.62 -364.39,570.01 -367.58,566.06 -371.65,561.52 -377.40,555.70 -384.14,549.41"/>
    </edge>
    <edge id=":240_2" function="internal">
        <lane id=":240_2_0" index="0" disallow="pedestrian tram rail_urban rail rail_electric rail_fast ship" speed="12.52" length="29.45" width="3.50" shape="-363.21,571.62 -364.49,569.46 -365.02,568.24 -365.41,567.00 -365.69,565.73 -365.84,564.45 -365.88,563.13 -365.63,560.64 -365.03,558.23 -364.17,555.94 -363.10,553.76 -361.26,550.73 -359.18,547.89 -356.95,545.23"/>
    </edge>
    <edge id=":240_3" function="internal">
        <lane id=":240_3_0" index="0" disallow="pedestrian tram rail_urban rail rail_electric rail_fast ship" speed="11.43" length="24.74" width="3.50" shape="-354.33,547.55 -356.31,549.91 -358.16,552.39 -359.80,555.01 -360.74,556.85 -361.52,558.76 -362.07,560.75 -362.34,562.79 -362.35,563.82 -362.26,564.85 -362.08,565.87 -361.79,566.86 -361.40,567.81 -360.36,569.59"/>
    </edge>
    <edge id=":240_4" function="internal">
        <lane id=":240_4_0" index="0" disallow="pedestrian tram rail_urban rail rail_electric rail_fast ship" speed="36.11" length="41.85" width="3.50" shape="-354.33,547.55 -374.48,570.59 -381.81,579.11"/>
    </edge>
    <edge id=":240_5" function="internal">
        <lane id=":240_5_0" index="0" disallow="pedestrian tram rail_urban rail rail_electric rail_fast ship" speed="12.16" length="34.23" width="3.50" shape="-354.33,547.55 -356.07,549.38 -357.97,551.11 -360.04,552.68 -362.31,554.02 -364.74,555.06 -366.07,555.45 -367.40,555.72 -368.76,555.88 -370.13,555.91 -371.49,555.82 -372.83,555.62 -374.17,555.30 -376.65,554.42 -378.99,553.23 -381.17,551.81 -384.14,549.41"/>
    </edge>
    <edge id=":240_6" function="internal">
        <lane id=":240_6_0" index="0" disallow="pedestrian tram rail_urban rail rail_electric rail_fast ship" speed="11.16" length="28.62" width="3.50" shape="-381.80,546.81 -379.23,548.89 -377.38,550.09 -375.42,551.08 -373.35,551.82 -372.27,552.07 -371.18,552.24 -370.09,552.31 -368.98,552.28 -367.89,552.15 -366.81,551.93 -365.75,551.62 -363.73,550.76 -361.84,549.63 -360.08,548.30 -358.45,546.82 -356.95,545.23"/>
    </edge>
    <edge id=":240_7" function="internal">
        <lane id=":240_7_0" index="0" disallow="pedestrian tram rail_urban rail rail_electric rail_fast ship" speed="36.11" length="31.34" width="3.50" shape="-381.80,546.81 -374.93,553.22 -369.06,559.17 -364.87,563.84 -361.60,567.91 -360.36,569.59"/>
    </edge>
    <edge id=":240_8" function="internal">
        <lane id=":240_8_0" index="0" disallow="pedestrian tram rail_urban rail rail_electric rail_fast ship" speed="12.73" length="36.79" width="3.50" shape="-381.80,546.81 -379.98,548.58 -378.31,550.49 -376.84,552.55 -375.62,554.78 -374.71,557.15 -374.16,559.62 -374.00,562.15 -374.22,564.68 -374.79,567.15 -375.64,569.54 -376.73,571.83 -378.71,575.08 -380.99,578.13 -381.81,579.11"/>
    </edge>
    <edge id=":240_9" function="internal">
        <lane id=":240_9_0" index="0" disallow="pedestrian tram rail_urban rail rail_electric rail_fast ship" speed="11.77" length="31.31" width="3.50" shape="-384.47,576.83 -383.75,575.98 -381.71,573.27 -379.97,570.41 -379.03,568.46 -378.29,566.43 -377.80,564.36 -377.59,562.28 -377.70,560.21 -378.13,558.18 -378.87,556.22 -379.88,554.35 -381.12,552.60 -382.56,550.95 -384.14,549.41"/>
    </edge>
    <edge id=":240_10" function="internal">
        <lane id=":240_10_0" index="0" disallow="pedestrian tram rail_urban rail rail_electric rail_fast ship" speed="36.11" length="41.90" width="3.50" shape="-384.47,576.83 -377.13,568.30 -356.95,545.23"/>
    </edge>
    <edge id=":240_11" function="internal">
        <lane id=":240_11_0" index="0" disallow="pedestrian tram rail_urban rail rail_electric rail_fast ship" speed="10.50" length="29.76" width="3.50" shape="-384.47,576.83 -381.61,573.67 -378.55,570.72 -376.36,568.92 -374.02,567.32 -372.77,566.64 -371.48,566.06 -370.14,565.62 -368.75,565.34 -367.33,565.28 -365.93,565.47 -364.59,565.91 -363.35,566.60 -362.23,567.47 -361.24,568.48 -360.36,569.59"/>
    </edge>
    <edge id=":241_0" function="internal">
        <lane id=":241_0_0" index="0" disallow="pedestrian tram rail_urban rail rail_electric rail_fast ship" speed="11.15" length="28.55" width="3.50" shape="-438.84,500.06 -441.39,497.98 -443.23,496.78 -445.19,495.78 -447.25,495.03 -448.32,494.78 -449.40,494.61 -450.50,494.53 -451.60,494.55 -452.69,494.67 -453.77,494.88 -454.82,495.19 -456.85,496.03 -458.75,497.14 -460.51,498.46 -462.14,499.93 -463.66,501.51"/>
    </edge>
    <edge id=":241_1" function="internal">
        <lane id=":241_1_0" index="0" disallow="pedestrian tram rail_urban rail rail_electric rail_fast ship" speed="36.11" length="37.63" width="3.50" shape="-438.84,500.06 -452.82,487.48 -466.81,474.89"/>
    </edge>
    <edge id=":241_2" function="internal">
        <lane id=":241_2_0" index="0" disallow="pedestrian tram rail_urban rail rail_electric rail_fast ship" speed="12.13" length="34.05" width="3.50" shape="-438.84,500.06 -441.61,497.28 -443.26,495.24 -444.69,493.04 -445.83,490.69 -446.27,489.45 -446.61,488.19 -446.84,486.90 -446.96,485.59 -446.96,484.28 -446.85,482.98 -446.62,481.69 -445.88,479.18 -444.79,476.79 -443.44,474.55 -441.89,472.44 -440.19,470.45"/>
    </edge>
    <edge id=":241_3" function="internal">
        <lane id=":241_3_0" index="0" disallow="pedestrian tram rail_urban rail rail_electric rail_fast ship" speed="11.12" length="28.45" width="3.50" shape="-437.61,472.82 -439.09,474.54 -440.43,476.36 -441.57,478.26 -442.48,480.24 -443.10,482.33 -443.27,483.34 -443.36,484.38 -443.36,485.43 -443.26,486.47 -443.08,487.51 -442.80,488.53 -442.46,489.50 -441.50,491.48 -440.30,493.32 -438.90,495.04 -436.49,497.47"/>
    </edge>
    <edge id=":241_4" function="internal">
        <lane id=":241_4_0" index="0" disallow="pedestrian tram rail_urban rail rail_electric rail_fast ship" speed="36.11" length="38.75" width="3.50" shape="-437.61,472.82 -461.62,499.24 -463.66,501.51"/>
    </edge>
    <edge id=":241_5" function="internal">
        <lane id=":241_5_0" index="0" disallow="pedestrian tram rail_urban rail rail_electric rail_fast ship" speed="12.13" length="33.38" width="3.50" shape="-437.61,472.82 -440.24,475.42 -442.20,477.02 -444.31,478.43 -446.61,479.60 -449.04,480.46 -450.36,480.76 -451.68,480.93 -453.01,481.00 -454.34,480.95 -455.69,480.78 -458.20,480.15 -460.59,479.17 -462.82,477.93 -464.89,476.49 -466.81,474.89"/>
    </edge>
    <edge id=":241_6" function="internal">
        <lane id=":241_6_0" index="0" disallow="pedestrian tram rail_urban rail rail_electric rail_fast ship" speed="11.10" length="27.86" width="3.50" shape="-464.49,472.27 -462.83,473.65 -461.07,474.88 -459.20,475.92 -457.22,476.73 -455.14,477.24 -454.07,477.36 -453.00,477.40 -451.93,477.34 -450.87,477.19 -449.83,476.96 -447.81,476.24 -445.91,475.26 -444.13,474.07 -442.47,472.71 -440.19,470.45"/>
    </edge>
    <edge id=":241_7" function="internal">
        <lane id=":241_7_0" index="0" disallow="pedestrian tram rail_urban rail rail_electric rail_fast ship" speed="36.11" length="37.67" width="3.50" shape="-464.49,472.27 -450.48,484.88 -436.49,497.47"/>
    </edge>
    <edge id=":241_8" function="internal">
        <lane id=":241_8_0" index="0" disallow="pedestrian tram rail_urban rail rail_electric rail_fast ship" speed="12.07" length="33.57" width="3.50" shape="-464.49,472.27 -462.54,474.15 -460.78,476.17 -459.24,478.37 -458.01,480.75 -457.53,482.01 -457.17,483.30 -456.91,484.62 -456.78,485.95 -456.77,487.30 -456.89,488.63 -457.12,489.96 -457.45,491.26 -458.40,493.77 -459.65,496.14 -461.12,498.39 -463.66,501.51"/>
    </edge>
    <edge id=":241_9" function="internal">
        <lane id=":241_9_0" index="0" disallow="pedestrian tram rail_urban rail rail_electric rail_fast ship" speed="11.03" length="27.97" width="3.50" shape="-466.27,499.18 -464.05,496.45 -462.79,494.54 -461.73,492.54 -460.93,490.43 -460.66,489.40 -460.47,488.33 -460.38,487.26 -460.38,486.20 -460.48,485.13 -460.68,484.08 -460.97,483.04 -461.34,482.06 -462.36,480.07 -463.64,478.22 -465.14,476.50 -466.81,474.89"/>
    </edge>
    <edge id=":241_10" function="internal">
        <lane id=":241_10_0" index="0" disallow="pedestrian tram rail_urban rail rail_electric rail_fast ship" speed="36.11" length="38.80" width="3.50" shape="-466.27,499.18 -464.22,496.89 -440.19,470.45"/>
    </edge>
    <edge id=":241_11" function="internal">
        <lane id=":241_11_0" index="0" disallow="pedestrian tram rail_urban rail rail_electric rail_fast ship" speed="12.16" length="34.16" width="3.50" shape="-466.27,499.18 -464.51,497.34 -462.60,495.63 -460.52,494.08 -458.25,492.76 -455.82,491.74 -454.49,491.36 -453.16,491.10 -451.81,490.95 -450.44,490.93 -449.09,491.02 -447.75,491.23 -446.41,491.55 -443.95,492.45 -441.62,493.64 -439.44,495.07 -436.49,497.47"/>
    </edge>
    <edge id=":242_0" function="internal">
        <lane id=":242_0_0" index="0" disallow="pedestrian tram rail_urban rail rail_electric rail_fast ship" speed="11.19" length="28.78" width="3.50" shape="-463.19,697.37 -465.76,695.27 -467.61,694.05 -469.57,693.02 -471.65,692.25 -472.72,691.98 -473.81,691.80 -474.91,691.71 -476.02,691.71 -477.12,691.82 -478.21,692.02 -479.28,692.31 -481.33,693.14 -483.24,694.25 -485.02,695.57 -486.67,697.04 -488.21,698.64"/>
    </edge>
    <edge id=":242_1" function="internal">
        <lane id=":242_1_0" index="0" disallow="pedestrian tram rail_urban rail rail_electric rail_fast ship" speed="36.11" length="38.85" width="3.50" shape="-463.19,697.37 -489.55,673.18 -491.80,671.09"/>
    </edge>
    <edge id=":242_2" function="internal">
        <lane id=":242_2_0" index="0" disallow="pedestrian tram rail_urban rail rail_electric rail_fast ship" speed="12.25" length="34.38" width="3.50" shape="-463.19,697.37 -465.99,694.55 -467.66,692.50 -469.11,690.29 -470.29,687.93 -470.75,686.69 -471.11,685.41 -471.36,684.12 -471.50,682.80 -471.53,681.48 -471.44,680.16 -471.24,678.85 -470.93,677.57 -470.04,675.08 -468.85,672.72 -467.41,670.50 -464.92,667.41"/>
    </edge>
    <edge id=":242_3" function="internal">
        <lane id=":242_3_0" index="0" disallow="pedestrian tram rail_urban rail rail_electric rail_fast ship" speed="11.26" length="28.83" width="3.50" shape="-462.31,669.74 -464.48,672.44 -465.70,674.33 -466.71,676.31 -467.45,678.40 -467.69,679.42 -467.86,680.47 -467.93,681.54 -467.91,682.60 -467.79,683.65 -467.59,684.70 -467.29,685.73 -466.93,686.72 -465.94,688.71 -464.71,690.57 -463.29,692.32 -460.84,694.78"/>
    </edge>
    <edge id=":242_4" function="internal">
        <lane id=":242_4_0" index="0" disallow="pedestrian tram rail_urban rail rail_electric rail_fast ship" speed="36.11" length="38.81" width="3.50" shape="-462.31,669.74 -475.26,684.20 -488.21,698.64"/>
    </edge>
    <edge id=":242_5" function="internal">
        <lane id=":242_5_0" index="0" disallow="pedestrian tram rail_urban rail rail_electric rail_fast ship" speed="12.05" length="33.91" width="3.50" shape="-462.31,669.74 -464.06,671.57 -465.96,673.26 -468.03,674.79 -470.29,676.09 -472.72,677.08 -474.05,677.44 -475.37,677.68 -476.72,677.80 -478.08,677.80 -479.42,677.69 -480.74,677.45 -482.06,677.11 -484.49,676.18 -486.78,674.95 -488.91,673.51 -491.80,671.09"/>
    </edge>
    <edge id=":242_6" function="internal">