<routes>
	<vehicle depart="0.1" departLane="0" departPos="2.5" departSpeed="11.233727" id="32" type="passenger">
		<route edges="9952 9949"/>
	</vehicle>
	<vehicle depart="0.1" departLane="0" departPos="63.386562413193396" departSpeed="2.9090523" id="319" type="passenger">
		<route edges="10765 10768 9995"/>
	</vehicle>
	<vehicle depart="0.1" departLane="0" departPos="23.69055049703047" departSpeed="1.7209605" id="377" type="passenger">
		<route edges=":242_11 9952"/>
	</vehicle>
	<vehicle depart="0.1" departLane="0" departPos="10.764791684411685" departSpeed="5.2666855" id="392" type="passenger">
		<route edges="9955 10768"/>
	</vehicle>
	<vehicle depart="0.1" departLane="0" departPos="35.50273474331327" departSpeed="2.917856" id="3104" type="passenger">
		<route edges=":238_11 9955 10764"/>
	</vehicle>
	<vehicle depart="0.1" departLane="0" departPos="11.638694191879537" departSpeed="8.4941986" id="3132" type="passenger">
		<route edges=":238_7 9955"/>
	</vehicle>
	<vehicle depart="0.1" departLane="0" departPos="17.083446961303945" departSpeed="17.385256" id="3147" type="passenger">
		<route edges="9956 9959"/>
	</vehicle>
	<vehicle depart="0.1" departLane="0" departPos="27.771439965331375" departSpeed="2.8266192" id="3121" type="motorcycle">
		<route edges=":238_11 9955 10764"/>
	</vehicle>
</routes>
