<!-- generated on Tue Feb  9 22:20:12 2021 by Eclipse SUMO netconvert Version 1.8.0
<configuration xmlns:xsi="http://www.w3.org/2001/XMLSchema-instance" xsi:noNamespaceSchemaLocation="http://sumo.dlr.de/xsd/netconvertConfiguration.xsd">

    <input>
        <node-files value="./converted_scenarios/scenario-factory/DEU_Guetersloh-33_1_I-1-1/DEU_Guetersloh-33_1_I-1-1.nod.xml"/>
        <edge-files value="./converted_scenarios/scenario-factory/DEU_Guetersloh-33_1_I-1-1/DEU_Guetersloh-33_1_I-1-1.edg.xml"/>
        <connection-files value="./converted_scenarios/scenario-factory/DEU_Guetersloh-33_1_I-1-1/DEU_Guetersloh-33_1_I-1-1.con.xml"/>
        <tllogic-files value="./converted_scenarios/scenario-factory/DEU_Guetersloh-33_1_I-1-1/DEU_Guetersloh-33_1_I-1-1.tll.xml"/>
        <type-files value="/home/zen/commonroad-interactive-benchmarks/install/commonroad-map-tool/crmapconverter/sumo_map/templates/DEU.typ.xml"/>
    </input>

    <output>
        <output-file value="./converted_scenarios/scenario-factory/DEU_Guetersloh-33_1_I-1-1/DEU_Guetersloh-33_1_I-1-1.net.xml"/>
    </output>

    <processing>
        <geometry.remove.keep-edges.explicit value="true"/>
        <geometry.avoid-overlap value="true"/>
        <offset.disable-normalization value="true"/>
    </processing>

    <junctions>
        <no-turnarounds value="true"/>
        <junctions.internal-link-detail value="20"/>
    </junctions>

    <report>
        <aggregate-warnings value="5"/>
    </report>

    <random_number>
        <seed value="1234"/>
    </random_number>

</configuration>
--><net xmlns:xsi="http://www.w3.org/2001/XMLSchema-instance" version="1.6" junctionCornerDetail="5" junctionLinkDetail="20" limitTurnSpeed="5.50" xsi:noNamespaceSchemaLocation="http://sumo.dlr.de/xsd/net_file.xsd">

    <location netOffset="0.00,0.00" convBoundary="-504.35,266.30,-255.79,501.24" origBoundary="-504.35,266.30,-255.79,501.24" projParameter="!"/>

    <type id="highway.bridleway" priority="1" speed="2.78" allow="pedestrian" oneway="1" width="2.00"/>
    <type id="highway.bus_guideway" priority="1" speed="27.78" allow="bus" oneway="1"/>
    <type id="highway.cycleway" priority="1" speed="8.33" allow="bicycle" oneway="0" width="1.00"/>
    <type id="highway.footway" priority="1" speed="2.78" allow="pedestrian" oneway="1" width="2.00"/>
    <type id="highway.ford" priority="1" speed="2.78" allow="army" oneway="0"/>
    <type id="highway.living_street" priority="2" speed="2.78" disallow="tram rail_urban rail rail_electric rail_fast ship" oneway="0"/>
    <type id="highway.motorway" priority="14" speed="39.44" allow="private emergency authority army vip passenger hov taxi bus coach delivery truck trailer motorcycle evehicle custom1 custom2" oneway="1"/>
    <type id="highway.motorway_link" priority="9" speed="22.22" allow="private emergency authority army vip passenger hov taxi bus coach delivery truck trailer motorcycle evehicle custom1 custom2" oneway="1"/>
    <type id="highway.path" priority="1" speed="2.78" allow="pedestrian bicycle" oneway="0" width="2.00"/>
    <type id="highway.pedestrian" priority="1" speed="2.78" allow="pedestrian" oneway="1" width="2.00"/>
    <type id="highway.primary" priority="12" speed="27.78" disallow="pedestrian tram rail_urban rail rail_electric rail_fast ship" oneway="0"/>
    <type id="highway.primary_link" priority="7" speed="22.22" disallow="pedestrian tram rail_urban rail rail_electric rail_fast ship" oneway="0"/>
    <type id="highway.raceway" priority="15" speed="83.33" allow="vip" oneway="0"/>
    <type id="highway.residential" priority="3" speed="13.89" disallow="pedestrian tram rail_urban rail rail_electric rail_fast ship" oneway="0"/>
    <type id="highway.secondary" priority="11" speed="27.78" disallow="pedestrian tram rail_urban rail rail_electric rail_fast ship" oneway="0"/>
    <type id="highway.secondary_link" priority="6" speed="22.22" disallow="pedestrian tram rail_urban rail rail_electric rail_fast ship" oneway="0"/>
    <type id="highway.service" priority="1" speed="5.56" allow="pedestrian delivery bicycle" oneway="0"/>
    <type id="highway.stairs" priority="1" speed="1.39" allow="pedestrian" oneway="1" width="2.00"/>
    <type id="highway.step" priority="1" speed="1.39" allow="pedestrian" oneway="1" width="2.00"/>
    <type id="highway.steps" priority="1" speed="1.39" allow="pedestrian" oneway="1" width="2.00"/>
    <type id="highway.tertiary" priority="10" speed="22.22" disallow="pedestrian tram rail_urban rail rail_electric rail_fast ship" oneway="0"/>
    <type id="highway.tertiary_link" priority="5" speed="22.22" disallow="pedestrian tram rail_urban rail rail_electric rail_fast ship" oneway="0"/>
    <type id="highway.track" priority="1" speed="5.56" allow="pedestrian motorcycle moped bicycle" oneway="0"/>
    <type id="highway.trunk" priority="13" speed="27.78" disallow="pedestrian bicycle tram rail_urban rail rail_electric rail_fast ship" oneway="0"/>
    <type id="highway.trunk_link" priority="8" speed="22.22" disallow="pedestrian bicycle tram rail_urban rail rail_electric rail_fast ship" oneway="0"/>
    <type id="highway.unclassified" priority="4" speed="13.89" disallow="pedestrian tram rail_urban rail rail_electric rail_fast ship" oneway="0"/>
    <type id="highway.unsurfaced" priority="1" speed="8.33" disallow="tram rail_urban rail rail_electric rail_fast ship" oneway="0"/>
    <type id="railway.highspeed" priority="21" speed="69.44" allow="rail_fast" oneway="1"/>
    <type id="railway.light_rail" priority="19" speed="27.78" allow="rail_urban" oneway="1"/>
    <type id="railway.preserved" priority="16" speed="27.78" allow="rail" oneway="1"/>
    <type id="railway.rail" priority="20" speed="44.44" allow="rail" oneway="1"/>
    <type id="railway.subway" priority="18" speed="27.78" allow="rail_urban" oneway="1"/>
    <type id="railway.tram" priority="17" speed="13.89" allow="tram" oneway="1"/>

    <edge id=":45_0" function="internal">
        <lane id=":45_0_0" index="0" disallow="pedestrian tram rail_urban rail rail_electric rail_fast ship" speed="11.21" length="28.83" width="3.50" shape="-297.81,359.35 -300.94,358.22 -303.10,357.69 -305.29,357.38 -307.51,357.34 -308.61,357.45 -309.71,357.64 -310.78,357.92 -311.82,358.30 -312.83,358.77 -313.79,359.32 -314.70,359.95 -316.36,361.41 -317.81,363.09 -319.07,364.92 -320.14,366.86 -321.07,368.87"/>
    </edge>
    <edge id=":45_1" function="internal">
        <lane id=":45_1_0" index="0" disallow="pedestrian tram rail_urban rail rail_electric rail_fast ship" speed="12.20" length="34.04" width="3.50" shape="-297.81,359.35 -301.35,357.65 -303.59,356.28 -305.67,354.70 -307.55,352.87 -308.39,351.87 -309.14,350.80 -309.81,349.67 -310.37,348.49 -310.83,347.27 -311.19,346.01 -311.43,344.72 -311.62,342.11 -311.44,339.50 -310.96,336.93 -310.24,334.41 -309.33,331.95"/>
    </edge>
    <edge id=":45_2" function="internal">
        <lane id=":45_2_0" index="0" disallow="pedestrian tram rail_urban rail rail_electric rail_fast ship" speed="11.20" length="28.49" width="3.50" shape="-306.08,333.27 -306.89,335.42 -307.51,337.58 -307.91,339.76 -308.06,341.93 -307.90,344.10 -307.71,345.10 -307.42,346.12 -307.05,347.10 -306.60,348.04 -306.06,348.95 -305.45,349.81 -304.78,350.61 -303.21,352.15 -301.45,353.48 -299.55,354.64 -296.46,356.12"/>
    </edge>
    <edge id=":45_3" function="internal">
        <lane id=":45_3_0" index="0" disallow="pedestrian tram rail_urban rail rail_electric rail_fast ship" speed="36.11" length="38.63" width="3.50" shape="-306.08,333.27 -313.58,351.08 -321.07,368.87"/>
    </edge>
    <edge id=":45_4" function="internal">
        <lane id=":45_4_0" index="0" disallow="pedestrian tram rail_urban rail rail_electric rail_fast ship" speed="36.11" length="38.60" width="3.50" shape="-324.30,367.53 -316.81,349.73 -309.33,331.95"/>
    </edge>
    <edge id=":45_5" function="internal">
        <lane id=":45_5_0" index="0" disallow="pedestrian tram rail_urban rail rail_electric rail_fast ship" speed="12.21" length="34.42" width="3.50" shape="-324.30,367.53 -323.23,365.19 -321.97,362.94 -320.49,360.78 -318.75,358.77 -316.76,357.02 -315.62,356.22 -314.43,355.54 -313.19,354.96 -311.90,354.50 -310.57,354.15 -309.23,353.91 -307.85,353.79 -305.21,353.83 -302.61,354.19 -300.07,354.83 -296.46,356.12"/>
    </edge>
    <edge id=":46_0" function="internal">
        <lane id=":46_0_0" index="0" disallow="pedestrian tram rail_urban rail rail_electric rail_fast ship" speed="15.07" length="31.61" width="3.50" shape="-333.69,451.59 -337.97,451.36 -342.18,451.41 -345.32,451.68 -348.43,452.19 -351.48,453.00 -353.45,453.73 -355.35,454.64 -357.15,455.73 -358.81,457.01 -360.32,458.48 -361.63,460.11 -362.21,460.98"/>
    </edge>
    <edge id=":46_1" function="internal">
        <lane id=":46_1_0" index="0" disallow="pedestrian tram rail_urban rail rail_electric rail_fast ship" speed="11.38" length="39.74" width="3.50" shape="-333.69,451.59 -336.80,451.23 -339.80,450.66 -342.72,449.78 -344.13,449.19 -345.48,448.48 -346.75,447.64 -347.91,446.65 -348.92,445.50 -349.73,444.21 -350.34,442.82 -350.73,441.34 -350.91,439.83 -350.93,438.30 -350.79,436.78 -350.54,435.28 -349.74,432.33 -348.65,429.48 -346.67,425.36 -345.94,424.02"/>
    </edge>
    <edge id=":46_2" function="internal">
        <lane id=":46_2_0" index="0" disallow="pedestrian tram rail_urban rail rail_electric rail_fast ship" speed="10.31" length="32.31" width="3.50" shape="-342.87,425.70 -343.52,426.88 -345.26,430.50 -346.19,432.92 -346.88,435.42 -347.09,436.62 -347.21,437.84 -347.21,439.04 -347.09,440.19 -346.82,441.29 -346.39,442.31 -345.82,443.25 -345.10,444.10 -344.24,444.85 -343.27,445.51 -342.21,446.08 -341.10,446.55 -338.64,447.30 -336.10,447.79 -333.49,448.09"/>
    </edge>
    <edge id=":46_3" function="internal">
        <lane id=":46_3_0" index="0" disallow="pedestrian tram rail_urban rail rail_electric rail_fast ship" speed="36.11" length="40.24" width="3.50" shape="-342.87,425.70 -344.37,428.41 -352.55,443.87 -357.98,453.85 -362.21,460.98"/>
    </edge>
    <edge id=":46_4" function="internal">
        <lane id=":46_4_0" index="0" disallow="pedestrian tram rail_urban rail rail_electric rail_fast ship" speed="36.11" length="40.02" width="3.50" shape="-365.17,459.11 -360.99,452.08 -355.60,442.15 -347.43,426.71 -345.94,424.02"/>
    </edge>
    <edge id=":46_5" function="internal">
        <lane id=":46_5_0" index="0" disallow="pedestrian tram rail_urban rail rail_electric rail_fast ship" speed="15.93" length="35.33" width="3.50" shape="-365.17,459.11 -364.50,458.11 -363.00,456.23 -361.28,454.51 -359.37,453.00 -357.33,451.72 -355.18,450.66 -352.94,449.80 -349.55,448.86 -346.11,448.25 -342.64,447.93 -338.05,447.86 -333.49,448.09"/>
    </edge>
    <edge id=":47_0" function="internal">
        <lane id=":47_0_0" index="0" disallow="pedestrian tram rail_urban rail rail_electric rail_fast ship" speed="9.85" length="21.62" width="3.50" shape="-400.25,359.73 -402.36,358.83 -405.51,357.67 -408.71,356.76 -410.82,356.37 -412.94,356.20 -413.93,356.22 -414.91,356.33 -415.85,356.53 -416.72,356.83 -417.51,357.23 -418.22,357.74 -418.84,358.36 -419.38,359.08 -419.85,359.93"/>
    </edge>
    <edge id=":47_1" function="internal">
        <lane id=":47_1_0" index="0" disallow="pedestrian tram rail_urban rail rail_electric rail_fast ship" speed="12.19" length="34.25" width="3.50" shape="-400.25,359.73 -403.81,357.93 -406.02,356.51 -408.08,354.87 -409.92,352.99 -410.74,351.96 -411.47,350.87 -412.11,349.71 -412.64,348.51 -413.07,347.27 -413.38,345.99 -413.59,344.69 -413.69,342.06 -413.42,339.44 -412.86,336.87 -412.05,334.37 -411.06,331.93"/>
    </edge>
    <edge id=":47_2" function="internal">
        <lane id=":47_2_0" index="0" disallow="pedestrian tram rail_urban rail rail_electric rail_fast ship" speed="11.19" length="28.66" width="3.50" shape="-407.86,333.34 -408.73,335.48 -409.42,337.63 -409.90,339.81 -410.13,341.99 -410.04,344.17 -409.88,345.19 -409.62,346.21 -409.28,347.21 -408.85,348.17 -408.34,349.09 -407.75,349.98 -407.10,350.80 -405.55,352.38 -403.82,353.75 -401.93,354.96 -398.84,356.53"/>
    </edge>
    <edge id=":47_3" function="internal">
        <lane id=":47_3_0" index="0" disallow="pedestrian tram rail_urban rail rail_electric rail_fast ship" speed="36.11" length="29.17" width="3.50" shape="-407.86,333.34 -413.84,346.62 -419.85,359.93"/>
    </edge>
    <edge id=":47_4" function="internal">
        <lane id=":47_4_0" index="0" disallow="pedestrian tram rail_urban rail rail_electric rail_fast ship" speed="36.11" length="29.10" width="3.50" shape="-423.02,358.46 -417.03,345.17 -411.06,331.93"/>
    </edge>
    <edge id=":47_5" function="internal">
        <lane id=":47_5_0" index="0" disallow="pedestrian tram rail_urban rail rail_electric rail_fast ship" speed="10.97" length="27.09" width="3.50" shape="-423.02,358.46 -422.39,357.28 -421.65,356.23 -420.78,355.28 -419.78,354.47 -418.68,353.81 -417.49,353.31 -416.25,352.97 -414.98,352.76 -413.70,352.67 -411.13,352.79 -408.59,353.20 -404.86,354.20 -401.23,355.51 -398.84,356.53"/>
    </edge>
    <edge id=":48_0" function="internal">
        <lane id=":48_0_0" index="0" disallow="pedestrian tram rail_urban rail rail_electric rail_fast ship" speed="36.11" length="38.88" width="3.50" shape="-321.66,370.28 -323.49,375.18 -325.32,381.21 -329.07,395.45 -330.97,401.47 -332.89,406.36 -333.32,407.32"/>
    </edge>
    <edge id=":48_1" function="internal">
        <lane id=":48_1_0" index="0" disallow="pedestrian tram rail_urban rail rail_electric rail_fast ship" speed="12.11" length="34.00" width="3.50" shape="-321.66,370.28 -323.25,373.67 -324.55,375.88 -326.06,377.98 -327.82,379.92 -329.84,381.61 -330.99,382.36 -332.18,383.01 -333.43,383.54 -334.72,383.96 -336.04,384.26 -337.38,384.45 -338.75,384.53 -341.35,384.40 -343.92,383.93 -346.39,383.22 -348.76,382.31"/>
    </edge>
    <edge id=":48_2" function="internal">
        <lane id=":48_2_0" index="0" disallow="pedestrian tram rail_urban rail rail_electric rail_fast ship" speed="11.09" length="28.38" width="3.50" shape="-347.39,379.09 -345.35,379.87 -343.25,380.48 -341.10,380.86 -338.92,380.97 -337.83,380.90 -336.75,380.74 -335.68,380.49 -334.65,380.14 -333.64,379.71 -332.68,379.18 -331.77,378.58 -330.11,377.17 -328.64,375.55 -327.37,373.77 -326.27,371.88 -324.89,368.94"/>
    </edge>
    <edge id=":48_3" function="internal">
        <lane id=":48_3_0" index="0" disallow="pedestrian tram rail_urban rail rail_electric rail_fast ship" speed="12.43" length="36.28" width="3.50" shape="-347.39,379.09 -343.87,380.75 -340.51,382.70 -338.40,384.20 -336.44,385.90 -334.67,387.80 -333.19,389.92 -332.57,391.06 -332.05,392.24 -331.63,393.47 -331.32,394.73 -331.12,396.01 -331.02,397.30 -331.13,399.89 -331.59,402.44 -332.34,404.92 -333.32,407.32"/>
    </edge>
    <edge id=":48_4" function="internal">
        <lane id=":48_4_0" index="0" disallow="pedestrian tram rail_urban rail rail_electric rail_fast ship" speed="11.46" length="30.64" width="3.50" shape="-336.51,405.90 -335.66,403.81 -335.03,401.70 -334.66,399.57 -334.59,397.41 -334.68,396.40 -334.86,395.37 -335.12,394.36 -335.47,393.38 -335.91,392.43 -336.41,391.54 -337.67,389.77 -339.17,388.20 -340.86,386.77 -342.68,385.48 -345.65,383.77 -348.76,382.31"/>
    </edge>
    <edge id=":48_5" function="internal">
        <lane id=":48_5_0" index="0" disallow="pedestrian tram rail_urban rail rail_electric rail_fast ship" speed="36.11" length="38.79" width="3.50" shape="-336.51,405.90 -336.10,404.96 -334.22,400.17 -332.35,394.26 -328.62,380.05 -326.76,373.94 -324.89,368.94"/>
    </edge>
    <edge id=":49_0" function="internal">
        <lane id=":49_0_0" index="0" disallow="pedestrian tram rail_urban rail rail_electric rail_fast ship" speed="36.11" length="30.27" width="3.50" shape="-419.92,360.08 -422.26,364.84 -427.19,374.03 -434.41,386.65"/>
    </edge>
    <edge id=":49_1" function="internal">
        <lane id=":49_1_0" index="0" disallow="pedestrian tram rail_urban rail rail_electric rail_fast ship" speed="10.61" length="29.21" width="3.50" shape="-419.92,360.08 -420.59,361.36 -421.36,362.51 -422.27,363.56 -423.33,364.46 -424.52,365.17 -425.81,365.68 -427.17,365.97 -428.55,366.06 -429.94,365.99 -431.31,365.78 -433.99,365.03 -436.56,363.99 -440.25,362.05 -443.77,359.83 -444.91,359.04"/>
    </edge>
    <edge id=":49_2" function="internal">
        <lane id=":49_2_0" index="0" disallow="pedestrian tram rail_urban rail rail_electric rail_fast ship" speed="9.46" length="22.96" width="3.50" shape="-442.89,356.18 -441.91,356.86 -438.86,358.81 -435.71,360.51 -433.58,361.43 -431.39,362.11 -430.34,362.33 -429.28,362.44 -428.26,362.44 -427.29,362.31 -426.40,362.04 -425.58,361.63 -424.84,361.08 -424.18,360.38 -423.60,359.56 -423.09,358.61"/>
    </edge>
    <edge id=":49_3" function="internal">
        <lane id=":49_3_0" index="0" disallow="pedestrian tram rail_urban rail rail_electric rail_fast ship" speed="12.81" length="35.51" width="3.50" shape="-442.89,356.18 -439.98,358.42 -437.26,360.93 -435.59,362.81 -434.09,364.85 -432.81,367.07 -431.82,369.47 -431.18,371.99 -430.92,374.59 -431.03,377.18 -431.50,379.72 -432.26,382.15 -433.25,384.47 -434.41,386.65"/>
    </edge>
    <edge id=":49_4" function="internal">
        <lane id=":49_4_0" index="0" disallow="pedestrian tram rail_urban rail rail_electric rail_fast ship" speed="11.86" length="30.27" width="3.50" shape="-437.44,384.90 -436.43,382.99 -435.58,381.00 -434.94,378.94 -434.56,376.81 -434.48,374.65 -434.72,372.50 -435.28,370.41 -436.12,368.42 -437.21,366.55 -438.50,364.81 -439.95,363.20 -442.34,361.01 -444.91,359.04"/>
    </edge>
    <edge id=":49_5" function="internal">
        <lane id=":49_5_0" index="0" disallow="pedestrian tram rail_urban rail rail_electric rail_fast ship" speed="36.11" length="29.96" width="3.50" shape="-437.44,384.90 -430.26,372.36 -425.39,363.27 -423.09,358.61"/>
    </edge>

    <edge id="77985" from="28" to="46" priority="3" type="highway.residential" spreadType="center" length="70.01" shape="-263.98,456.57 -347.49,446.65">
        <lane id="77985_0" index="0" disallow="pedestrian tram rail_urban rail rail_electric rail_fast ship" speed="36.11" length="70.01" width="3.50" customShape="1" shape="-263.98,456.57 -277.49,456.02 -285.54,455.43 -304.07,453.20 -311.60,452.57 -325.71,452.04 -333.77,451.58"/>
    </edge>
    <edge id="77986" from="46" to="26" priority="3" type="highway.residential" spreadType="center" length="70.00" shape="-347.07,443.18 -263.71,453.07">
        <lane id="77986_0" index="0" disallow="pedestrian tram rail_urban rail rail_electric rail_fast ship" speed="36.11" length="70.00" width="3.50" customShape="1" shape="-333.49,448.09 -325.50,448.55 -311.38,449.08 -303.77,449.71 -285.27,451.94 -277.30,452.52 -263.71,453.07"/>
    </edge>
    <edge id="78060" from="48" to="47" priority="3" type="highway.residential" spreadType="center" length="56.26" shape="-336.14,387.23 -410.90,351.56">
        <lane id="78060_0" index="0" disallow="pedestrian tram rail_urban rail rail_electric rail_fast ship" speed="36.11" length="56.26" width="3.50" customShape="1" shape="-348.76,382.31 -358.55,378.10 -400.28,359.72"/>
    </edge>
    <edge id="78061" from="47" to="48" priority="3" type="highway.residential" spreadType="center" length="56.19" shape="-409.39,348.40 -334.64,384.08">
        <lane id="78061_0" index="0" disallow="pedestrian tram rail_urban rail rail_electric rail_fast ship" speed="36.11" length="56.19" width="3.50" customShape="1" shape="-398.84,356.53 -357.15,374.89 -347.38,379.09"/>
    </edge>
    <edge id="78080" from="46" to="25" priority="3" type="highway.residential" spreadType="center" length="53.35" shape="-345.93,446.08 -397.09,501.24">
        <lane id="78080_0" index="0" disallow="pedestrian tram rail_urban rail rail_electric rail_fast ship" speed="36.11" length="53.35" width="3.50" customShape="1" shape="-362.21,460.98 -364.46,464.38 -369.35,470.87 -374.85,477.53 -381.64,485.09 -397.09,501.24"/>
    </edge>
    <edge id="78081" from="30" to="46" priority="3" type="highway.residential" spreadType="center" length="52.73" shape="-399.62,498.83 -348.50,443.70">
        <lane id="78081_0" index="0" disallow="pedestrian tram rail_urban rail rail_electric rail_fast ship" speed="36.11" length="52.73" width="3.50" customShape="1" shape="-399.62,498.83 -384.29,482.80 -377.59,475.34 -372.16,468.79 -367.36,462.42 -365.13,459.05"/>
    </edge>
    <edge id="78083" from="48" to="46" priority="3" type="highway.residential" spreadType="center" length="20.74" shape="-333.70,385.93 -345.53,445.26">
        <lane id="78083_0" index="0" disallow="pedestrian tram rail_urban rail rail_electric rail_fast ship" speed="36.11" length="20.74" width="3.50" customShape="1" shape="-333.32,407.32 -333.75,408.26 -337.42,415.71 -342.88,425.72"/>
    </edge>
    <edge id="78084" from="46" to="48" priority="3" type="highway.residential" spreadType="center" length="20.47" shape="-348.96,444.58 -337.13,385.25">
        <lane id="78084_0" index="0" disallow="pedestrian tram rail_urban rail rail_electric rail_fast ship" speed="36.11" length="20.47" width="3.50" customShape="1" shape="-345.94,424.02 -340.54,414.12 -336.92,406.78 -336.50,405.86"/>
    </edge>
    <edge id="78086" from="45" to="48" priority="3" type="highway.residential" spreadType="center" length="1.53" shape="-307.81,353.94 -334.10,386.79">
        <lane id="78086_0" index="0" disallow="pedestrian tram rail_urban rail rail_electric rail_fast ship" speed="36.11" length="1.53" width="3.50" customShape="1" shape="-321.07,368.87 -321.36,369.56 -321.66,370.28"/>
    </edge>
    <edge id="78087" from="48" to="45" priority="3" type="highway.residential" spreadType="center" length="1.56" shape="-336.83,384.60 -310.54,351.75">
        <lane id="78087_0" index="0" disallow="pedestrian tram rail_urban rail rail_electric rail_fast ship" speed="36.11" length="1.56" width="3.50" customShape="1" shape="-324.89,368.94 -324.59,368.22 -324.29,367.50"/>
    </edge>
    <edge id="78089" from="29" to="45" priority="3" type="highway.residential" spreadType="center" length="70.00" shape="-280.32,268.19 -307.52,353.41">
        <lane id="78089_0" index="0" disallow="pedestrian tram rail_urban rail rail_electric rail_fast ship" speed="36.11" length="70.00" width="3.50" customShape="1" shape="-280.32,268.19 -284.46,279.50 -292.17,299.22 -306.09,333.27"/>
    </edge>
    <edge id="78090" from="45" to="22" priority="3" type="highway.residential" spreadType="center" length="70.00" shape="-310.85,352.34 -283.57,266.87">
        <lane id="78090_0" index="0" disallow="pedestrian tram rail_urban rail rail_electric rail_fast ship" speed="36.11" length="70.00" width="3.50" customShape="1" shape="-309.33,331.95 -295.42,297.93 -287.73,278.26 -283.57,266.87"/>
    </edge>
    <edge id="78113" from="49" to="40" priority="3" type="highway.residential" spreadType="center" length="68.12" shape="-432.22,368.37 -472.02,443.37">
        <lane id="78113_0" index="0" disallow="pedestrian tram rail_urban rail rail_electric rail_fast ship" speed="36.11" length="68.12" width="3.50" customShape="1" shape="-434.41,386.65 -439.54,395.37 -447.90,409.18 -454.72,419.78 -460.20,427.64 -472.02,443.37"/>
    </edge>
    <edge id="78114" from="43" to="49" priority="3" type="highway.residential" spreadType="center" length="67.73" shape="-474.82,441.27 -435.31,366.73">
        <lane id="78114_0" index="0" disallow="pedestrian tram rail_urban rail rail_electric rail_fast ship" speed="36.11" length="67.73" width="3.50" customShape="1" shape="-474.82,441.27 -463.06,425.61 -457.63,417.82 -450.85,407.30 -442.54,393.56 -437.43,384.87"/>
    </edge>
    <edge id="78116" from="47" to="49" priority="3" type="highway.residential" spreadType="center" length="0.23" shape="-409.10,351.38 -432.82,369.05">
        <lane id="78116_0" index="0" disallow="pedestrian tram rail_urban rail rail_electric rail_fast ship" speed="36.11" length="0.23" width="3.50" customShape="1" shape="-419.85,359.93 -419.94,360.14"/>
    </edge>
    <edge id="78117" from="49" to="47" priority="3" type="highway.residential" spreadType="center" length="0.22" shape="-434.91,366.25 -411.19,348.58">
        <lane id="78117_0" index="0" disallow="pedestrian tram rail_urban rail rail_electric rail_fast ship" speed="36.11" length="0.22" width="3.50" customShape="1" shape="-423.09,358.61 -423.00,358.41"/>
    </edge>
    <edge id="78119" from="41" to="47" priority="3" type="highway.residential" spreadType="center" length="70.00" shape="-383.77,267.72 -408.48,350.51">
        <lane id="78119_0" index="0" disallow="pedestrian tram rail_urban rail rail_electric rail_fast ship" speed="36.11" length="70.00" width="3.50" customShape="1" shape="-383.77,267.72 -383.89,268.12 -389.34,286.49 -392.25,295.62 -395.75,305.08 -400.33,316.29 -407.86,333.34"/>
    </edge>
    <edge id="78120" from="47" to="31" priority="3" type="highway.residential" spreadType="center" length="70.00" shape="-411.83,349.51 -386.99,266.30">
        <lane id="78120_0" index="0" disallow="pedestrian tram rail_urban rail rail_electric rail_fast ship" speed="36.11" length="70.00" width="3.50" customShape="1" shape="-411.06,331.93 -403.56,314.93 -399.01,303.80 -395.54,294.43 -392.66,285.38 -387.23,267.05 -386.99,266.30"/>
    </edge>
    <edge id="78125" from="45" to="21" priority="3" type="highway.residential" spreadType="center" length="44.12" shape="-308.55,351.21 -255.79,373.22">
        <lane id="78125_0" index="0" disallow="pedestrian tram rail_urban rail rail_electric rail_fast ship" speed="36.11" length="44.12" width="3.50" customShape="1" shape="-296.46,356.12 -276.13,364.67 -255.79,373.22"/>
    </edge>
    <edge id="78126" from="27" to="45" priority="3" type="highway.residential" spreadType="center" length="44.11" shape="-257.15,376.44 -309.90,354.44">
        <lane id="78126_0" index="0" disallow="pedestrian tram rail_urban rail rail_electric rail_fast ship" speed="36.11" length="44.11" width="3.50" customShape="1" shape="-257.15,376.44 -277.48,367.90 -297.82,359.35"/>
    </edge>
    <edge id="78197" from="49" to="37" priority="3" type="highway.residential" spreadType="center" length="70.01" shape="-434.73,369.06 -504.35,322.31">
        <lane id="78197_0" index="0" disallow="pedestrian tram rail_urban rail rail_electric rail_fast ship" speed="36.11" length="70.01" width="3.50" customShape="1" shape="-444.91,359.04 -455.56,351.51 -468.77,342.41 -478.45,336.15 -487.06,331.01 -495.42,326.44 -501.74,323.41 -504.35,322.31"/>
    </edge>
    <edge id="78198" from="44" to="49" priority="3" type="highway.residential" spreadType="center" length="70.00" shape="-502.28,319.39 -432.77,366.15">
        <lane id="78198_0" index="0" disallow="pedestrian tram rail_urban rail rail_electric rail_fast ship" speed="36.11" length="70.00" width="3.50" customShape="1" shape="-502.28,319.39 -500.09,320.31 -493.68,323.40 -485.24,328.02 -476.57,333.20 -466.82,339.50 -453.57,348.64 -442.88,356.19"/>
    </edge>

    <junction id="21" type="dead_end" x="-255.79" y="373.22" incLanes="78125_0" intLanes="" shape="-255.11,371.60 -256.47,374.83" rightOfWay="edgePriority"/>
    <junction id="22" type="dead_end" x="-283.57" y="266.87" incLanes="78090_0" intLanes="" shape="-285.21,266.27 -281.93,267.47" rightOfWay="edgePriority"/>
    <junction id="25" type="dead_end" x="-397.09" y="501.24" incLanes="78080_0" intLanes="" shape="-395.82,502.45 -398.35,500.03" rightOfWay="edgePriority"/>
    <junction id="26" type="dead_end" x="-263.71" y="453.07" incLanes="77986_0" intLanes="" shape="-263.64,451.33 -263.78,454.82" rightOfWay="edgePriority"/>
    <junction id="27" type="dead_end" x="-257.15" y="376.44" incLanes="" intLanes="" shape="-256.47,374.83 -257.83,378.06" rightOfWay="edgePriority"/>
    <junction id="28" type="dead_end" x="-263.98" y="456.57" incLanes="" intLanes="" shape="-263.91,454.82 -264.06,458.32" rightOfWay="edgePriority"/>
    <junction id="29" type="dead_end" x="-280.32" y="268.19" incLanes="" intLanes="" shape="-281.97,267.59 -278.68,268.79" rightOfWay="edgePriority"/>
    <junction id="30" type="dead_end" x="-399.62" y="498.83" incLanes="" intLanes="" shape="-398.36,500.04 -400.89,497.62" rightOfWay="edgePriority"/>
    <junction id="31" type="dead_end" x="-386.99" y="266.30" incLanes="78120_0" intLanes="" shape="-388.65,265.77 -385.32,266.83" rightOfWay="edgePriority"/>
    <junction id="37" type="dead_end" x="-504.35" y="322.31" incLanes="78197_0" intLanes="" shape="-505.02,323.93 -503.67,320.70" rightOfWay="edgePriority"/>
    <junction id="40" type="dead_end" x="-472.02" y="443.37" incLanes="78113_0" intLanes="" shape="-470.62,444.42 -473.42,442.32" rightOfWay="edgePriority"/>
    <junction id="41" type="dead_end" x="-383.77" y="267.72" incLanes="" intLanes="" shape="-385.43,267.19 -382.10,268.25" rightOfWay="edgePriority"/>
    <junction id="43" type="dead_end" x="-474.82" y="441.27" incLanes="" intLanes="" shape="-473.42,442.32 -476.22,440.22" rightOfWay="edgePriority"/>
    <junction id="44" type="dead_end" x="-502.28" y="319.39" incLanes="" intLanes="" shape="-502.96,321.00 -501.60,317.78" rightOfWay="edgePriority"/>
    <junction id="45" type="priority" x="-309.17" y="352.84" incLanes="78126_0 78089_0 78087_0" intLanes=":45_0_0 :45_1_0 :45_2_0 :45_3_0 :45_4_0 :45_5_0" shape="-298.49,360.96 -295.78,354.51 -300.08,352.24 -303.23,349.50 -305.25,346.30 -306.13,342.64 -305.87,338.52 -304.47,333.94 -310.95,331.29 -325.92,366.85 -319.46,369.55 -317.16,365.20 -314.38,362.01 -311.13,360.00 -307.40,359.15 -303.18,359.47">
        <request index="0" response="001000" foes="001000" cont="0"/>
        <request index="1" response="111000" foes="111000" cont="0"/>
        <request index="2" response="000000" foes="100000" cont="0"/>
        <request index="3" response="000000" foes="100011" cont="0"/>
        <request index="4" response="000000" foes="000010" cont="0"/>