<routes>
	<vehicle depart="0.1" departLane="0" departPos="36.5222913737277" departSpeed="0.23391436" id="310" type="bicycle">
		<route edges="78081 78084"/>
	</vehicle>
	<vehicle depart="0.1" departLane="0" departPos="38.37532594041857" departSpeed="1.8399536" id="33" type="passenger">
		<route edges="78081 78084"/>
	</vehicle>
	<vehicle depart="0.1" departLane="0" departPos="11.69168718495015" departSpeed="0.36949268" id="36" type="passenger">
		<route edges=":46_1 78084"/>
	</vehicle>
	<vehicle depart="0.1" departLane="0" departPos="63.75938182265332" departSpeed="1.8803156" id="39" type="passenger">
		<route edges="77985 78080"/>
	</vehicle>
	<vehicle depart="0.1" departLane="0" departPos="9.599559235443806" departSpeed="10.310717" id="313" type="passenger">
		<route edges=":46_2 77986"/>
	</vehicle>
	<vehicle depart="0.1" departLane="0" departPos="54.19477218223233" departSpeed="1.7932855" id="316" type="passenger">
		<route edges="77985 78084"/>
	</vehicle>
	<vehicle depart="0.1" departLane="0" departPos="33.297835368343584" departSpeed="0.29030964" id="322" type="passenger">
		<route edges="77985 78084"/>
	</vehicle>
	<vehicle depart="0.1" departLane="0" departPos="26.820205390227684" departSpeed="0.2401465" id="339" type="passenger">
		<route edges="77985 78084"/>
	</vehicle>
	<vehicle depart="0.1" departLane="0" departPos="49.51481520531584" departSpeed="2.0602069" id="331" type="truck">
		<route edges="78081 77986"/>
	</vehicle>
</routes>
