<routes>
	<vehicle depart="0.1" departLane="0" departPos="47.673582360595745" departSpeed="0.021456584" id="37" type="bicycle">
		<route edges="21294 21402"/>
	</vehicle>
	<vehicle depart="0.1" departLane="0" departPos="53.67411186323996" departSpeed="0.67688804" id="36" type="passenger">
		<route edges="21294 21402"/>
	</vehicle>
	<vehicle depart="0.1" departLane="0" departPos="18.959233887618275" departSpeed="1.4552717" id="38" type="passenger">
		<route edges=":31_5 21297 21345"/>
	</vehicle>
	<vehicle depart="0.1" departLane="0" departPos="69.87288185387021" departSpeed="0.0" id="39" type="passenger">
		<route edges="21074 21296"/>
	</vehicle>
	<vehicle depart="0.1" departLane="0" departPos="12.662670922863898" departSpeed="0.36391606" id="316" type="passenger">
		<route edges=":31_2 21297"/>
	</vehicle>
	<vehicle depart="0.1" departLane="0" departPos="5.168934552440843" departSpeed="0.59419887" id="318" type="passenger">
		<route edges=":31_2 21297"/>
	</vehicle>
	<vehicle depart="0.1" departLane="0" departPos="61.79823903846537" departSpeed="0.67436184" id="319" type="passenger">
		<route edges="21294 21402"/>
	</vehicle>
	<vehicle depart="0.1" departLane="0" departPos="62.372424367362186" departSpeed="0.0" id="322" type="passenger">
		<route edges="21074 21296"/>
	</vehicle>
	<vehicle depart="0.1" departLane="0" departPos="28.57173597922585" departSpeed="13.152722" id="343" type="passenger">
		<route edges=":30_1 21075"/>
	</vehicle>
	<vehicle depart="0.1" departLane="0" departPos="48.61845510399181" departSpeed="9.9232883" id="346" type="passenger">
		<route edges="21344 21296"/>
	</vehicle>
</routes>
