<!-- generated on Tue Feb  9 22:04:08 2021 by Eclipse SUMO netconvert Version 1.8.0
<configuration xmlns:xsi="http://www.w3.org/2001/XMLSchema-instance" xsi:noNamespaceSchemaLocation="http://sumo.dlr.de/xsd/netconvertConfiguration.xsd">

    <input>
        <node-files value="./converted_scenarios/scenario-factory/ITA_SanGiorgioaCremano-2_3_I-1-1/ITA_SanGiorgioaCremano-2_3_I-1-1.nod.xml"/>
        <edge-files value="./converted_scenarios/scenario-factory/ITA_SanGiorgioaCremano-2_3_I-1-1/ITA_SanGiorgioaCremano-2_3_I-1-1.edg.xml"/>
        <connection-files value="./converted_scenarios/scenario-factory/ITA_SanGiorgioaCremano-2_3_I-1-1/ITA_SanGiorgioaCremano-2_3_I-1-1.con.xml"/>
        <tllogic-files value="./converted_scenarios/scenario-factory/ITA_SanGiorgioaCremano-2_3_I-1-1/ITA_SanGiorgioaCremano-2_3_I-1-1.tll.xml"/>
        <type-files value="/home/zen/commonroad-interactive-benchmarks/install/commonroad-map-tool/crmapconverter/sumo_map/templates/DEU.typ.xml"/>
    </input>

    <output>
        <output-file value="./converted_scenarios/scenario-factory/ITA_SanGiorgioaCremano-2_3_I-1-1/ITA_SanGiorgioaCremano-2_3_I-1-1.net.xml"/>
    </output>

    <processing>
        <geometry.remove.keep-edges.explicit value="true"/>
        <geometry.avoid-overlap value="true"/>
        <offset.disable-normalization value="true"/>
    </processing>

    <junctions>
        <no-turnarounds value="true"/>
        <junctions.internal-link-detail value="20"/>
    </junctions>

    <report>
        <aggregate-warnings value="5"/>
    </report>

    <random_number>
        <seed value="1234"/>
    </random_number>

</configuration>
--><net xmlns:xsi="http://www.w3.org/2001/XMLSchema-instance" version="1.6" junctionCornerDetail="5" junctionLinkDetail="20" limitTurnSpeed="5.50" xsi:noNamespaceSchemaLocation="http://sumo.dlr.de/xsd/net_file.xsd">

    <location netOffset="0.00,0.00" convBoundary="-732.96,50.68,-516.33,194.45" origBoundary="-732.96,50.68,-516.33,194.45" projParameter="!"/>

    <type id="highway.bridleway" priority="1" speed="2.78" allow="pedestrian" oneway="1" width="2.00"/>
    <type id="highway.bus_guideway" priority="1" speed="27.78" allow="bus" oneway="1"/>
    <type id="highway.cycleway" priority="1" speed="8.33" allow="bicycle" oneway="0" width="1.00"/>
    <type id="highway.footway" priority="1" speed="2.78" allow="pedestrian" oneway="1" width="2.00"/>
    <type id="highway.ford" priority="1" speed="2.78" allow="army" oneway="0"/>
    <type id="highway.living_street" priority="2" speed="2.78" disallow="tram rail_urban rail rail_electric rail_fast ship" oneway="0"/>
    <type id="highway.motorway" priority="14" speed="39.44" allow="private emergency authority army vip passenger hov taxi bus coach delivery truck trailer motorcycle evehicle custom1 custom2" oneway="1"/>
    <type id="highway.motorway_link" priority="9" speed="22.22" allow="private emergency authority army vip passenger hov taxi bus coach delivery truck trailer motorcycle evehicle custom1 custom2" oneway="1"/>
    <type id="highway.path" priority="1" speed="2.78" allow="pedestrian bicycle" oneway="0" width="2.00"/>
    <type id="highway.pedestrian" priority="1" speed="2.78" allow="pedestrian" oneway="1" width="2.00"/>
    <type id="highway.primary" priority="12" speed="27.78" disallow="pedestrian tram rail_urban rail rail_electric rail_fast ship" oneway="0"/>
    <type id="highway.primary_link" priority="7" speed="22.22" disallow="pedestrian tram rail_urban rail rail_electric rail_fast ship" oneway="0"/>
    <type id="highway.raceway" priority="15" speed="83.33" allow="vip" oneway="0"/>
    <type id="highway.residential" priority="3" speed="13.89" disallow="pedestrian tram rail_urban rail rail_electric rail_fast ship" oneway="0"/>
    <type id="highway.secondary" priority="11" speed="27.78" disallow="pedestrian tram rail_urban rail rail_electric rail_fast ship" oneway="0"/>
    <type id="highway.secondary_link" priority="6" speed="22.22" disallow="pedestrian tram rail_urban rail rail_electric rail_fast ship" oneway="0"/>
    <type id="highway.service" priority="1" speed="5.56" allow="pedestrian delivery bicycle" oneway="0"/>
    <type id="highway.stairs" priority="1" speed="1.39" allow="pedestrian" oneway="1" width="2.00"/>
    <type id="highway.step" priority="1" speed="1.39" allow="pedestrian" oneway="1" width="2.00"/>
    <type id="highway.steps" priority="1" speed="1.39" allow="pedestrian" oneway="1" width="2.00"/>
    <type id="highway.tertiary" priority="10" speed="22.22" disallow="pedestrian tram rail_urban rail rail_electric rail_fast ship" oneway="0"/>
    <type id="highway.tertiary_link" priority="5" speed="22.22" disallow="pedestrian tram rail_urban rail rail_electric rail_fast ship" oneway="0"/>
    <type id="highway.track" priority="1" speed="5.56" allow="pedestrian motorcycle moped bicycle" oneway="0"/>
    <type id="highway.trunk" priority="13" speed="27.78" disallow="pedestrian bicycle tram rail_urban rail rail_electric rail_fast ship" oneway="0"/>
    <type id="highway.trunk_link" priority="8" speed="22.22" disallow="pedestrian bicycle tram rail_urban rail rail_electric rail_fast ship" oneway="0"/>
    <type id="highway.unclassified" priority="4" speed="13.89" disallow="pedestrian tram rail_urban rail rail_electric rail_fast ship" oneway="0"/>
    <type id="highway.unsurfaced" priority="1" speed="8.33" disallow="tram rail_urban rail rail_electric rail_fast ship" oneway="0"/>
    <type id="railway.highspeed" priority="21" speed="69.44" allow="rail_fast" oneway="1"/>
    <type id="railway.light_rail" priority="19" speed="27.78" allow="rail_urban" oneway="1"/>
    <type id="railway.preserved" priority="16" speed="27.78" allow="rail" oneway="1"/>
    <type id="railway.rail" priority="20" speed="44.44" allow="rail" oneway="1"/>
    <type id="railway.subway" priority="18" speed="27.78" allow="rail_urban" oneway="1"/>
    <type id="railway.tram" priority="17" speed="13.89" allow="tram" oneway="1"/>

    <edge id=":29_0" function="internal">
        <lane id=":29_0_0" index="0" disallow="pedestrian tram rail_urban rail rail_electric rail_fast ship" speed="36.11" length="39.13" width="3.50" shape="-626.21,85.56 -662.30,77.07 -664.31,76.62"/>
    </edge>
    <edge id=":29_1" function="internal">
        <lane id=":29_1_0" index="0" disallow="pedestrian tram rail_urban rail rail_electric rail_fast ship" speed="12.28" length="34.74" width="3.50" shape="-626.21,85.56 -630.06,84.45 -632.54,83.46 -634.91,82.23 -637.11,80.71 -638.12,79.84 -639.06,78.90 -639.92,77.87 -640.69,76.78 -641.35,75.62 -641.91,74.41 -642.36,73.15 -642.71,71.86 -643.11,69.22 -643.17,66.55 -642.94,63.89 -642.49,61.26 -642.19,59.93"/>
    </edge>
    <edge id=":29_2" function="internal">
        <lane id=":29_2_0" index="0" disallow="pedestrian tram rail_urban rail rail_electric rail_fast ship" speed="11.28" length="29.15" width="3.50" shape="-638.79,60.76 -639.05,61.91 -639.45,64.21 -639.64,66.48 -639.59,68.72 -639.25,70.94 -638.97,71.95 -638.61,72.97 -638.16,73.94 -637.62,74.87 -637.01,75.74 -636.32,76.57 -635.55,77.33 -634.75,78.03 -632.89,79.30 -630.89,80.34 -628.77,81.18 -625.38,82.16"/>
    </edge>
    <edge id=":29_3" function="internal">
        <lane id=":29_3_0" index="0" disallow="pedestrian tram rail_urban rail rail_electric rail_fast ship" speed="12.35" length="34.31" width="3.50" shape="-638.79,60.76 -639.94,64.58 -640.96,67.01 -642.22,69.33 -643.75,71.47 -644.62,72.46 -645.57,73.37 -646.60,74.21 -647.68,74.95 -648.83,75.60 -650.03,76.14 -651.27,76.59 -653.84,77.19 -656.46,77.44 -659.10,77.40 -661.72,77.11 -664.31,76.62"/>
    </edge>
    <edge id=":29_4" function="internal">
        <lane id=":29_4_0" index="0" disallow="pedestrian tram rail_urban rail rail_electric rail_fast ship" speed="11.36" length="28.83" width="3.50" shape="-663.58,73.19 -661.29,73.63 -659.03,73.88 -656.79,73.92 -654.59,73.71 -652.45,73.21 -651.47,72.85 -650.50,72.41 -649.58,71.89 -648.70,71.29 -647.88,70.62 -647.11,69.88 -646.41,69.09 -645.12,67.29 -644.06,65.33 -643.19,63.26 -642.19,59.93"/>
    </edge>
    <edge id=":29_5" function="internal">
        <lane id=":29_5_0" index="0" disallow="pedestrian tram rail_urban rail rail_electric rail_fast ship" speed="36.11" length="39.24" width="3.50" shape="-663.58,73.19 -661.52,73.66 -625.38,82.16"/>
    </edge>
    <edge id=":30_0" function="internal">
        <lane id=":30_0_0" index="0" disallow="pedestrian tram rail_urban rail rail_electric rail_fast ship" speed="11.19" length="28.68" width="3.50" shape="-568.14,103.12 -571.33,102.28 -573.51,101.92 -575.71,101.76 -577.91,101.87 -579.00,102.04 -580.08,102.28 -581.13,102.62 -582.15,103.04 -583.12,103.55 -584.05,104.15 -584.92,104.83 -585.74,105.57 -587.17,107.24 -588.38,109.09 -589.37,111.06 -590.17,113.12 -590.52,114.17"/>
    </edge>
    <edge id=":30_1" function="internal">
        <lane id=":30_1_0" index="0" disallow="pedestrian tram rail_urban rail rail_electric rail_fast ship" speed="36.11" length="39.20" width="3.50" shape="-568.14,103.12 -592.64,95.05 -605.44,91.06"/>
    </edge>
    <edge id=":30_2" function="internal">
        <lane id=":30_2_0" index="0" disallow="pedestrian tram rail_urban rail rail_electric rail_fast ship" speed="36.11" length="39.31" width="3.50" shape="-604.50,87.68 -591.60,91.71 -567.10,99.78"/>
    </edge>
    <edge id=":30_3" function="internal">
        <lane id=":30_3_0" index="0" disallow="pedestrian tram rail_urban rail rail_electric rail_fast ship" speed="12.11" length="34.47" width="3.50" shape="-604.50,87.68 -600.68,89.04 -598.29,90.17 -596.04,91.56 -593.98,93.22 -593.05,94.16 -592.20,95.17 -591.44,96.26 -590.78,97.40 -590.23,98.60 -589.78,99.85 -589.44,101.13 -589.07,103.74 -589.04,106.39 -589.31,109.02 -589.82,111.61 -590.52,114.17"/>
    </edge>
    <edge id=":30_4" function="internal">
        <lane id=":30_4_0" index="0" disallow="pedestrian tram rail_urban rail rail_electric rail_fast ship" speed="11.10" length="28.79" width="3.50" shape="-593.87,113.14 -593.25,110.91 -592.82,108.67 -592.58,106.43 -592.60,104.23 -592.91,102.04 -593.18,101.04 -593.54,100.04 -593.98,99.08 -594.50,98.17 -595.11,97.30 -595.79,96.48 -596.52,95.74 -598.24,94.34 -600.13,93.18 -602.15,92.22 -605.44,91.06"/>
    </edge>
    <edge id=":30_5" function="internal">
        <lane id=":30_5_0" index="0" disallow="pedestrian tram rail_urban rail rail_electric rail_fast ship" speed="12.20" length="34.27" width="3.50" shape="-593.87,113.14 -593.46,111.90 -592.52,109.53 -591.36,107.20 -589.92,104.99 -588.20,102.98 -587.19,102.04 -586.11,101.20 -584.97,100.45 -583.76,99.81 -582.50,99.28 -581.20,98.87 -579.89,98.56 -578.53,98.35 -575.92,98.22 -573.31,98.40 -570.75,98.82 -567.10,99.78"/>
    </edge>
    <edge id=":31_0" function="internal">
        <lane id=":31_0_0" index="0" disallow="pedestrian tram rail_urban rail rail_electric rail_fast ship" speed="12.19" length="33.92" width="3.50" shape="-594.74,186.69 -598.44,185.22 -600.75,184.02 -602.93,182.60 -604.92,180.92 -605.83,179.98 -606.65,178.98 -607.40,177.91 -608.05,176.78 -608.60,175.60 -609.05,174.38 -609.40,173.13 -609.81,170.56 -609.86,167.95 -609.62,165.36 -609.13,162.80 -608.45,160.29"/>
    </edge>
    <edge id=":31_1" function="internal">
        <lane id=":31_1_0" index="0" disallow="pedestrian tram rail_urban rail rail_electric rail_fast ship" speed="11.19" length="28.40" width="3.50" shape="-605.10,161.32 -605.70,163.50 -606.12,165.70 -606.33,167.90 -606.28,170.07 -605.94,172.22 -605.66,173.20 -605.30,174.18 -604.85,175.13 -604.33,176.04 -603.73,176.90 -603.06,177.72 -602.34,178.46 -600.66,179.88 -598.82,181.08 -596.85,182.09 -593.66,183.36"/>
    </edge>
    <edge id=":31_2" function="internal">
        <lane id=":31_2_0" index="0" disallow="pedestrian tram rail_urban rail rail_electric rail_fast ship" speed="11.96" length="34.85" width="3.50" shape="-605.10,161.32 -606.43,164.96 -607.58,167.34 -608.97,169.60 -610.64,171.69 -611.63,172.68 -612.69,173.57 -613.83,174.37 -615.04,175.07 -616.32,175.64 -617.64,176.09 -618.99,176.41 -620.38,176.62 -623.06,176.71 -625.72,176.45 -628.31,175.91 -631.97,174.74"/>
    </edge>
    <edge id=":31_3" function="internal">
        <lane id=":31_3_0" index="0" disallow="pedestrian tram rail_urban rail rail_electric rail_fast ship" speed="10.96" length="29.05" width="3.50" shape="-630.76,171.46 -627.57,172.48 -625.39,172.93 -623.16,173.15 -620.93,173.07 -619.82,172.91 -618.73,172.64 -617.68,172.28 -616.66,171.82 -615.69,171.26 -614.77,170.62 -613.92,169.90 -613.13,169.11 -611.73,167.36 -610.56,165.45 -609.60,163.44 -608.45,160.29"/>
    </edge>

    <edge id="49674" from="30" to="31" priority="3" type="highway.residential" spreadType="center" length="49.37" shape="-586.58,102.02 -609.14,173.54">
        <lane id="49674_0" index="0" disallow="pedestrian tram rail_urban rail rail_electric rail_fast ship" speed="36.11" length="49.37" width="3.50" customShape="1" shape="-590.52,114.17 -597.81,137.74 -605.11,161.33"/>
    </edge>
    <edge id="49675" from="31" to="30" priority="3" type="highway.residential" spreadType="center" length="49.37" shape="-612.47,172.49 -589.92,100.97">
        <lane id="49675_0" index="0" disallow="pedestrian tram rail_urban rail rail_electric rail_fast ship" speed="36.11" length="49.37" width="3.50" customShape="1" shape="-608.45,160.29 -601.16,136.71 -593.86,113.13"/>
    </edge>
    <edge id="49683" from="29" to="11" priority="3" type="highway.residential" spreadType="center" length="9.53" shape="-645.14,72.77 -639.90,50.68">
        <lane id="49683_0" index="0" disallow="pedestrian tram rail_urban rail rail_electric rail_fast ship" speed="36.11" length="9.53" width="3.50" customShape="1" shape="-642.19,59.93 -641.05,55.32 -639.90,50.68"/>
    </edge>
    <edge id="49684" from="18" to="29" priority="3" type="highway.residential" spreadType="center" length="9.54" shape="-636.51,51.52 -641.74,73.57">
        <lane id="49684_0" index="0" disallow="pedestrian tram rail_urban rail rail_electric rail_fast ship" speed="36.11" length="9.54" width="3.50" customShape="1" shape="-636.51,51.52 -637.65,56.16 -638.79,60.78"/>
    </edge>
    <edge id="49723" from="31" to="25" priority="3" type="highway.residential" spreadType="center" length="70.00" shape="-611.30,174.65 -696.13,146.82">
        <lane id="49723_0" index="0" disallow="pedestrian tram rail_urban rail rail_electric rail_fast ship" speed="36.11" length="70.00" width="3.50" customShape="1" shape="-631.97,174.74 -638.17,172.29 -647.99,168.04 -672.47,156.63 -683.17,151.85 -691.20,148.59 -696.13,146.82"/>
    </edge>
    <edge id="49724" from="27" to="31" priority="3" type="highway.residential" spreadType="center" length="70.09" shape="-694.93,143.55 -610.21,171.32">
        <lane id="49724_0" index="0" disallow="pedestrian tram rail_urban rail rail_electric rail_fast ship" speed="36.11" length="70.09" width="3.50" customShape="1" shape="-694.93,143.55 -690.82,144.99 -682.60,148.29 -671.69,153.13 -646.88,164.70 -636.97,169.00 -630.68,171.49"/>
    </edge>
    <edge id="49726" from="28" to="31" priority="3" type="highway.residential" spreadType="center" length="40.20" shape="-555.56,194.45 -611.43,174.60">
        <lane id="49726_0" index="0" disallow="pedestrian tram rail_urban rail rail_electric rail_fast ship" speed="36.11" length="40.20" width="3.50" customShape="1" shape="-555.56,194.45 -558.64,193.82 -561.70,193.40 -565.82,193.28 -569.93,193.13 -572.99,192.67 -579.03,191.39 -585.99,189.50 -594.80,186.67"/>
    </edge>
    <edge id="49727" from="31" to="26" priority="3" type="highway.residential" spreadType="center" length="39.71" shape="-610.25,171.31 -554.89,191.01">
        <lane id="49727_0" index="0" disallow="pedestrian tram rail_urban rail rail_electric rail_fast ship" speed="36.11" length="39.71" width="3.50" customShape="1" shape="-593.66,183.36 -584.97,186.15 -578.14,188.00 -572.24,189.25 -569.35,189.67 -565.33,189.78 -561.16,189.93 -557.97,190.38 -554.89,191.01"/>
    </edge>
    <edge id="49969" from="30" to="15" priority="3" type="highway.residential" spreadType="center" length="52.56" shape="-587.96,99.77 -516.33,113.34">
        <lane id="49969_0" index="0" disallow="pedestrian tram rail_urban rail rail_electric rail_fast ship" speed="36.11" length="52.56" width="3.50" customShape="1" shape="-567.10,99.78 -564.18,100.69 -551.55,104.29 -516.33,113.34"/>
    </edge>
    <edge id="49970" from="22" to="30" priority="3" type="highway.residential" spreadType="center" length="52.71" shape="-517.22,116.72 -588.61,103.21">
        <lane id="49970_0" index="0" disallow="pedestrian tram rail_urban rail rail_electric rail_fast ship" speed="36.11" length="52.71" width="3.50" customShape="1" shape="-517.22,116.72 -552.51,107.65 -565.20,104.03 -568.14,103.12"/>
    </edge>
    <edge id="49972" from="29" to="30" priority="3" type="highway.residential" spreadType="center" length="21.68" shape="-642.60,71.49 -587.40,99.96">
        <lane id="49972_0" index="0" disallow="pedestrian tram rail_urban rail rail_electric rail_fast ship" speed="36.11" length="21.68" width="3.50" customShape="1" shape="-625.38,82.16 -615.87,84.51 -604.42,87.71"/>
    </edge>
    <edge id="49973" from="30" to="29" priority="3" type="highway.residential" spreadType="center" length="21.49" shape="-589.01,103.07 -644.21,74.60">
        <lane id="49973_0" index="0" disallow="pedestrian tram rail_urban rail rail_electric rail_fast ship" speed="36.11" length="21.49" width="3.50" customShape="1" shape="-605.44,91.06 -616.76,87.89 -626.21,85.56"/>
    </edge>
    <edge id="49975" from="21" to="29" priority="3" type="highway.residential" spreadType="center" length="69.99" shape="-732.21,59.57 -643.14,71.31">
        <lane id="49975_0" index="0" disallow="pedestrian tram rail_urban rail rail_electric rail_fast ship" speed="36.11" length="69.99" width="3.50" customShape="1" shape="-732.21,59.57 -728.69,60.48 -717.37,62.83 -695.58,66.69 -681.74,69.32 -663.57,73.20"/>
    </edge>
    <edge id="49976" from="29" to="12" priority="3" type="highway.residential" spreadType="center" length="70.00" shape="-643.60,74.78 -732.96,63.00">
        <lane id="49976_0" index="0" disallow="pedestrian tram rail_urban rail rail_electric rail_fast ship" speed="36.11" length="70.00" width="3.50" customShape="1" shape="-664.31,76.62 -682.48,72.74 -696.30,70.12 -718.12,66.25 -729.51,63.88 -732.96,63.00"/>
    </edge>

    <junction id="11" type="dead_end" x="-639.90" y="50.68" incLanes="49683_0" intLanes="" shape="-641.60,50.26 -638.21,51.10" rightOfWay="edgePriority"/>
    <junction id="12" type="dead_end" x="-732.96" y="63.00" incLanes="49976_0" intLanes="" shape="-733.39,64.69 -732.52,61.30" rightOfWay="edgePriority"/>
    <junction id="15" type="dead_end" x="-516.33" y="113.34" incLanes="49969_0" intLanes="" shape="-515.89,111.64 -516.76,115.03" rightOfWay="edgePriority"/>
    <junction id="18" type="dead_end" x="-636.51" y="51.52" incLanes="" intLanes="" shape="-638.21,51.10 -634.81,51.94" rightOfWay="edgePriority"/>
    <junction id="21" type="dead_end" x="-732.21" y="59.57" incLanes="" intLanes="" shape="-732.65,61.27 -731.78,57.88" rightOfWay="edgePriority"/>
    <junction id="22" type="dead_end" x="-517.22" y="116.72" incLanes="" intLanes="" shape="-516.78,115.03 -517.65,118.42" rightOfWay="edgePriority"/>
    <junction id="25" type="dead_end" x="-696.13" y="146.82" incLanes="49723_0" intLanes="" shape="-696.72,148.47 -695.54,145.18" rightOfWay="edgePriority"/>
    <junction id="26" type="dead_end" x="-554.89" y="191.01" incLanes="49727_0" intLanes="" shape="-554.54,189.30 -555.24,192.73" rightOfWay="edgePriority"/>
    <junction id="27" type="dead_end" x="-694.93" y="143.55" incLanes="" intLanes="" shape="-695.51,145.20 -694.35,141.90" rightOfWay="edgePriority"/>
    <junction id="28" type="dead_end" x="-555.56" y="194.45" incLanes="" intLanes="" shape="-555.21,192.73 -555.91,196.16" rightOfWay="edgePriority"/>
    <junction id="29" type="priority" x="-643.41" y="73.04" incLanes="49973_0 49684_0 49975_0" intLanes=":29_0_0 :29_1_0 :29_2_0 :29_3_0 :29_4_0 :29_5_0" shape="-626.63,87.26 -624.96,80.46 -629.72,78.84 -633.38,76.58 -635.95,73.68 -637.43,70.15 -637.81,65.98 -637.09,61.18 -643.88,59.51 -645.47,64.09 -647.71,67.64 -650.60,70.15 -654.15,71.63 -658.35,72.07 -663.21,71.48 -664.67,78.33">
        <request index="0" response="000000" foes="001000" cont="0"/>
        <request index="1" response="110000" foes="111000" cont="0"/>
        <request index="2" response="100000" foes="100000" cont="0"/>
        <request index="3" response="100011" foes="100011" cont="0"/>
        <request index="4" response="000000" foes="000010" cont="0"/>
        <request index="5" response="000000" foes="001110" cont="0"/>
    </junction>
    <junction id="30" type="priority" x="-588.25" y="101.50" incLanes="49970_0 49972_0 49675_0" intLanes=":30_0_0 :30_1_0 :30_2_0 :30_3_0 :30_4_0 :30_5_0" shape="-568.66,104.79 -566.59,98.11 -604.03,86.00 -605.91,92.74 -601.40,94.47 -598.00,96.84 -595.71,99.84 -594.54,103.46 -594.48,107.72 -595.53,112.61 -588.85,114.68 -587.02,110.32 -584.58,107.04 -581.52,104.85 -577.85,103.74 -573.56,103.72">
        <request index="0" response="000000" foes="001000" cont="0"/>
        <request index="1" response="000000" foes="111000" cont="0"/>
        <request index="2" response="000000" foes="100000" cont="0"/>
        <request index="3" response="000011" foes="100011" cont="0"/>
        <request index="4" response="000010" foes="000010" cont="0"/>
        <request index="5" response="001110" foes="001110" cont="0"/>
    </junction>
    <junction id="31" type="priority" x="-610.79" y="172.97" incLanes="49726_0 49674_0 49724_0" intLanes=":31_0_0 :31_1_0 :31_2_0 :31_3_0" shape="-595.27,188.35 -593.13,181.69 -597.57,179.81 -600.92,177.35 -603.18,174.32 -604.36,170.73 -604.44,166.57 -603.43,161.84 -610.12,159.77 -612.05,164.50 -614.53,168.01 -617.57,170.30 -621.17,171.38 -625.33,171.23 -630.04,169.86 -632.61,176.37">
        <request index="0" response="1000" foes="1100" cont="0"/>
        <request index="1" response="0000" foes="0000" cont="0"/>
        <request index="2" response="0001" foes="0001" cont="0"/>
        <request index="3" response="0000" foes="0001" cont="0"/>
    </junction>

    <connection from="49674" to="49727" fromLane="0" toLane="0" contPos="-4.00" shape="-605.11,161.33 -605.70,163.50 -606.12,165.70 -606.33,167.90 -606.28,170.07 -605.94,172.22 -605.66,173.20 -605.30,174.18 -604.85,175.13 -604.33,176.04 -603.73,176.90 -603.06,177.72 -602.34,178.46 -600.66,179.88 -598.82,181.08 -596.85,182.09 -593.66,183.36" via=":31_1_0" dir="r" state="M"/>
    <connection from="49674" to="49723" fromLane="0" toLane="0" contPos="-4.00" shape="-605.11,161.33 -606.43,164.96 -607.58,167.34 -608.97,169.60 -610.64,171.69 -611.63,172.68 -612.69,173.57 -613.83,174.37 -615.04,175.07 -616.32,175.64 -617.64,176.09 -618.99,176.41 -620.38,176.62 -623.06,176.71 -625.72,176.45 -628.31,175.91 -631.97,174.74" via=":31_2_0" dir="l" state="m"/>
    <connection from="49675" to="49973" fromLane="0" toLane="0" contPos="-4.00" shape="-593.87,113.14 -593.25,110.91 -592.82,108.67 -592.58,106.43 -592.60,104.23 -592.91,102.04 -593.18,101.04 -593.54,100.04 -593.98,99.08 -594.50,98.17 -595.11,97.30 -595.79,96.48 -596.52,95.74 -598.24,94.34 -600.13,93.18 -602.15,92.22 -605.44,91.06" via=":30_4_0" dir="r" state="m"/>
    <connection from="49675" to="49969" fromLane="0" toLane="0" contPos="-4.00" shape="-593.87,113.14 -593.46,111.90 -592.52,109.53 -591.36,107.20 -589.92,104.99 -588.20,102.98 -587.19,102.04 -586.11,101.20 -584.97,100.45 -583.76,99.81 -582.50,99.28 -581.20,98.87 -579.89,98.56 -578.53,98.35 -575.92,98.22 -573.31,98.40 -570.75,98.82 -567.10,99.78" via=":30_5_0" dir="l" state="m"/>
    <connection from="49684" to="49972" fromLane="0" toLane="0" contPos="-4.00" shape="-638.79,60.78 -639.05,61.91 -639.45,64.21 -639.64,66.48 -639.59,68.72 -639.25,70.94 -638.97,71.95 -638.61,72.97 -638.16,73.94 -637.62,74.87 -637.01,75.74 -636.32,76.57 -635.55,77.33 -634.75,78.03 -632.89,79.30 -630.89,80.34 -628.77,81.18 -625.38,82.16" via=":29_2_0" dir="r" state="m"/>
    <connection from="49684" to="49976" fromLane="0" toLane="0" contPos="-4.00" shape="-638.79,60.78 -639.94,64.58 -640.96,67.01 -642.22,69.33 -643.75,71.47 -644.62,72.46 -645.57,73.37 -646.60,74.21 -647.68,74.95 -648.83,75.60 -650.03,76.14 -651.27,76.59 -653.84,77.19 -656.46,77.44 -659.10,77.40 -661.72,77.11 -664.31,76.62" via=":29_3_0" dir="l" state="m"/>
    <connection from="49724" to="49675" fromLane="0" toLane="0" contPos="-4.00" shape="-630.76,171.46 -627.57,172.48 -625.39,172.93 -623.16,173.15 -620.93,173.07 -619.82,172.91 -618.73,172.64 -617.68,172.28 -616.66,171.82 -615.69,171.26 -614.77,170.62 -613.92,169.90 -613.13,169.11 -611.73,167.36 -610.56,165.45 -609.60,163.44 -608.45,160.29" via=":31_3_0" dir="r" state="M"/>
    <connection from="49726" to="49675" fromLane="0" toLane="0" contPos="-4.00" shape="-594.80,186.67 -598.44,185.22 -600.75,184.02 -602.93,182.60 -604.92,180.92 -605.83,179.98 -606.65,178.98 -607.40,177.91 -608.05,176.78 -608.60,175.60 -609.05,174.38 -609.40,173.13 -609.81,170.56 -609.86,167.95 -609.62,165.36 -609.13,162.80 -608.45,160.29" via=":31_0_0" dir="l" state="m"/>
    <connection from="49970" to="49674" fromLane="0" toLane="0" contPos="-4.00" shape="-568.14,103.12 -571.33,102.28 -573.51,101.92 -575.71,101.76 -577.91,101.87 -579.00,102.04 -580.08,102.28 -581.13,102.62 -582.15,103.04 -583.12,103.55 -584.05,104.15 -584.92,104.83 -585.74,105.57 -587.17,107.24 -588.38,109.09 -589.37,111.06 -590.17,113.12 -590.52,114.17" via=":30_0_0" dir="r" state="M"/>
    <connection from="49970" to="49973" fromLane="0" toLane="0" contPos="-4.00" shape="-568.14,103.12 -592.64,95.05 -605.44,91.06" via=":30_1_0" dir="s" state="M"/>
    <connection from="49972" to="49969" fromLane="0" toLane="0" contPos="-4.00" shape="-604.42,87.71 -591.60,91.71 -567.10,99.78" via=":30_2_0" dir="s" state="M"/>
    <connection from="49972" to="49674" fromLane="0" toLane="0" contPos="-4.00" shape="-604.42,87.71 -600.68,89.04 -598.29,90.17 -596.04,91.56 -593.98,93.22 -593.05,94.16 -592.20,95.17 -591.44,96.26 -590.78,97.40 -590.23,98.60 -589.78,99.85 -589.44,101.13 -589.07,103.74 -589.04,106.39 -589.31,109.02 -589.82,111.61 -590.52,114.17" via=":30_3_0" dir="l" state="m"/>
    <connection from="49973" to="49976" fromLane="0" toLane="0" contPos="-4.00" shape="-626.21,85.56 -662.30,77.07 -664.31,76.62" via=":29_0_0" dir="s" state="M"/>
    <connection from="49973" to="49683" fromLane="0" toLane="0" contPos="-4.00" shape="-626.21,85.56 -630.06,84.45 -632.54,83.46 -634.91,82.23 -637.11,80.71 -638.12,79.84 -639.06,78.90 -639.92,77.87 -640.69,76.78 -641.35,75.62 -641.91,74.41 -642.36,73.15 -642.71,71.86 -643.11,69.22 -643.17,66.55 -642.94,63.89 -642.49,61.26 -642.19,59.93" via=":29_1_0" dir="l" state="m"/>
    <connection from="49975" to="49683" fromLane="0" toLane="0" contPos="-4.00" shape="-663.57,73.20 -661.29,73.63 -659.03,73.88 -656.79,73.92 -654.59,73.71 -652.45,73.21 -651.47,72.85 -650.50,72.41 -649.58,71.89 -648.70,71.29 -647.88,70.62 -647.11,69.88 -646.41,69.09 -645.12,67.29 -644.06,65.33 -643.19,63.26 -642.19,59.93" via=":29_4_0" dir="r" state="M"/>
    <connection from="49975" to="49972" fromLane="0" toLane="0" contPos="-4.00" shape="-663.57,73.20 -661.52,73.66 -625.38,82.16" via=":29_5_0" dir="s" state="M"/>

    <connection from=":29_0" to="49976" fromLane="0" toLane="0" dir="s" state="M"/>
    <connection from=":29_1" to="49683" fromLane="0" toLane="0" dir="l" state="M"/>
    <connection from=":29_2" to="49972" fromLane="0" toLane="0" dir="r" state="M"/>
    <connection from=":29_3" to="49976" fromLane="0" toLane="0" dir="l" state="M"/>
    <connection from=":29_4" to="49683" fromLane="0" toLane="0" dir="r" state="M"/>
    <connection from=":29_5" to="49972" fromLane="0" toLane="0" dir="s" state="M"/>
    <connection from=":30_0" to="49674" fromLane="0" toLane="0" dir="r" state="M"/>
    <connection from=":30_1" to="49973" fromLane="0" toLane="0" dir="s" state="M"/>
    <connection from=":30_2" to="49969" fromLane="0" toLane="0" dir="s" state="M"/>
    <connection from=":30_3" to="49674" fromLane="0" toLane="0" dir="l" state="M"/>
    <connection from=":30_4" to="49973" fromLane="0" toLane="0" dir="r" state="M"/>
    <connection from=":30_5" to="49969" fromLane="0" toLane="0" dir="l" state="M"/>
    <connection from=":31_0" to="49675" fromLane="0" toLane="0" dir="l" state="M"/>
    <connection from=":31_1" to="49727" fromLane="0" toLane="0" dir="r" state="M"/>
    <connection from=":31_2" to="49723" fromLane="0" toLane="0" dir="l" state="M"/>
    <connection from=":31_3" to="49675" fromLane="0" toLane="0" dir="r" state="M"/>

</net>