<routes>
	<vehicle depart="0.1" departLane="0" departPos="15.076591554609719" departSpeed="7.0251003" id="345" type="bicycle">
		<route edges="49724 49675"/>
	</vehicle>
	<vehicle depart="0.1" departLane="0" departPos="11.35632381155296" departSpeed="2.7754203" id="33" type="passenger">
		<route edges=":31_2 49723"/>
	</vehicle>
	<vehicle depart="0.1" departLane="0" departPos="21.596089438091738" departSpeed="5.957047" id="313" type="passenger">
		<route edges=":31_2 49723"/>
	</vehicle>
	<vehicle depart="0.1" departLane="0" departPos="27.251794031681047" departSpeed="0.93850557" id="318" type="passenger">
		<route edges="49675 49969"/>
	</vehicle>
	<vehicle depart="0.1" departLane="0" departPos="11.771650852382502" departSpeed="1.567776" id="320" type="passenger">
		<route edges="49675 49969"/>
	</vehicle>
	<vehicle depart="0.1" departLane="0" departPos="33.47341043838277" departSpeed="0.83355811" id="327" type="passenger">
		<route edges="49726 49675"/>
	</vehicle>
	<vehicle depart="0.1" departLane="0" departPos="17.315947078517723" departSpeed="2.3668491" id="331" type="passenger">
		<route edges="49726 49675"/>
	</vehicle>
	<vehicle depart="0.1" departLane="0" departPos="29.63625164364321" departSpeed="2.2700113" id="335" type="passenger">
		<route edges=":31_3 49675 49969"/>
	</vehicle>
	<vehicle depart="0.1" departLane="0" departPos="62.88878270587882" departSpeed="0.029647593" id="337" type="passenger">
		<route edges="49724 49675"/>
	</vehicle>
	<vehicle depart="0.1" departLane="0" departPos="51.7563643259298" departSpeed="2.2950784" id="340" type="passenger">
		<route edges="49724 49675"/>
	</vehicle>
</routes>
