<routes>
	<vehicle depart="0.1" departLane="1" departPos="106.95559803453529" departSpeed="4.0056686" id="1" type="passenger">
		<route edges="26 28 24"/>
	</vehicle>
	<vehicle depart="0.1" departLane="0" departPos="0" departSpeed="5.4075593" id="2" type="passenger">
		<route edges="26 27 24"/>
	</vehicle>
	<vehicle depart="0.1" departLane="0" departPos="0" departSpeed="17.501266" id="3" type="passenger">
		<route edges="26 27 24"/>
	</vehicle>
</routes>
