<routes>
	<vehicle depart="0.1" departLane="0" departPos="39.972923396343376" departSpeed="1.9824497" id="39" type="bicycle">
		<route edges="33197 33108"/>
	</vehicle>
	<vehicle depart="0.1" departLane="0" departPos="28.16158473329538" departSpeed="4.5959298" id="34" type="passenger">
		<route edges=":68_0 33197 33026"/>
	</vehicle>
	<vehicle depart="0.1" departLane="0" departPos="14.89140129190906" departSpeed="10.4906" id="328" type="passenger">
		<route edges=":65_5 33026"/>
	</vehicle>
	<vehicle depart="0.1" departLane="0" departPos="10.486418252729981" departSpeed="10.201482" id="335" type="passenger">
		<route edges=":65_4 33108 33277"/>
	</vehicle>
	<vehicle depart="0.1" departLane="0" departPos="30.843388687377338" departSpeed="1.8635145" id="341" type="passenger">
		<route edges=":65_8 33390 33387"/>
	</vehicle>
	<vehicle depart="0.1" departLane="0" departPos="38.32269999840782" departSpeed="4.8661381" id="343" type="passenger">
		<route edges="33197 33108"/>
	</vehicle>
	<vehicle depart="0.1" departLane="0" departPos="14.496391220751923" departSpeed="5.1806495" id="356" type="passenger">
		<route edges="33197 33026"/>
	</vehicle>
</routes>
