<!-- generated on 2020-12-18 15:54:12.659839 by ipykernel_launcher.py v1_2_0+5214-53edc58fcd
-->
<edges>
	<edge from="1" function="normal" id="55" length="45.63217660822942" numLanes="5" priority="1" speed="36.11111111111111" spreadType="center" to="2">
		<lane allow="moped bicycle pedestrian custom1 trailer evehicle rail_urban ship private vip custom2 authority delivery rail_electric taxi tram army hov coach motorcycle passenger rail emergency" index="0" length="45.63217660822942" shape="-27.40165,30.287750000000003 -25.4314,28.49275 -24.85115,27.9551 -22.4894,25.78345 -15.182500000000001,19.1682 -14.3831,18.4358 -11.4639,15.719550000000002 -8.40165,12.970300000000002 -3.5882500000000004,8.8011 -0.6407499999999999,6.1562 0.9076500000000001,4.81675 6.8458000000000006,-0.34724999999999995 6.85525,-0.35550000000000004" speed="36.11111111111111" width="3.6434994963633516"/>
		<lane allow="moped bicycle pedestrian custom1 trailer evehicle rail_urban ship private truck vip custom2 authority delivery rail_electric taxi tram army hov coach motorcycle passenger rail emergency" index="1" length="45.63217660822942" shape="-25.01765,32.88685 -23.022550000000003,31.058799999999998 -22.333849999999998,30.41665 -20.155749999999998,28.427950000000003 -14.021999999999998,22.913649999999997 -11.9512,21.01235 -11.1289,20.24555 -9.09045,18.3885 -3.2664999999999997,13.2694 -1.23035,11.43625 -0.37999999999999995,10.6433 1.61945,8.83645 7.7324,3.5087 9.1306,2.2515" speed="36.11111111111111" width="3.2505506856531245"/>
		<lane allow="moped bicycle pedestrian custom1 trailer evehicle rail_urban ship private truck vip custom2 authority delivery rail_electric taxi tram army hov coach motorcycle passenger bus rail emergency" index="2" length="45.63217660822942" shape="-22.76175,35.34625 -20.09015,32.88845 -17.36275,30.4311 -14.43705,27.75975 -11.79145,25.39065 -8.89125,22.73855 -6.327400000000001,20.447 -3.3988500000000004,17.7791 -1.13535,15.81255 1.79245,13.21085 4.5553,10.825849999999999 7.494,8.1701 9.9335,6.02725 11.325,4.765750000000001" speed="36.11111111111111" width="3.1897109727998867"/>
		<lane allow="moped bicycle pedestrian custom1 trailer evehicle rail_urban ship private truck vip custom2 authority delivery rail_electric taxi tram army hov coach motorcycle passenger rail emergency" index="3" length="45.63217660822942" shape="-20.51105,37.8 -15.293849999999999,33.039249999999996 -15.12405,32.8828 -12.41135,30.3532 -12.2781,30.231650000000002 -4.26795,23.0638 -4.09085,22.901449999999997 -1.39245,20.385150000000003 -1.27085,20.2753 6.76635,13.35355 6.85065,13.2774 9.70465,10.61825 9.822849999999999,10.512 13.5421,7.306" speed="36.11111111111111" width="3.2118758662189935"/>
		<lane allow="moped bicycle pedestrian custom1 trailer evehicle rail_urban ship private truck vip custom2 authority delivery rail_electric taxi tram army hov coach motorcycle passenger bus rail emergency" index="4" length="45.63217660822942" shape="-18.1884,40.3322 -12.9899,35.5638 -12.6994,35.2951 -10.080300000000001,32.85295 -9.75935,32.56075 -1.9815,25.61945 -1.6891500000000002,25.35275 0.9479,22.894849999999998 1.28425,22.59245 9.1347,15.733250000000002 9.4284,15.46815 12.0795,12.99835 12.442250000000001,12.6796 15.7776,9.86735" speed="36.11111111111111" width="3.47939655831295"/>
	</edge>
	<edge from="2" function="normal" id="16" length="101.76679812847321" numLanes="6" priority="1" speed="36.11111111111111" spreadType="center" to="3">
		<lane allow="moped bicycle pedestrian custom1 trailer evehicle rail_urban ship private truck vip custom2 authority delivery rail_electric taxi tram army hov coach motorcycle passenger rail emergency" index="0" length="101.76679812847321" shape="4.389,-3.1811999999999996 6.55325,-5.0362 7.27665,-5.68205 9.9465,-7.99605 10.66985,-8.6419 13.37195,-11.020199999999999 14.0953,-11.6661 16.8127,-14.0547 17.53605,-14.70055 20.2059,-17.0146 20.929299999999998,-17.66045 21.65625,-18.291649999999997 23.65975,-20.03405 24.382649999999998,-20.6805 27.0661,-23.041249999999998 27.789,-23.6877 30.541150000000002,-26.086100000000002 31.26405,-26.73255 33.835750000000004,-28.9585 34.5586,-29.60495 37.27545,-31.936500000000002 37.99835,-32.5829 40.84225,-35.0939 41.56515,-35.74035 44.224199999999996,-38.09335 44.9471,-38.7398 47.760149999999996,-41.161500000000004 48.483050000000006,-41.807900000000004 51.11335,-44.1099 51.836200000000005,-44.75635 54.5441,-47.1249 55.188649999999996,-47.7018 55.2705,-47.77415 58.09565,-50.15575 58.81925,-50.8013 61.44005,-53.1581 62.1637,-53.8036 64.8346,-56.11665 65.5582,-56.7622 68.35105,-59.2101 69.07464999999999,-59.85565 71.5849,-62.018649999999994 72.30855,-62.664199999999994 75.08355,-65.08955 75.80715000000001,-65.73509999999999 78.50375,-67.99664999999999 79.2274,-68.64224999999999 80.96695,-70.19995" speed="36.11111111111111" width="3.684874137606322"/>
		<lane allow="moped bicycle pedestrian custom1 trailer evehicle rail_urban ship private vip custom2 authority delivery rail_electric taxi tram army hov coach motorcycle passenger rail emergency" index="1" length="101.76679812847321" shape="6.85525,-0.35550000000000004 7.4611,-0.87235 9.04165,-2.27535 9.75455,-2.9329 10.393699999999999,-3.50335 12.23845,-5.029450000000001 12.89305,-5.5842 13.006,-5.6753 13.5983,-6.17415 13.77975,-6.3392 15.87305,-8.2329 15.89455,-8.25265 16.59285,-8.8969 16.6858,-8.9805 19.249200000000002,-11.234449999999999 19.930100000000003,-11.84235 19.9996,-11.9026 22.65785,-14.2088 23.323,-14.8028 23.38645,-14.8581 23.85755,-15.2685 26.124850000000002,-17.3043 26.764400000000002,-17.89415 26.78865,-17.91555 32.9236,-23.1936 33.59825,-23.7838 33.6964,-23.86725 34.6044,-24.64025 34.6691,-24.7002 36.3374,-26.18975 37.050250000000005,-26.84735 37.56675,-27.30135 39.716300000000004,-29.1353 40.37135,-29.717550000000003 40.42315,-29.762900000000002 43.255449999999996,-32.24965 43.94585,-32.862899999999996 43.9955,-32.9063 45.607200000000006,-34.3247 46.7154,-35.3368 47.42835,-35.9944 48.58175,-37.0159 50.177350000000004,-38.375249999999994 50.82155,-38.94525 50.8911,-39.005449999999996 53.5199,-41.2838 54.1884,-41.87485 54.2598,-41.9366 56.5811,-43.9474 56.602149999999995,-43.9658 56.993300000000005,-44.3064 57.723749999999995,-44.9568 59.662,-46.5868 60.5541,-47.34155 61.2214,-47.93785 63.817099999999996,-50.2755 63.8668,-50.31945 64.56155,-50.9413 64.63145,-51.0019 67.28825,-53.308099999999996 67.43495,-53.438649999999996 67.9411,-53.890299999999996 67.99815,-53.94025 70.4936,-56.124849999999995 70.81970000000001,-56.4142 71.5395,-57.0642 74.03620000000001,-59.242 74.7279,-59.86665 74.76995,-59.9037 77.5162,-62.334050000000005 78.23599999999999,-62.984049999999996 79.18605,-63.7876 80.91040000000001,-65.23295 81.5712,-65.82145 82.0307,-66.23115 83.4123,-67.45609999999999" speed="36.11111111111111" width="3.5043532142179954"/>
		<lane allow="moped bicycle pedestrian custom1 trailer evehicle rail_urban ship private vip custom2 authority delivery rail_electric taxi tram army hov coach motorcycle passenger rail emergency" index="2" length="101.76679812847321" shape="9.1306,2.2515 9.73655,1.7054 10.61885,0.8826 12.49495,-0.78535 12.6578,-0.9182999999999999 16.029449999999997,-3.6886 18.5537,-5.9267 18.660600000000002,-6.0253499999999995 19.0303,-6.3659 19.08665,-6.415649999999999 21.653550000000003,-8.73335 26.11285,-12.581900000000001 28.98255,-15.139149999999999 29.100499999999997,-15.23985 29.738300000000002,-15.784200000000002 29.81465,-15.854600000000001 32.71185,-18.4184 36.89675,-21.972900000000003 39.741550000000004,-24.5168 39.83895,-24.600949999999997 40.8444,-25.4705 43.79475,-28.1218 47.9028,-31.64495 50.762249999999995,-34.1892 50.8742,-34.28505 51.987849999999995,-35.2399 52.046949999999995,-35.2946 54.944599999999994,-37.8851 58.9103,-41.3548 61.88415,-43.9731 63.007149999999996,-44.965 65.98525000000001,-47.56245 69.8,-50.892250000000004 72.79575,-53.498400000000004 73.90325,-54.47515 76.87315,-57.09295 81.39905,-61.09625 81.42955,-61.1228 84.41105,-63.724 85.00365,-64.23625 85.72659999999999,-64.8594" speed="36.11111111111111" width="3.216879682238678"/>
		<lane allow="moped bicycle pedestrian custom1 trailer evehicle rail_urban ship private truck vip custom2 authority delivery rail_electric taxi tram army hov coach motorcycle passenger rail emergency" index="3" length="101.76679812847321" shape="11.325,4.765750000000001 12.7957,3.4327000000000005 12.89595,3.34645 15.77225,0.8618000000000001 18.7344,-1.7677 20.86975,-3.5723000000000003 23.706400000000002,-6.0915 23.82495,-6.1922999999999995 26.83775,-8.75395 29.795650000000002,-11.39065 31.937600000000003,-13.240300000000001 34.7988,-15.825099999999999 34.8896,-15.90375 37.9531,-18.56005 40.90615,-21.200699999999998 42.948049999999995,-22.92345 45.81085,-25.44145 45.942949999999996,-25.55235 49.078649999999996,-28.1908 52.03885,-30.82545 54.203450000000004,-32.68585 57.06,-35.258399999999995 57.131,-35.320800000000006 60.31085,-38.122699999999995 63.2389,-40.79275 65.12215,-42.4444 65.15915000000001,-42.47645 68.14935,-45.06575 71.37010000000001,-47.8562 71.3813,-47.866 74.37180000000001,-50.4675 76.14405,-52.03 79.11725000000001,-54.6489 82.3126,-57.473349999999996 85.29855,-60.0781 87.1812,-61.7439 87.92155,-62.396550000000005" speed="36.11111111111111" width="3.1175293182262145"/>
		<lane allow="moped bicycle pedestrian custom1 trailer evehicle rail_urban ship private vip custom2 authority delivery rail_electric taxi tram army hov coach motorcycle passenger rail emergency" index="4" length="101.76679812847321" shape="13.5421,7.306 17.85085,3.5919499999999998 18.04335,3.41655 20.71535,0.9249 20.7765,0.8678500000000001 20.903100000000002,0.75995 29.0433,-6.1797 29.212200000000003,-6.3325499999999995 31.994149999999998,-8.923 32.155550000000005,-9.06775 40.1646,-15.9448 40.23775,-16.0121 43.02175,-18.6082 51.27105,-25.6568 51.3919,-25.7671 54.20585,-28.389200000000002 54.335800000000006,-28.50495 62.486450000000005,-35.503299999999996 62.60345,-35.61005 65.34235000000001,-38.164100000000005 73.3123,-45.0809 73.59385,-45.324650000000005 76.29915,-47.6763 76.58705,-47.9272 84.368,-54.7976 84.49205,-54.90705 84.52539999999999,-54.936049999999994 87.4022,-57.437250000000006 87.5312,-57.55095 90.15365,-59.891999999999996" speed="36.11111111111111" width="3.265483218453281"/>
		<lane allow="moped bicycle pedestrian custom1 trailer evehicle rail_urban ship private vip custom2 authority delivery rail_electric taxi tram army hov coach motorcycle passenger rail emergency" index="5" length="101.76679812847321" shape="15.7776,9.86735 20.11065,6.2138 20.342550000000003,6.01105 20.467550000000003,5.8948 23.0788,3.4654 23.431199999999997,3.15195 31.5015,-3.77615 31.743699999999997,-3.9909 31.846899999999998,-4.087 34.45725,-6.51735 34.822649999999996,-6.83835 42.459649999999996,-13.272649999999999 42.69115,-13.4749 42.81705,-13.591999999999999 45.428349999999995,-16.021349999999998 45.76405,-16.3241 53.660849999999996,-23.2594 53.916,-23.48925 53.99135,-23.55945 56.60080000000001,-25.99075 56.9606,-26.308149999999998 64.72765,-32.892700000000005 64.96265,-33.09905 65.08105,-33.2093 67.69210000000001,-35.63895 68.0325,-35.94475 75.5509,-42.50175 75.9393,-42.83995 78.53895,-45.09975 78.9199,-45.4317 86.69235,-52.22095 87.0796,-52.558350000000004 89.67925,-54.818250000000006 90.01939999999999,-55.1175 90.05160000000001,-55.14615 92.4658,-57.29765" speed="36.11111111111111" width="3.47915842985053"/>
	</edge>
	<edge from="4" function="normal" id="17" length="46.094316646432034" numLanes="1" priority="1" speed="36.11111111111111" spreadType="center" to="2">
		<lane allow="moped bicycle pedestrian custom1 trailer evehicle rail_urban ship private truck vip custom2 authority delivery rail_electric taxi tram army hov coach motorcycle passenger bus rail emergency" index="0" length="46.094316646432034" shape="-30.846600000000002,26.5321 -23.02735,20.036749999999998 -11.182300000000001,10.25135 -10.8611,9.9859 -5.00425,5.00415 -1.5443,1.99925 4.389,-3.1811999999999996" speed="36.11111111111111" width="3.6744310144565246"/>
	</edge>
</edges>
