<!-- generated on 2020-12-18 15:54:12.733922 by ipykernel_launcher.py v1_2_0+5214-53edc58fcd
-->
<nodes>
	<node id="1" type="from" x="-22.7761" y="35.33061"/>
	<node id="2" type="to" x="11.32611" y="4.7670200000000005"/>
	<node id="3" type="to" x="86.77447500000001" y="-63.683608333333325"/>
	<node id="4" type="from" x="-30.846600000000002" y="26.5321"/>
</nodes>
