<routes>
	<vehicle depart="0.1" departLane="5" departPos="78.02325003574502" departSpeed="15.5143" id="2" type="passenger">
		<route edges="16"/>
	</vehicle>
	<vehicle depart="0.1" departLane="1" departPos="78.58834886958404" departSpeed="12.6004" id="4" type="passenger">
		<route edges="16"/>
	</vehicle>
	<vehicle depart="0.1" departLane="2" departPos="69.57190227198237" departSpeed="12.0305" id="5" type="passenger">
		<route edges="16"/>
	</vehicle>
	<vehicle depart="0.1" departLane="0" departPos="61.48756735360094" departSpeed="13.0942" id="6" type="passenger">
		<route edges="16 16"/>
	</vehicle>
	<vehicle depart="0.1" departLane="2" departPos="49.528822084800666" departSpeed="12.2072" id="8" type="passenger">
		<route edges="16"/>
	</vehicle>
	<vehicle depart="0.1" departLane="3" departPos="58.933546534981005" departSpeed="15.0449" id="9" type="passenger">
		<route edges="16"/>
	</vehicle>
	<vehicle depart="0.1" departLane="5" departPos="55.57334143460647" departSpeed="14.6213" id="10" type="passenger">
		<route edges="16"/>
	</vehicle>
	<vehicle depart="0.1" departLane="5" departPos="35.63772243221006" departSpeed="15.2187" id="12" type="passenger">
		<route edges="16"/>
	</vehicle>
	<vehicle depart="0.1" departLane="4" departPos="46.752631428764005" departSpeed="13.5514" id="13" type="passenger">
		<route edges="16"/>
	</vehicle>
	<vehicle depart="0.1" departLane="1" departPos="41.31184065370863" departSpeed="10.8295" id="14" type="passenger">
		<route edges="16"/>
	</vehicle>
	<vehicle depart="0.1" departLane="0" departPos="25.310617758041005" departSpeed="13.7465" id="18" type="passenger">
		<route edges="16"/>
	</vehicle>
	<vehicle depart="0.1" departLane="3" departPos="19.028769317960496" departSpeed="15.24" id="20" type="passenger">
		<route edges="16"/>
	</vehicle>
	<vehicle depart="0.1" departLane="2" departPos="31.38740241307072" departSpeed="12.192" id="21" type="passenger">
		<route edges="16"/>
	</vehicle>
	<vehicle depart="0.1" departLane="4" departPos="26.18278606542834" departSpeed="12.192" id="22" type="passenger">
		<route edges="16"/>
	</vehicle>
	<vehicle depart="0.1" departLane="5" departPos="14.43419454584067" departSpeed="13.716" id="23" type="passenger">
		<route edges="16"/>
	</vehicle>
	<vehicle depart="0.1" departLane="2" departPos="0" departSpeed="12.5608" id="25" type="passenger">
		<route edges="16"/>
	</vehicle>
	<vehicle depart="0.1" departLane="4" departPos="9.869558319399577" departSpeed="12.192" id="26" type="passenger">
		<route edges="16"/>
	</vehicle>
	<vehicle depart="0.1" departLane="4" departPos="31.791377280358155" departSpeed="14.7858" id="27" type="passenger">
		<route edges="55 16"/>
	</vehicle>
	<vehicle depart="0.1" departLane="1" departPos="0" departSpeed="13.713" id="31" type="passenger">
		<route edges="16"/>
	</vehicle>
	<vehicle depart="0.1" departLane="3" departPos="38.29099845116415" departSpeed="12.951" id="32" type="passenger">
		<route edges="55 16"/>
	</vehicle>
	<vehicle depart="0.1" departLane="1" departPos="27.95540056630247" departSpeed="12.0792" id="34" type="passenger">
		<route edges="55 16"/>
	</vehicle>
	<vehicle depart="0.1" departLane="0" departPos="17.939599207651654" departSpeed="11.2776" id="35" type="passenger">
		<route edges="55 16 16"/>
	</vehicle>
	<vehicle depart="0.1" departLane="3" departPos="0" departSpeed="15.237" id="37" type="passenger">
		<route edges="55 16"/>
	</vehicle>
	<vehicle depart="0.1" departLane="4" departPos="0" departSpeed="12.7742" id="39" type="passenger">
		<route edges="55 16"/>
	</vehicle>
	<vehicle depart="0.1" departLane="1" departPos="16.053577214172044" departSpeed="11.9207" id="40" type="passenger">
		<route edges="55 16 16"/>
	</vehicle>
	<vehicle depart="0.1" departLane="0" departPos="0" departSpeed="11.2959" id="42" type="passenger">
		<route edges="17 16 16"/>
	</vehicle>
	<vehicle depart="0.1" departLane="0" departPos="5.053362405479136" departSpeed="10.8143" id="48" type="passenger">
		<route edges="55 16"/>
	</vehicle>
</routes>
