<?xml version="1.0" encoding="UTF-8"?>

<!-- generated on Fri Dec 18 15:54:12 2020 by Eclipse SUMO netconvert Version 1.8.0
<configuration xmlns:xsi="http://www.w3.org/2001/XMLSchema-instance" xsi:noNamespaceSchemaLocation="http://sumo.dlr.de/xsd/netconvertConfiguration.xsd">

    <input>
        <node-files value="./converted_scenarios/NGSIM/US101/USA_US101-26_1_I-1-1/nodes.net.xml"/>
        <edge-files value="./converted_scenarios/NGSIM/US101/USA_US101-26_1_I-1-1/edges.net.xml"/>
        <connection-files value="./converted_scenarios/NGSIM/US101/USA_US101-26_1_I-1-1/_connections.net.xml"/>
        <tllogic-files value="./converted_scenarios/NGSIM/US101/USA_US101-26_1_I-1-1/_tll.net.xml"/>
    </input>

    <output>
        <output-file value="./converted_scenarios/NGSIM/US101/USA_US101-26_1_I-1-1/USA_US101-26_1_I-1-1.net.xml"/>
    </output>

    <processing>
        <plain.extend-edge-shape value="true"/>
        <geometry.remove.keep-edges.explicit value="true"/>
        <geometry.avoid-overlap value="true"/>
        <offset.disable-normalization value="true"/>
    </processing>

    <junctions>
        <no-turnarounds value="true"/>
        <junctions.internal-link-detail value="20"/>
    </junctions>

    <report>
        <aggregate-warnings value="5"/>
    </report>

    <random_number>
        <seed value="1234"/>
    </random_number>

</configuration>
-->

<net version="1.6" junctionCornerDetail="5" junctionLinkDetail="20" limitTurnSpeed="5.50" xmlns:xsi="http://www.w3.org/2001/XMLSchema-instance" xsi:noNamespaceSchemaLocation="http://sumo.dlr.de/xsd/net_file.xsd">

    <location netOffset="0.00,0.00" convBoundary="-30.85,-63.68,86.77,35.33" origBoundary="-30.85,-70.20,92.47,40.33" projParameter="!"/>

    <edge id=":2_0" function="internal">
        <lane id=":2_0_0" index="0" disallow="bus rail_fast" speed="36.11" length="3.00" width="3.68" shape="3.69,-2.58 5.96,-4.53"/>
    </edge>
    <edge id=":2_1" function="internal">
        <lane id=":2_1_0" index="0" disallow="bus truck rail_fast" speed="36.11" length="3.56" width="3.50" shape="5.72,0.63 8.41,-1.71"/>
        <lane id=":2_1_1" index="1" disallow="bus truck rail_fast" speed="36.11" length="3.56" width="3.22" shape="8.01,3.26 10.65,0.86"/>
        <lane id=":2_1_2" index="2" disallow="bus rail_fast" speed="36.11" length="3.56" width="3.12" shape="10.20,5.78 12.85,3.39"/>
        <lane id=":2_1_3" index="3" disallow="bus truck rail_fast" speed="36.11" length="3.56" width="3.27" shape="12.39,8.30 15.09,5.97"/>
        <lane id=":2_1_4" index="4" disallow="bus truck rail_fast" speed="36.11" length="3.56" width="3.48" shape="14.61,10.85 17.33,8.56"/>
    </edge>

    <edge id="16" from="2" to="3" priority="1" spreadType="center" length="101.77">
        <lane id="16_0" index="0" disallow="bus rail_fast" speed="36.11" length="101.77" width="3.68" acceleration="1" customShape="1" shape="5.96,-4.53 6.55,-5.04 7.28,-5.68 9.95,-8.00 10.67,-8.64 13.37,-11.02 14.10,-11.67 16.81,-14.05 17.54,-14.70 20.21,-17.01 20.93,-17.66 21.66,-18.29 23.66,-20.03 24.38,-20.68 27.07,-23.04 27.79,-23.69 30.54,-26.09 31.26,-26.73 33.84,-28.96 34.56,-29.60 37.28,-31.94 38.00,-32.58 40.84,-35.09 41.57,-35.74 44.22,-38.09 44.95,-38.74 47.76,-41.16 48.48,-41.81 51.11,-44.11 51.84,-44.76 54.54,-47.12 55.19,-47.70 55.27,-47.77 58.10,-50.16 58.82,-50.80 61.44,-53.16 62.16,-53.80 64.83,-56.12 65.56,-56.76 68.35,-59.21 69.07,-59.86 71.58,-62.02 72.31,-62.66 75.08,-65.09 75.81,-65.74 78.50,-68.00 79.23,-68.64 80.97,-70.20"/>
        <lane id="16_1" index="1" disallow="bus truck rail_fast" speed="36.11" length="101.77" width="3.50" customShape="1" shape="8.41,-1.71 9.04,-2.28 9.75,-2.93 10.39,-3.50 12.24,-5.03 12.89,-5.58 13.01,-5.68 13.60,-6.17 13.78,-6.34 15.87,-8.23 16.59,-8.90 16.69,-8.98 19.25,-11.23 19.93,-11.84 22.66,-14.21 23.32,-14.80 23.86,-15.27 26.12,-17.30 26.76,-17.89 32.92,-23.19 33.60,-23.78 33.70,-23.87 34.60,-24.64 36.34,-26.19 37.05,-26.85 37.57,-27.30 39.72,-29.14 40.37,-29.72 43.26,-32.25 43.95,-32.86 45.61,-34.32 46.72,-35.34 47.43,-35.99 48.58,-37.02 50.18,-38.38 50.82,-38.95 53.52,-41.28 54.19,-41.87 56.58,-43.95 56.99,-44.31 57.72,-44.96 59.66,-46.59 60.55,-47.34 61.22,-47.94 63.82,-50.28 64.56,-50.94 67.29,-53.31 67.43,-53.44 67.94,-53.89 70.49,-56.12 70.82,-56.41 71.54,-57.06 74.04,-59.24 74.73,-59.87 77.52,-62.33 78.24,-62.98 79.19,-63.79 80.91,-65.23 81.57,-65.82 82.03,-66.23 83.41,-67.46"/>
        <lane id="16_2" index="2" disallow="bus truck rail_fast" speed="36.11" length="101.77" width="3.22" customShape="1" shape="10.65,0.86 12.49,-0.79 12.66,-0.92 16.03,-3.69 18.55,-5.93 18.66,-6.03 19.03,-6.37 21.65,-8.73 26.11,-12.58 28.98,-15.14 29.10,-15.24 29.74,-15.78 29.81,-15.85 32.71,-18.42 36.90,-21.97 39.74,-24.52 39.84,-24.60 40.84,-25.47 43.79,-28.12 47.90,-31.64 50.76,-34.19 50.87,-34.29 51.99,-35.24 54.94,-37.89 58.91,-41.35 61.88,-43.97 63.01,-44.97 65.99,-47.56 69.80,-50.89 72.80,-53.50 73.90,-54.48 76.87,-57.09 81.40,-61.10 84.41,-63.72 85.00,-64.24 85.73,-64.86"/>
        <lane id="16_3" index="3" disallow="bus rail_fast" speed="36.11" length="101.77" width="3.12" customShape="1" shape="12.85,3.39 15.77,0.86 18.73,-1.77 20.87,-3.57 23.71,-6.09 23.82,-6.19 26.84,-8.75 29.80,-11.39 31.94,-13.24 34.80,-15.83 34.89,-15.90 37.95,-18.56 40.91,-21.20 42.95,-22.92 45.81,-25.44 45.94,-25.55 49.08,-28.19 52.04,-30.83 54.20,-32.69 57.06,-35.26 60.31,-38.12 63.24,-40.79 65.12,-42.44 68.15,-45.07 71.37,-47.86 74.37,-50.47 76.14,-52.03 79.12,-54.65 82.31,-57.47 85.30,-60.08 87.18,-61.74 87.92,-62.40"/>
        <lane id="16_4" index="4" disallow="bus truck rail_fast" speed="36.11" length="101.77" width="3.27" customShape="1" shape="15.09,5.97 17.85,3.59 18.04,3.42 20.72,0.92 20.90,0.76 29.04,-6.18 29.21,-6.33 31.99,-8.92 32.16,-9.07 40.16,-15.94 43.02,-18.61 51.27,-25.66 51.39,-25.77 54.21,-28.39 54.34,-28.50 62.49,-35.50 62.60,-35.61 65.34,-38.16 73.31,-45.08 73.59,-45.32 76.30,-47.68 76.59,-47.93 84.37,-54.80 84.49,-54.91 87.40,-57.44 87.53,-57.55 90.16,-59.90"/>
        <lane id="16_5" index="5" disallow="bus truck rail_fast" speed="36.11" length="101.77" width="3.48" customShape="1" shape="17.33,8.56 20.11,6.21 20.34,6.01 20.47,5.89 23.08,3.47 23.43,3.15 31.50,-3.78 31.74,-3.99 31.85,-4.09 34.46,-6.52 34.82,-6.84 42.46,-13.27 42.69,-13.47 42.82,-13.59 45.43,-16.02 45.76,-16.32 53.66,-23.26 53.92,-23.49 53.99,-23.56 56.60,-25.99 56.96,-26.31 64.73,-32.89 64.96,-33.10 65.08,-33.21 67.69,-35.64 68.03,-35.94 75.55,-42.50 75.94,-42.84 78.54,-45.10 78.92,-45.43 86.69,-52.22 87.08,-52.56 89.68,-54.82 90.02,-55.12 92.48,-57.31"/>
    </edge>
    <edge id="17" from="4" to="2" priority="1" spreadType="center" length="46.09">
        <lane id="17_0" index="0" disallow="rail_fast" speed="36.11" length="46.09" width="3.67" customShape="1" shape="-30.85,26.53 -23.03,20.04 -11.18,10.25 -10.86,9.99 -5.00,5.00 -1.54,2.00 3.69,-2.58"/>
    </edge>
    <edge id="55" from="1" to="2" priority="1" spreadType="center" length="45.63">
        <lane id="55_0" index="0" disallow="bus truck rail_fast" speed="36.11" length="45.63" width="3.64" customShape="1" shape="-27.40,30.29 -25.43,28.49 -24.85,27.96 -22.49,25.78 -15.18,19.17 -14.38,18.44 -11.46,15.72 -8.40,12.97 -3.59,8.80 -0.64,6.16 0.91,4.82 5.72,0.63"/>
        <lane id="55_1" index="1" disallow="bus rail_fast" speed="36.11" length="45.63" width="3.25" customShape="1" shape="-25.02,32.89 -23.02,31.06 -22.33,30.42 -20.16,28.43 -14.02,22.91 -11.95,21.01 -11.13,20.25 -9.09,18.39 -3.27,13.27 -1.23,11.44 -0.38,10.64 1.62,8.84 7.73,3.51 8.01,3.26"/>
        <lane id="55_2" index="2" disallow="rail_fast" speed="36.11" length="45.63" width="3.19" customShape="1" shape="-22.76,35.35 -20.09,32.89 -17.36,30.43 -14.44,27.76 -11.79,25.39 -8.89,22.74 -6.33,20.45 -3.40,17.78 -1.14,15.81 1.79,13.21 4.56,10.83 7.49,8.17 9.93,6.03 10.20,5.78"/>
        <lane id="55_3" index="3" disallow="bus rail_fast" speed="36.11" length="45.63" width="3.21" customShape="1" shape="-20.51,37.80 -15.29,33.04 -15.12,32.88 -12.41,30.35 -12.28,30.23 -4.27,23.06 -4.09,22.90 -1.39,20.39 -1.27,20.28 6.77,13.35 6.85,13.28 9.70,10.62 9.82,10.51 12.39,8.30"/>
        <lane id="55_4" index="4" disallow="rail_fast" speed="36.11" length="45.63" width="3.48" customShape="1" shape="-18.19,40.33 -12.99,35.56 -12.70,35.30 -10.08,32.85 -9.76,32.56 -1.98,25.62 -1.69,25.35 0.95,22.89 1.28,22.59 9.13,15.73 9.43,15.47 12.08,13.00 12.44,12.68 14.61,10.85"/>
    </edge>

    <junction id="1" type="dead_end" x="-22.78" y="35.33" incLanes="" intLanes="" shape="-17.01,41.61 -28.63,28.95"/>
    <junction id="2" type="priority" x="11.33" y="4.77" incLanes="17_0 55_0 55_1 55_2 55_3 55_4" intLanes=":2_0_0 :2_1_0 :2_1_1 :2_1_2 :2_1_3 :2_1_4" shape="18.47,9.87 4.76,-5.92 2.49,-3.96 4.90,-1.19 4.53,-0.75 15.75,12.16">
        <request index="0" response="000000" foes="000000" cont="0"/>
        <request index="1" response="000000" foes="000000" cont="0"/>
        <request index="2" response="000000" foes="000000" cont="0"/>
        <request index="3" response="000000" foes="000000" cont="0"/>
        <request index="4" response="000000" foes="000000" cont="0"/>
        <request index="5" response="000000" foes="000000" cont="0"/>
    </junction>
    <junction id="3" type="dead_end" x="86.77" y="-63.68" incLanes="16_0 16_1 16_2 16_3 16_4 16_5" intLanes="" shape="79.72,-71.56 93.64,-56.02"/>
    <junction id="4" type="dead_end" x="-30.85" y="26.53" incLanes="" intLanes="" shape="-29.67,27.95 -32.02,25.12"/>

    <connection from="17" to="16" fromLane="0" toLane="0" contPos="-4.00" via=":2_0_0" dir="s" state="M"/>
    <connection from="55" to="16" fromLane="0" toLane="1" contPos="-4.00" via=":2_1_0" dir="s" state="M"/>
    <connection from="55" to="16" fromLane="1" toLane="2" contPos="-4.00" via=":2_1_1" dir="s" state="M"/>
    <connection from="55" to="16" fromLane="2" toLane="3" contPos="-4.00" via=":2_1_2" dir="s" state="M"/>
    <connection from="55" to="16" fromLane="3" toLane="4" contPos="-4.00" via=":2_1_3" dir="s" state="M"/>
    <connection from="55" to="16" fromLane="4" toLane="5" contPos="-4.00" via=":2_1_4" dir="s" state="M"/>

    <connection from=":2_0" to="16" fromLane="0" toLane="0" dir="s" state="M"/>
    <connection from=":2_1" to="16" fromLane="0" toLane="1" dir="s" state="M"/>
    <connection from=":2_1" to="16" fromLane="1" toLane="2" dir="s" state="M"/>
    <connection from=":2_1" to="16" fromLane="2" toLane="3" dir="s" state="M"/>
    <connection from=":2_1" to="16" fromLane="3" toLane="4" dir="s" state="M"/>
    <connection from=":2_1" to="16" fromLane="4" toLane="5" dir="s" state="M"/>

</net>
