<routes>
	<vehicle depart="0.1" departLane="0" departPos="65.4137228954634" departSpeed="8.2159257" id="346" type="bus">
		<route edges="276 220"/>
	</vehicle>
	<vehicle depart="0.1" departLane="0" departPos="39.36819033344315" departSpeed="7.162776" id="349" type="bus">
		<route edges="276 273 270"/>
	</vehicle>
	<vehicle depart="0.1" departLane="0" departPos="59.00879453111044" departSpeed="2.5521273" id="32" type="passenger">
		<route edges="216 274"/>
	</vehicle>
	<vehicle depart="0.1" departLane="0" departPos="50.48889745647988" departSpeed="1.6403457" id="37" type="passenger">
		<route edges="216 274"/>
	</vehicle>
	<vehicle depart="0.1" departLane="0" departPos="21.959562560351408" departSpeed="9.6128237" id="310" type="passenger">
		<route edges="273 270 267"/>
	</vehicle>
	<vehicle depart="0.1" departLane="0" departPos="8.126839233368376" departSpeed="4.8123314" id="311" type="passenger">
		<route edges=":30_5 274 277"/>
	</vehicle>
	<vehicle depart="0.1" departLane="0" departPos="42.581293910160106" departSpeed="0.81451113" id="319" type="passenger">
		<route edges="216 274"/>
	</vehicle>
	<vehicle depart="0.1" departLane="0" departPos="89.59743799860088" departSpeed="18.493581" id="321" type="passenger">
		<route edges="270 267"/>
	</vehicle>
	<vehicle depart="0.1" departLane="0" departPos="6.578921072643914" departSpeed="7.8633571" id="322" type="passenger">
		<route edges=":29_4 273 270 267"/>
	</vehicle>
	<vehicle depart="0.1" departLane="0" departPos="35.11209851620816" departSpeed="0.33254092" id="323" type="passenger">
		<route edges="216 274"/>
	</vehicle>
	<vehicle depart="0.1" departLane="0" departPos="59.150734593919424" departSpeed="19.459606" id="326" type="passenger">
		<route edges="270 267"/>
	</vehicle>
	<vehicle depart="0.1" departLane="0" departPos="62.234344852965776" departSpeed="6.5600134" id="327" type="passenger">
		<route edges="219 273 270"/>
	</vehicle>
	<vehicle depart="0.1" departLane="0" departPos="50.59307089979948" departSpeed="5.2243581" id="328" type="passenger">
		<route edges="219 277"/>
	</vehicle>
	<vehicle depart="0.1" departLane="0" departPos="98.06316805793548" departSpeed="6.936931" id="332" type="passenger">
		<route edges="273 270 267"/>
	</vehicle>
	<vehicle depart="0.1" departLane="0" departPos="32.89005425050465" departSpeed="2.9504031" id="336" type="passenger">
		<route edges="219 277"/>
	</vehicle>
	<vehicle depart="0.1" departLane="0" departPos="18.6433801561349" departSpeed="0.047084148" id="338" type="passenger">
		<route edges="216 274"/>
	</vehicle>
	<vehicle depart="0.1" departLane="0" departPos="7.292459752874113" departSpeed="8.4876641" id="341" type="passenger">
		<route edges="220"/>
	</vehicle>
	<vehicle depart="0.1" departLane="0" departPos="23.89935440446824" departSpeed="2.0077845" id="342" type="passenger">
		<route edges="219 277"/>
	</vehicle>
	<vehicle depart="0.1" departLane="0" departPos="11.205428337323617" departSpeed="0.060574717" id="344" type="passenger">
		<route edges="216 274"/>
	</vehicle>
	<vehicle depart="0.1" departLane="0" departPos="15.696588482331716" departSpeed="1.4407652" id="348" type="passenger">
		<route edges="219 277"/>
	</vehicle>
	<vehicle depart="0.1" departLane="0" departPos="7.408090848447335" departSpeed="1.041837" id="351" type="passenger">
		<route edges="219 277"/>
	</vehicle>
	<vehicle depart="0.1" departLane="0" departPos="19.595769645104244" departSpeed="6.3106556" id="352" type="passenger">
		<route edges="276 273 270"/>
	</vehicle>
	<vehicle depart="0.1" departLane="0" departPos="8.758676909930552" departSpeed="3.9104101" id="354" type="passenger">
		<route edges="276 273"/>
	</vehicle>
	<vehicle depart="0.1" departLane="0" departPos="40.2669664294202" departSpeed="4.0645612" id="333" type="motorcycle">
		<route edges="219 277"/>
	</vehicle>
	<vehicle depart="0.1" departLane="0" departPos="21.360915281324246" departSpeed="9.4092821" id="335" type="motorcycle">
		<route edges="220"/>
	</vehicle>
	<vehicle depart="0.1" departLane="0" departPos="27.965541518424363" departSpeed="0.11197817" id="331" type="truck">
		<route edges="216 274"/>
	</vehicle>
</routes>
