<!-- generated on 2020-12-18 16:18:37.209195 by ipykernel_launcher.py v1_2_0+5214-53edc58fcd
-->
<connections>
	<connection contPos="-4.0" from="4109" fromLane="0" keepClear="true" to="4205" toLane="0"/>
	<connection contPos="-4.0" from="4109" fromLane="0" keepClear="true" to="4240" toLane="0"/>
	<connection contPos="-4.0" from="4114" fromLane="1" keepClear="true" to="4178" toLane="1"/>
	<connection contPos="-4.0" from="4114" fromLane="0" keepClear="true" to="4177" toLane="0"/>
	<connection contPos="-4.0" from="4114" fromLane="0" keepClear="true" to="4178" toLane="0"/>
	<connection contPos="-4.0" from="4115" fromLane="0" keepClear="true" to="4242" toLane="0"/>
	<connection contPos="-4.0" from="4115" fromLane="0" keepClear="true" to="4233" toLane="0"/>
	<connection contPos="-4.0" from="4117" fromLane="0" keepClear="true" to="4202" toLane="0"/>
	<connection contPos="-4.0" from="4117" fromLane="1" keepClear="true" to="4225" toLane="0"/>
	<connection contPos="-4.0" from="4117" fromLane="1" keepClear="true" to="4202" toLane="1"/>
	<connection contPos="-4.0" from="4120" fromLane="1" keepClear="true" to="4214" toLane="1"/>
	<connection contPos="-4.0" from="4120" fromLane="0" keepClear="true" to="4211" toLane="0"/>
	<connection contPos="-4.0" from="4120" fromLane="0" keepClear="true" to="4214" toLane="0"/>
	<connection contPos="-4.0" from="4121" fromLane="0" keepClear="true" to="4188" toLane="0"/>
	<connection contPos="-4.0" from="4122" fromLane="0" keepClear="true" to="4232" toLane="0"/>
	<connection contPos="-4.0" from="4122" fromLane="0" keepClear="true" to="4218" toLane="0"/>
	<connection contPos="-4.0" from="4123" fromLane="0" keepClear="true" to="4182" toLane="0"/>
	<connection contPos="-4.0" from="4123" fromLane="0" keepClear="true" to="4186" toLane="0"/>
	<connection contPos="-4.0" from="4123" fromLane="0" keepClear="true" to="4184" toLane="0"/>
	<connection contPos="-4.0" from="4124" fromLane="0" keepClear="true" to="4227" toLane="0"/>
	<connection contPos="-4.0" from="4124" fromLane="0" keepClear="true" to="4248" toLane="0"/>
	<connection contPos="-4.0" from="4124" fromLane="0" keepClear="true" to="4246" toLane="0"/>
	<connection contPos="-4.0" from="4125" fromLane="0" keepClear="true" to="4204" toLane="0"/>
	<connection contPos="-4.0" from="4125" fromLane="0" keepClear="true" to="4195" toLane="0"/>
	<connection contPos="-4.0" from="4126" fromLane="0" keepClear="true" to="4222" toLane="0"/>
	<connection contPos="-4.0" from="4127" fromLane="0" keepClear="true" to="4241" toLane="0"/>
	<connection contPos="-4.0" from="4127" fromLane="1" keepClear="true" to="4241" toLane="1"/>
	<connection contPos="-4.0" from="4130" fromLane="1" keepClear="true" to="4260" toLane="0"/>
	<connection contPos="-4.0" from="4130" fromLane="1" keepClear="true" to="4254" toLane="1"/>
	<connection contPos="-4.0" from="4130" fromLane="0" keepClear="true" to="4197" toLane="0"/>
	<connection contPos="-4.0" from="4130" fromLane="0" keepClear="true" to="4254" toLane="0"/>
	<connection contPos="-4.0" from="4131" fromLane="0" keepClear="true" to="4210" toLane="0"/>
	<connection contPos="-4.0" from="4131" fromLane="0" keepClear="true" to="4220" toLane="0"/>
	<connection contPos="-4.0" from="4131" fromLane="0" keepClear="true" to="4207" toLane="0"/>
	<connection contPos="-4.0" from="4132" fromLane="0" keepClear="true" to="4258" toLane="0"/>
	<connection contPos="-4.0" from="4132" fromLane="0" keepClear="true" to="4219" toLane="0"/>
	<connection contPos="-4.0" from="4135" fromLane="0" keepClear="true" to="4229" toLane="0"/>
	<connection contPos="-4.0" from="4135" fromLane="0" keepClear="true" to="4193" toLane="0"/>
	<connection contPos="-4.0" from="4136" fromLane="0" keepClear="true" to="4209" toLane="0"/>
	<connection contPos="-4.0" from="4136" fromLane="0" keepClear="true" to="4213" toLane="0"/>
	<connection contPos="-4.0" from="4139" fromLane="0" keepClear="true" to="4198" toLane="0"/>
	<connection contPos="-4.0" from="4139" fromLane="0" keepClear="true" to="4224" toLane="0"/>
	<connection contPos="-4.0" from="4140" fromLane="0" keepClear="true" to="4238" toLane="0"/>
	<connection contPos="-4.0" from="4140" fromLane="0" keepClear="true" to="4247" toLane="0"/>
	<connection contPos="-4.0" from="4140" fromLane="1" keepClear="true" to="4238" toLane="1"/>
	<connection contPos="-4.0" from="4143" fromLane="1" keepClear="true" to="4183" toLane="1"/>
	<connection contPos="-4.0" from="4143" fromLane="1" keepClear="true" to="4235" toLane="0"/>
	<connection contPos="-4.0" from="4143" fromLane="0" keepClear="true" to="4183" toLane="0"/>
	<connection contPos="-4.0" from="4144" fromLane="0" keepClear="true" to="4200" toLane="0"/>
	<connection contPos="-4.0" from="4144" fromLane="0" keepClear="true" to="4244" toLane="0"/>
	<connection contPos="-4.0" from="4144" fromLane="0" keepClear="true" to="4208" toLane="0"/>
	<connection contPos="-4.0" from="4146" fromLane="0" keepClear="true" to="4179" toLane="0"/>
	<connection contPos="-4.0" from="4147" fromLane="0" keepClear="true" to="4251" toLane="0"/>
	<connection contPos="-4.0" from="4148" fromLane="0" keepClear="true" to="4239" toLane="0"/>
	<connection contPos="-4.0" from="4148" fromLane="0" keepClear="true" to="4185" toLane="0"/>
	<connection contPos="-4.0" from="4149" fromLane="0" keepClear="true" to="4203" toLane="0"/>
	<connection contPos="-4.0" from="4150" fromLane="0" keepClear="true" to="4245" toLane="0"/>
	<connection contPos="-4.0" from="4151" fromLane="0" keepClear="true" to="4256" toLane="0"/>
	<connection contPos="-4.0" from="4152" fromLane="0" keepClear="true" to="4206" toLane="0"/>
	<connection contPos="-4.0" from="4152" fromLane="1" keepClear="true" to="4206" toLane="1"/>
	<connection contPos="-4.0" from="4155" fromLane="1" keepClear="true" to="4259" toLane="1"/>
	<connection contPos="-4.0" from="4155" fromLane="0" keepClear="true" to="4259" toLane="0"/>
	<connection contPos="-4.0" from="4158" fromLane="0" keepClear="true" to="4253" toLane="0"/>
	<connection contPos="-4.0" from="4158" fromLane="1" keepClear="true" to="4253" toLane="1"/>
	<connection contPos="-4.0" from="4161" fromLane="1" keepClear="true" to="4215" toLane="1"/>
	<connection contPos="-4.0" from="4161" fromLane="0" keepClear="true" to="4215" toLane="0"/>
	<connection contPos="-4.0" from="4162" fromLane="0" keepClear="true" to="4234" toLane="0"/>
	<connection contPos="-4.0" from="4162" fromLane="1" keepClear="true" to="4243" toLane="0"/>
	<connection contPos="-4.0" from="4162" fromLane="1" keepClear="true" to="4234" toLane="1"/>
	<connection contPos="-4.0" from="4165" fromLane="1" keepClear="true" to="4231" toLane="1"/>
	<connection contPos="-4.0" from="4165" fromLane="0" keepClear="true" to="4231" toLane="0"/>
	<connection contPos="-4.0" from="4166" fromLane="0" keepClear="true" to="4216" toLane="0"/>
	<connection contPos="-4.0" from="4166" fromLane="0" keepClear="true" to="4196" toLane="0"/>
	<connection contPos="-4.0" from="4167" fromLane="0" keepClear="true" to="4250" toLane="0"/>
	<connection contPos="-4.0" from="4167" fromLane="0" keepClear="true" to="4237" toLane="0"/>
	<connection contPos="-4.0" from="4168" fromLane="0" keepClear="true" to="4228" toLane="0"/>
	<connection contPos="-4.0" from="4169" fromLane="0" keepClear="true" to="4255" toLane="0"/>
	<connection contPos="-4.0" from="4169" fromLane="0" keepClear="true" to="4199" toLane="0"/>
	<connection contPos="-4.0" from="4171" fromLane="1" keepClear="true" to="4201" toLane="1"/>
	<connection contPos="-4.0" from="4171" fromLane="0" keepClear="true" to="4201" toLane="0"/>
	<connection contPos="-4.0" from="4171" fromLane="0" keepClear="true" to="4221" toLane="0"/>
	<connection contPos="-4.0" from="4173" fromLane="0" keepClear="true" to="4223" toLane="0"/>
	<connection contPos="-4.0" from="4173" fromLane="0" keepClear="true" to="4217" toLane="0"/>
	<connection contPos="-4.0" from="4173" fromLane="1" keepClear="true" to="4223" toLane="1"/>
	<connection contPos="-4.0" from="4177" fromLane="0" keepClear="true" to="4116" toLane="0"/>
	<connection contPos="-4.0" from="4178" fromLane="0" keepClear="true" to="4120" toLane="0"/>
	<connection contPos="-4.0" from="4179" fromLane="0" keepClear="true" to="4125" toLane="0"/>
	<connection contPos="-4.0" from="4253" fromLane="1" keepClear="true" to="4152" toLane="1"/>
	<connection contPos="-4.0" from="4201" fromLane="1" keepClear="true" to="4157" toLane="1"/>
	<connection contPos="-4.0" from="4182" fromLane="0" keepClear="true" to="4143" toLane="0"/>
	<connection contPos="-4.0" from="4183" fromLane="0" keepClear="true" to="4176" toLane="0"/>
	<connection contPos="-4.0" from="4184" fromLane="0" keepClear="true" to="4127" toLane="1"/>
	<connection contPos="-4.0" from="4185" fromLane="0" keepClear="true" to="4137" toLane="0"/>
	<connection contPos="-4.0" from="4186" fromLane="0" keepClear="true" to="4124" toLane="0"/>
	<connection contPos="-4.0" from="4214" fromLane="1" keepClear="true" to="4165" toLane="1"/>
	<connection contPos="-4.0" from="4188" fromLane="0" keepClear="true" to="4168" toLane="0"/>
	<connection contPos="-4.0" from="4215" fromLane="1" keepClear="true" to="4130" toLane="1"/>
	<connection contPos="-4.0" from="4183" fromLane="1" keepClear="true" to="4176" toLane="1"/>
	<connection contPos="-4.0" from="4241" fromLane="1" keepClear="true" to="4158" toLane="1"/>
	<connection contPos="-4.0" from="4223" fromLane="1" keepClear="true" to="4140" toLane="1"/>
	<connection contPos="-4.0" from="4193" fromLane="0" keepClear="true" to="4140" toLane="0"/>
	<connection contPos="-4.0" from="4259" fromLane="1" keepClear="true" to="4161" toLane="1"/>
	<connection contPos="-4.0" from="4195" fromLane="0" keepClear="true" to="4144" toLane="0"/>
	<connection contPos="-4.0" from="4196" fromLane="0" keepClear="true" to="4127" toLane="1"/>
	<connection contPos="-4.0" from="4197" fromLane="0" keepClear="true" to="4167" toLane="0"/>
	<connection contPos="-4.0" from="4198" fromLane="0" keepClear="true" to="4126" toLane="0"/>
	<connection contPos="-4.0" from="4199" fromLane="0" keepClear="true" to="4172" toLane="0"/>
	<connection contPos="-4.0" from="4200" fromLane="0" keepClear="true" to="4145" toLane="0"/>
	<connection contPos="-4.0" from="4201" fromLane="0" keepClear="true" to="4157" toLane="0"/>
	<connection contPos="-4.0" from="4202" fromLane="0" keepClear="true" to="4111" toLane="0"/>
	<connection contPos="-4.0" from="4203" fromLane="0" keepClear="true" to="4157" toLane="0"/>
	<connection contPos="-4.0" from="4204" fromLane="0" keepClear="true" to="4138" toLane="0"/>
	<connection contPos="-4.0" from="4205" fromLane="0" keepClear="true" to="4121" toLane="0"/>
	<connection contPos="-4.0" from="4206" fromLane="0" keepClear="true" to="4162" toLane="0"/>
	<connection contPos="-4.0" from="4207" fromLane="0" keepClear="true" to="4126" toLane="0"/>
	<connection contPos="-4.0" from="4208" fromLane="0" keepClear="true" to="4165" toLane="1"/>
	<connection contPos="-4.0" from="4209" fromLane="0" keepClear="true" to="4166" toLane="0"/>
	<connection contPos="-4.0" from="4210" fromLane="0" keepClear="true" to="4144" toLane="0"/>
	<connection contPos="-4.0" from="4211" fromLane="0" keepClear="true" to="4145" toLane="0"/>
	<connection contPos="-4.0" from="4254" fromLane="1" keepClear="true" to="4143" toLane="1"/>
	<connection contPos="-4.0" from="4213" fromLane="0" keepClear="true" to="4149" toLane="0"/>
	<connection contPos="-4.0" from="4214" fromLane="0" keepClear="true" to="4165" toLane="0"/>
	<connection contPos="-4.0" from="4215" fromLane="0" keepClear="true" to="4130" toLane="0"/>
	<connection contPos="-4.0" from="4216" fromLane="0" keepClear="true" to="4124" toLane="0"/>
	<connection contPos="-4.0" from="4217" fromLane="0" keepClear="true" to="4134" toLane="0"/>
	<connection contPos="-4.0" from="4218" fromLane="0" keepClear="true" to="4133" toLane="0"/>
	<connection contPos="-4.0" from="4219" fromLane="0" keepClear="true" to="4110" toLane="0"/>
	<connection contPos="-4.0" from="4220" fromLane="0" keepClear="true" to="4138" toLane="0"/>
	<connection contPos="-4.0" from="4221" fromLane="0" keepClear="true" to="4148" toLane="0"/>
	<connection contPos="-4.0" from="4222" fromLane="0" keepClear="true" to="4147" toLane="0"/>
	<connection contPos="-4.0" from="4223" fromLane="0" keepClear="true" to="4140" toLane="0"/>
	<connection contPos="-4.0" from="4224" fromLane="0" keepClear="true" to="4144" toLane="0"/>
	<connection contPos="-4.0" from="4225" fromLane="0" keepClear="true" to="4116" toLane="0"/>
	<connection contPos="-4.0" from="4178" fromLane="1" keepClear="true" to="4120" toLane="1"/>
	<connection contPos="-4.0" from="4227" fromLane="0" keepClear="true" to="4172" toLane="0"/>
	<connection contPos="-4.0" from="4228" fromLane="0" keepClear="true" to="4150" toLane="0"/>
	<connection contPos="-4.0" from="4229" fromLane="0" keepClear="true" to="4176" toLane="1"/>
	<connection contPos="-4.0" from="4231" fromLane="1" keepClear="true" to="4155" toLane="1"/>
	<connection contPos="-4.0" from="4231" fromLane="0" keepClear="true" to="4155" toLane="0"/>
	<connection contPos="-4.0" from="4232" fromLane="0" keepClear="true" to="4110" toLane="0"/>
	<connection contPos="-4.0" from="4233" fromLane="0" keepClear="true" to="4111" toLane="1"/>
	<connection contPos="-4.0" from="4234" fromLane="0" keepClear="true" to="4117" toLane="0"/>
	<connection contPos="-4.0" from="4235" fromLane="0" keepClear="true" to="4134" toLane="0"/>
	<connection contPos="-4.0" from="4206" fromLane="1" keepClear="true" to="4162" toLane="1"/>
	<connection contPos="-4.0" from="4237" fromLane="0" keepClear="true" to="4149" toLane="0"/>
	<connection contPos="-4.0" from="4238" fromLane="0" keepClear="true" to="4127" toLane="0"/>
	<connection contPos="-4.0" from="4239" fromLane="0" keepClear="true" to="4166" toLane="0"/>
	<connection contPos="-4.0" from="4240" fromLane="0" keepClear="true" to="4133" toLane="0"/>
	<connection contPos="-4.0" from="4241" fromLane="0" keepClear="true" to="4158" toLane="0"/>
	<connection contPos="-4.0" from="4242" fromLane="0" keepClear="true" to="4120" toLane="0"/>
	<connection contPos="-4.0" from="4243" fromLane="0" keepClear="true" to="4145" toLane="0"/>
	<connection contPos="-4.0" from="4244" fromLane="0" keepClear="true" to="4117" toLane="0"/>
	<connection contPos="-4.0" from="4245" fromLane="0" keepClear="true" to="4146" toLane="0"/>
	<connection contPos="-4.0" from="4246" fromLane="0" keepClear="true" to="4168" toLane="0"/>
	<connection contPos="-4.0" from="4247" fromLane="0" keepClear="true" to="4124" toLane="0"/>
	<connection contPos="-4.0" from="4248" fromLane="0" keepClear="true" to="4122" toLane="0"/>
	<connection contPos="-4.0" from="4234" fromLane="1" keepClear="true" to="4117" toLane="1"/>
	<connection contPos="-4.0" from="4250" fromLane="0" keepClear="true" to="4137" toLane="0"/>
	<connection contPos="-4.0" from="4251" fromLane="0" keepClear="true" to="4151" toLane="0"/>
	<connection contPos="-4.0" from="4202" fromLane="1" keepClear="true" to="4111" toLane="1"/>
	<connection contPos="-4.0" from="4253" fromLane="0" keepClear="true" to="4152" toLane="0"/>
	<connection contPos="-4.0" from="4254" fromLane="0" keepClear="true" to="4143" toLane="0"/>
	<connection contPos="-4.0" from="4255" fromLane="0" keepClear="true" to="4122" toLane="0"/>
	<connection contPos="-4.0" from="4256" fromLane="0" keepClear="true" to="4169" toLane="0"/>
	<connection contPos="-4.0" from="4238" fromLane="1" keepClear="true" to="4127" toLane="1"/>
	<connection contPos="-4.0" from="4258" fromLane="0" keepClear="true" to="4121" toLane="0"/>
	<connection contPos="-4.0" from="4259" fromLane="0" keepClear="true" to="4161" toLane="0"/>
	<connection contPos="-4.0" from="4260" fromLane="0" keepClear="true" to="4124" toLane="0"/>
</connections>
