<routes>
	<vehicle depart="0.1" departLane="1" departPos="0" departSpeed="10.6354" id="30" type="passenger">
		<route edges="4143 4183 4229 4176"/>
	</vehicle>
	<vehicle depart="0.1" departLane="0" departPos="77.91671069085596" departSpeed="12.9618" id="31" type="passenger">
		<route edges="4124 4227 4248 4227 4248 4255 4248 4255 4122 4218 4133"/>
	</vehicle>
	<vehicle depart="0.1" departLane="0" departPos="0" departSpeed="0.0" id="32" type="passenger">
		<route edges="4171 4221 4148 4239 4166"/>
	</vehicle>
	<vehicle depart="0.1" departLane="0" departPos="158.98347725912487" departSpeed="3.2722" id="33" type="passenger">
		<route edges="4115 4233 4111"/>
	</vehicle>
	<vehicle depart="0.1" departLane="0" departPos="64.70860741505037" departSpeed="4.5736" id="34" type="passenger">
		<route edges="4140 4247 4124 4248 4122 4232 4110"/>
	</vehicle>
	<vehicle depart="0.1" departLane="0" departPos="117.01456839172101" departSpeed="28.9742" id="35" type="passenger">
		<route edges="4176"/>
	</vehicle>
	<vehicle depart="0.1" departLane="0" departPos="0" departSpeed="2.7784" id="36" type="passenger">
		<route edges="4132 4219 4110"/>
	</vehicle>
	<vehicle depart="0.1" departLane="0" departPos="148.41775462880375" departSpeed="15.5731" id="37" type="passenger">
		<route edges="4166 4216 4124"/>
	</vehicle>
	<vehicle depart="0.1" departLane="0" departPos="59.456552671121564" departSpeed="0.0" id="38" type="passenger">
		<route edges="4131 4207 4126 4222 4147 4251 4151 4256 4169 4255 4122 4232 4110"/>
	</vehicle>
	<vehicle depart="0.1" departLane="0" departPos="103.88706959911164" departSpeed="12.8223" id="39" type="passenger">
		<route edges="4144 4208 4165 4231 4155 4259 4161 4215 4130 4260 4124"/>
	</vehicle>
	<vehicle depart="0.1" departLane="0" departPos="209.65344890754122" departSpeed="8.4038" id="310" type="passenger">
		<route edges="4166 4216 4124"/>
	</vehicle>
	<vehicle depart="0.1" departLane="0" departPos="187.21831835855608" departSpeed="0.0" id="311" type="passenger">
		<route edges="4115 4233 4111"/>
	</vehicle>
	<vehicle depart="0.1" departLane="0" departPos="51.955311870787625" departSpeed="0.0001" id="312" type="passenger">
		<route edges="4131 4207 4126 4222 4147 4251 4151 4256 4169 4255 4122 4232 4110"/>
	</vehicle>
	<vehicle depart="0.1" departLane="0" departPos="233.71445990999283" departSpeed="0.0" id="313" type="passenger">
		<route edges="4123 4186 4124"/>
	</vehicle>
	<vehicle depart="0.1" departLane="0" departPos="79.76448545072904" departSpeed="13.7461" id="314" type="passenger">
		<route edges="4144 4208 4165 4231 4155 4259 4161 4215 4130 4260 4124"/>
	</vehicle>
	<vehicle depart="0.1" departLane="0" departPos="179.571246893603" departSpeed="0.2201" id="315" type="passenger">
		<route edges="4115 4233 4111"/>
	</vehicle>
	<vehicle depart="0.1" departLane="0" departPos="44.45312683722985" departSpeed="0.0011" id="316" type="passenger">
		<route edges="4131 4207 4126 4222 4147 4251 4151 4256 4169 4255 4122 4232 4110"/>
	</vehicle>
	<vehicle depart="0.1" departLane="0" departPos="217.0506650588396" departSpeed="5.9609" id="317" type="passenger">
		<route edges="4123 4186 4124"/>
	</vehicle>
	<vehicle depart="0.1" departLane="1" departPos="0" departSpeed="6.059" id="318" type="passenger">
		<route edges="4215 4130 4260 4124"/>
	</vehicle>
	<vehicle depart="0.1" departLane="0" departPos="175.62278350491349" departSpeed="13.9741" id="319" type="passenger">
		<route edges="4166 4216 4124"/>
	</vehicle>
	<vehicle depart="0.1" departLane="0" departPos="99.58906849127966" departSpeed="1.0585" id="320" type="passenger">
		<route edges="4135 4193 4140 4247 4124"/>
	</vehicle>
	<vehicle depart="0.1" departLane="0" departPos="199.36871592979105" departSpeed="7.7098" id="321" type="passenger">
		<route edges="4123 4186 4124"/>
	</vehicle>
	<vehicle depart="0.1" departLane="0" departPos="45.38112508980397" departSpeed="0.0" id="322" type="passenger">
		<route edges="4171 4221 4148 4239 4166"/>
	</vehicle>
	<vehicle depart="0.1" departLane="0" departPos="53.04829294058026" departSpeed="31.3942" id="323" type="passenger">
		<route edges="4176"/>
	</vehicle>
	<vehicle depart="0.1" departLane="0" departPos="164.43539059596608" departSpeed="0.9416" id="324" type="passenger">
		<route edges="4173 4217 4134"/>
	</vehicle>
	<vehicle depart="0.1" departLane="0" departPos="151.88738013167972" departSpeed="1.0727" id="325" type="passenger">
		<route edges="4173 4217 4223 4193 4140 4140 4238 4238 4238 4241 4158 4253 4152 4206 4162 4234 4117 4202 4111"/>
	</vehicle>
	<vehicle depart="0.1" departLane="0" departPos="70.97273593740411" departSpeed="0.0" id="326" type="passenger">
		<route edges="4131 4207 4126 4222 4147 4251 4151 4256 4169 4255 4122 4232 4110"/>
	</vehicle>
	<vehicle depart="0.1" departLane="0" departPos="180.98733924962946" departSpeed="8.9435" id="327" type="passenger">
		<route edges="4123 4186 4124"/>
	</vehicle>
	<vehicle depart="0.1" departLane="0" departPos="0" departSpeed="0.0" id="328" type="passenger">
		<route edges="4171 4221 4148 4239 4166"/>
	</vehicle>
	<vehicle depart="0.1" departLane="0" departPos="0" departSpeed="0.0001" id="329" type="passenger">
		<route edges="4171 4221 4148 4239 4166"/>
	</vehicle>
	<vehicle depart="0.1" departLane="0" departPos="0" departSpeed="0.0031" id="330" type="passenger">
		<route edges="4171 4221 4148 4239 4166"/>
	</vehicle>
	<vehicle depart="0.1" departLane="0" departPos="81.15657718822081" departSpeed="4.1765" id="331" type="passenger">
		<route edges="4140 4247 4124 4248 4122 4232 4110"/>
	</vehicle>
	<vehicle depart="0.1" departLane="0" departPos="0" departSpeed="0.0007" id="332" type="passenger">
		<route edges="4171 4221 4148 4239 4166"/>
	</vehicle>
	<vehicle depart="0.1" departLane="0" departPos="47.75014404514306" departSpeed="2.8271" id="333" type="passenger">
		<route edges="4148 4239 4166"/>
	</vehicle>
	<vehicle depart="0.1" departLane="1" departPos="153.58432573050334" departSpeed="3.368" id="335" type="passenger">
		<route edges="4173 4223 4140 4238 4241 4253 4152 4206 4162 4234 4117 4202 4111"/>
	</vehicle>
	<vehicle depart="0.1" departLane="0" departPos="170.57524573152182" departSpeed="1.4162" id="336" type="passenger">
		<route edges="4115 4233 4111"/>
	</vehicle>
	<vehicle depart="0.1" departLane="0" departPos="142.5353972074964" departSpeed="1.6586" id="337" type="passenger">
		<route edges="4173 4173 4223 4140 4238 4127 4241 4158 4253 4152 4206 4162 4234 4117 4202 4111"/>
	</vehicle>
	<vehicle depart="0.1" departLane="0" departPos="0" departSpeed="2.7705" id="338" type="passenger">
		<route edges="4132 4219 4110"/>
	</vehicle>
	<vehicle depart="0.1" departLane="0" departPos="17.010947942635067" departSpeed="7.4598" id="339" type="passenger">
		<route edges="4223 4140 4238 4241 4253 4253 4206 4234 4117 4225 4116"/>
	</vehicle>
	<vehicle depart="0.1" departLane="0" departPos="18.76909330981424" departSpeed="9.7985" id="340" type="passenger">
		<route edges="4120 4214 4211 4145"/>
	</vehicle>
	<vehicle depart="0.1" departLane="0" departPos="0" departSpeed="9.5644" id="341" type="passenger">
		<route edges="4145"/>
	</vehicle>
	<vehicle depart="0.1" departLane="0" departPos="136.61576712296952" departSpeed="11.7742" id="342" type="passenger">
		<route edges="4144 4208 4165 4231 4155 4259 4161 4215 4130 4260 4124"/>
	</vehicle>
	<vehicle depart="0.1" departLane="1" departPos="132.20390342955196" departSpeed="2.7548" id="343" type="passenger">
		<route edges="4173 4223 4140 4238 4127 4241 4158 4253 4152 4206 4162 4234 4117 4202 4111"/>
	</vehicle>
	<vehicle depart="0.1" departLane="0" departPos="87.00729006409058" departSpeed="2.2323" id="344" type="passenger">
		<route edges="4135 4193 4140 4247 4124"/>
	</vehicle>
	<vehicle depart="0.1" departLane="1" departPos="0" departSpeed="16.2737" id="345" type="passenger">
		<route edges="4120 4214 4231 4155 4259 4161 4215 4130 4260 4124"/>
	</vehicle>
	<vehicle depart="0.1" departLane="0" departPos="162.15238369217926" departSpeed="9.8873" id="346" type="passenger">
		<route edges="4123 4186 4124"/>
	</vehicle>
	<vehicle depart="0.1" departLane="0" departPos="36.94538788630478" departSpeed="0.0071" id="347" type="passenger">
		<route edges="4131 4207 4126 4222 4147 4251 4151 4256 4169 4255 4122 4232 4110"/>
	</vehicle>
	<vehicle depart="0.1" departLane="0" departPos="46.20671963102177" departSpeed="13.8469" id="348" type="passenger">
		<route edges="4144 4208 4165 4231 4155 4259 4161 4215 4130 4260 4124"/>
	</vehicle>
	<vehicle depart="0.1" departLane="0" departPos="93.6799684103688" departSpeed="12.1596" id="349" type="passenger">
		<route edges="4166 4216 4124"/>
	</vehicle>
	<vehicle depart="0.1" departLane="0" departPos="144.68179240501303" departSpeed="5.1523" id="350" type="passenger">
		<route edges="4115 4233 4111"/>
	</vehicle>
	<vehicle depart="0.1" departLane="1" departPos="120.0318845547801" departSpeed="3.9458" id="351" type="passenger">
		<route edges="4173 4223 4140 4238 4127 4241 4158 4253 4152 4206 4162 4234 4117 4202 4111"/>
	</vehicle>
	<vehicle depart="0.1" departLane="1" departPos="227.16318920968246" departSpeed="19.2786" id="352" type="passenger">
		<route edges="4114 4178 4120 4214 4165 4231 4155 4259 4161 4215 4130 4260 4124"/>
	</vehicle>
	<vehicle depart="0.1" departLane="0" departPos="77.23881946770975" departSpeed="2.2826" id="353" type="passenger">
		<route edges="4135 4193 4140 4247 4124"/>
	</vehicle>
	<vehicle depart="0.1" departLane="0" departPos="142.99958868233222" departSpeed="10.4965" id="354" type="passenger">
		<route edges="4123 4186 4124"/>
	</vehicle>
	<vehicle depart="0.1" departLane="0" departPos="0" departSpeed="2.5674" id="355" type="passenger">
		<route edges="4132 4219 4110"/>
	</vehicle>
	<vehicle depart="0.1" departLane="0" departPos="0" departSpeed="0.031" id="356" type="passenger">
		<route edges="4131 4207 4126 4222 4147 4251 4151 4256 4169 4255 4122 4232 4110"/>
	</vehicle>
	<vehicle depart="0.1" departLane="0" departPos="0" departSpeed="10.7063" id="357" type="passenger">
		<route edges="4144 4208 4165 4231 4155 4259 4161 4215 4130 4260 4124"/>
	</vehicle>
	<vehicle depart="0.1" departLane="0" departPos="127.64791419729809" departSpeed="7.0842" id="358" type="passenger">
		<route edges="4115 4233 4111"/>
	</vehicle>
	<vehicle depart="0.1" departLane="1" departPos="106.48350203857402" departSpeed="5.1062" id="359" type="passenger">
		<route edges="4173 4223 4140 4238 4127 4241 4158 4253 4152 4206 4162 4234 4117 4202 4111"/>
	</vehicle>
	<vehicle depart="0.1" departLane="0" departPos="73.56336202827598" departSpeed="12.1454" id="360" type="passenger">
		<route edges="4166 4216 4124"/>
	</vehicle>
	<vehicle depart="0.1" departLane="0" departPos="67.44409956580216" departSpeed="2.1853" id="362" type="passenger">
		<route edges="4135 4193 4140 4247 4124"/>
	</vehicle>
	<vehicle depart="0.1" departLane="0" departPos="123.69686016504994" departSpeed="10.8172" id="363" type="passenger">
		<route edges="4123 4186 4124"/>
	</vehicle>
	<vehicle depart="0.1" departLane="0" departPos="0" departSpeed="0.1025" id="364" type="passenger">
		<route edges="4131 4207 4126 4222 4147 4251 4151 4256 4169 4255 4122 4232 4110"/>
	</vehicle>
	<vehicle depart="0.1" departLane="1" departPos="91.79428190911574" departSpeed="6.0485" id="365" type="passenger">
		<route edges="4173 4223 4140 4238 4127 4241 4158 4253 4152 4206 4162 4234 4117 4202 4111"/>
	</vehicle>
	<vehicle depart="0.1" departLane="0" departPos="109.5096555739975" departSpeed="8.5066" id="366" type="passenger">
		<route edges="4115 4233 4111"/>
	</vehicle>
	<vehicle depart="0.1" departLane="0" departPos="53.31606440041409" departSpeed="12.279" id="367" type="passenger">
		<route edges="4166 4216 4124"/>
	</vehicle>
	<vehicle depart="0.1" departLane="0" departPos="6.608717072820098" departSpeed="4.9774" id="368" type="passenger">
		<route edges="4224 4144 4208 4165 4231 4155 4259 4161 4215 4130 4260 4124"/>
	</vehicle>
	<vehicle depart="0.1" departLane="1" departPos="136.4044914523052" departSpeed="22.9542" id="369" type="passenger">
		<route edges="4114 4114 4177 4116"/>
	</vehicle>
	<vehicle depart="0.1" departLane="0" departPos="57.202877459239666" departSpeed="2.5623" id="370" type="passenger">
		<route edges="4135 4193 4140 4247 4124"/>
	</vehicle>
	<vehicle depart="0.1" departLane="0" departPos="99.08061186417687" departSpeed="12.6675" id="371" type="passenger">
		<route edges="4123 4186 4124"/>
	</vehicle>
	<vehicle depart="0.1" departLane="0" departPos="0" departSpeed="2.4188" id="372" type="passenger">
		<route edges="4132 4219 4110"/>
	</vehicle>
	<vehicle depart="0.1" departLane="1" departPos="75.4175163395293" departSpeed="7.2235" id="373" type="passenger">
		<route edges="4173 4173 4217 4223 4140 4247 4124"/>
	</vehicle>
	<vehicle depart="0.1" departLane="0" departPos="0" departSpeed="10.1755" id="374" type="passenger">
		<route edges="4115 4233 4111"/>
	</vehicle>
	<vehicle depart="0.1" departLane="0" departPos="29.949200180332326" departSpeed="11.7737" id="375" type="passenger">
		<route edges="4166 4216 4124"/>
	</vehicle>
	<vehicle depart="0.1" departLane="0" departPos="0" departSpeed="3.0437" id="376" type="passenger">
		<route edges="4135 4193 4140 4247 4124"/>
	</vehicle>
	<vehicle depart="0.1" departLane="0" departPos="100.99097804038469" departSpeed="19.2109" id="377" type="passenger">
		<route edges="4114 4177 4116"/>
	</vehicle>
	<vehicle depart="0.1" departLane="0" departPos="46.68147353013766" departSpeed="5.1442" id="378" type="passenger">
		<route edges="4139 4198 4224 4144 4208 4165 4231 4155 4259 4161 4215 4130 4260 4124"/>
	</vehicle>
	<vehicle depart="0.1" departLane="0" departPos="0" departSpeed="0.2644" id="379" type="passenger">
		<route edges="4131 4207 4126 4222 4147 4251 4151 4256 4169 4255 4122 4232 4110"/>
	</vehicle>
	<vehicle depart="0.1" departLane="0" departPos="118.16099905205127" departSpeed="9.0413" id="380" type="passenger">
		<route edges="4173 4217 4134"/>
	</vehicle>
	<vehicle depart="0.1" departLane="0" departPos="74.39483672359697" departSpeed="13.7612" id="381" type="passenger">
		<route edges="4123 4186 4124"/>
	</vehicle>
	<vehicle depart="0.1" departLane="0" departPos="0" departSpeed="11.7674" id="382" type="passenger">
		<route edges="4166 4216 4124"/>
	</vehicle>
	<vehicle depart="0.1" departLane="0" departPos="46.542369779559515" departSpeed="6.6886" id="383" type="passenger">
		<route edges="4173 4173 4223 4140 4238 4127 4241 4158 4253 4152 4206 4162 4234"/>
	</vehicle>
	<vehicle depart="0.1" departLane="1" departPos="59.32226894659698" departSpeed="7.716" id="384" type="passenger">
		<route edges="4173 4223 4140 4238 4127 4241 4158 4253 4152 4206 4162 4234 4117"/>
	</vehicle>
	<vehicle depart="0.1" departLane="0" departPos="0" departSpeed="11.0061" id="385" type="passenger">
		<route edges="4115 4233 4111"/>
	</vehicle>
	<vehicle depart="0.1" departLane="1" departPos="0" departSpeed="16.3907" id="386" type="passenger">
		<route edges="4114 4178 4120 4214 4165 4231 4155 4259 4161 4215 4130 4260 4124"/>
	</vehicle>
	<vehicle depart="0.1" departLane="0" departPos="0" departSpeed="3.6335" id="387" type="passenger">
		<route edges="4135 4193 4140 4247 4124"/>
	</vehicle>
	<vehicle depart="0.1" departLane="0" departPos="33.88652470616241" departSpeed="5.0646" id="388" type="passenger">
		<route edges="4139 4198 4224 4144 4208 4165 4231 4155 4259 4161 4215 4130 4260 4124"/>
	</vehicle>
	<vehicle depart="0.1" departLane="0" departPos="50.36457969227777" departSpeed="12.1332" id="389" type="passenger">
		<route edges="4123 4186 4124"/>
	</vehicle>
	<vehicle depart="0.1" departLane="0" departPos="44.96235336829019" departSpeed="12.2943" id="390" type="passenger">
		<route edges="4136 4213 4209 4166 4216 4124"/>
	</vehicle>
	<vehicle depart="0.1" departLane="0" departPos="0" departSpeed="11.4082" id="391" type="passenger">
		<route edges="4115 4233 4111"/>
	</vehicle>
	<vehicle depart="0.1" departLane="0" departPos="32.72909543305137" departSpeed="6.4704" id="392" type="passenger">
		<route edges="4173 4223 4140 4247 4124"/>
	</vehicle>
	<vehicle depart="0.1" departLane="0" departPos="0" departSpeed="2.3711" id="393" type="passenger">
		<route edges="4132 4219 4110"/>
	</vehicle>
	<vehicle depart="0.1" departLane="1" departPos="0" departSpeed="13.3474" id="394" type="passenger">
		<route edges="4114 4114 4178 4120 4214 4165 4231 4155 4259 4161 4215 4130 4197 4167"/>
	</vehicle>
	<vehicle depart="0.1" departLane="0" departPos="0" departSpeed="3.8159" id="395" type="passenger">
		<route edges="4135 4193 4140 4247 4124"/>
	</vehicle>
	<vehicle depart="0.1" departLane="0" departPos="0" departSpeed="4.933" id="396" type="passenger">
		<route edges="4139 4198 4224 4144 4208 4165 4231 4155 4259 4161 4215 4130 4260 4124"/>
	</vehicle>
	<vehicle depart="0.1" departLane="0" departPos="0" departSpeed="0.5148" id="397" type="passenger">
		<route edges="4131 4207 4126 4222 4147 4251 4151 4256 4169 4255 4122 4232 4110"/>
	</vehicle>
	<vehicle depart="0.1" departLane="0" departPos="31.117262143597422" departSpeed="10.7937" id="398" type="passenger">
		<route edges="4123 4186 4124"/>
	</vehicle>
	<vehicle depart="0.1" departLane="0" departPos="0" departSpeed="10.5018" id="399" type="passenger">
		<route edges="4115 4233 4111"/>
	</vehicle>
	<vehicle depart="0.1" departLane="1" departPos="0" departSpeed="10.0051" id="3100" type="passenger">
		<route edges="4114 4178 4120 4214 4165 4231 4155 4259 4161 4215 4130 4260 4124"/>
	</vehicle>
	<vehicle depart="0.1" departLane="0" departPos="19.949114869761264" departSpeed="5.9424" id="3101" type="passenger">
		<route edges="4173 4223 4140 4247 4124"/>
	</vehicle>
	<vehicle depart="0.1" departLane="0" departPos="23.304314905584164" departSpeed="9.2907" id="3102" type="passenger">
		<route edges="4136 4209 4166 4216 4124"/>
	</vehicle>
	<vehicle depart="0.1" departLane="0" departPos="0" departSpeed="3.6716" id="3103" type="passenger">
		<route edges="4135 4193 4140 4247 4124"/>
	</vehicle>
	<vehicle depart="0.1" departLane="0" departPos="0" departSpeed="6.1693" id="3104" type="passenger">
		<route edges="4123 4186 4124"/>
	</vehicle>
	<vehicle depart="0.1" departLane="0" departPos="0" departSpeed="4.6008" id="3105" type="passenger">
		<route edges="4139 4198 4224 4144 4208 4165 4231 4155 4259 4161 4215 4130 4260 4124"/>
	</vehicle>
	<vehicle depart="0.1" departLane="0" departPos="0" departSpeed="7.0427" id="3106" type="passenger">
		<route edges="4115 4233 4111"/>
	</vehicle>
	<vehicle depart="0.1" departLane="1" departPos="0" departSpeed="6.5017" id="3107" type="passenger">
		<route edges="4114 4178 4120 4214 4165 4231 4155 4259 4161 4215 4130 4260 4124"/>
	</vehicle>
	<vehicle depart="0.1" departLane="0" departPos="0" departSpeed="4.6045" id="3108" type="passenger">
		<route edges="4173 4173 4223 4140 4238 4127 4241 4158 4253 4152 4206 4162 4234"/>
	</vehicle>
	<vehicle depart="0.1" departLane="0" departPos="0" departSpeed="4.8669" id="3109" type="passenger">
		<route edges="4136 4209 4166 4216 4124"/>
	</vehicle>
	<vehicle depart="0.1" departLane="0" departPos="0" departSpeed="1.6785" id="3110" type="passenger">
		<route edges="4132 4219 4110"/>
	</vehicle>
	<vehicle depart="0.1" departLane="0" departPos="0" departSpeed="3.679" id="3111" type="passenger">
		<route edges="4115 4233 4111"/>
	</vehicle>
	<vehicle depart="0.1" departLane="0" departPos="0" departSpeed="1.9089" id="3112" type="passenger">
		<route edges="4135 4193 4140 4247 4124"/>
	</vehicle>
	<vehicle depart="0.1" departLane="0" departPos="0" departSpeed="2.9561" id="3113" type="passenger">
		<route edges="4123 4186 4124"/>
	</vehicle>
	<vehicle depart="0.1" departLane="1" departPos="0" departSpeed="3.2973" id="3114" type="passenger">
		<route edges="4114 4114 4177 4116"/>
	</vehicle>
</routes>
