<!-- generated on 2020-12-18 16:18:37.025076 by ipykernel_launcher.py v1_2_0+5214-53edc58fcd
-->
<edges>
	<edge from="1" function="normal" id="4109" length="6.486656886291179" numLanes="1" priority="1" speed="36.11111111111111" spreadType="center" to="2">
		<lane allow="moped bicycle pedestrian custom1 trailer evehicle rail_urban ship private truck vip custom2 authority delivery rail_electric taxi tram army hov coach motorcycle passenger bus rail emergency" index="0" length="6.486656886291179" shape="-24.3047,191.21795 -27.53285,190.8046 -30.73875,190.39350000000002" speed="36.11111111111111" width="2.4999081763136988"/>
	</edge>
	<edge from="3" function="normal" id="4110" length="6.513297848634982" numLanes="1" priority="1" speed="36.11111111111111" spreadType="center" to="4">
		<lane allow="moped bicycle pedestrian custom1 trailer evehicle rail_urban ship private truck vip custom2 authority delivery rail_electric taxi tram army hov coach motorcycle passenger bus rail emergency" index="0" length="6.513297848634982" shape="-30.447699999999998,187.91095 -27.2153,188.32485 -23.98715,188.7382" speed="36.11111111111111" width="2.4993205976824884"/>
	</edge>
	<edge from="5" function="normal" id="4111" length="227.4034061297591" numLanes="2" priority="1" speed="36.11111111111111" spreadType="center" to="6">
		<lane allow="moped bicycle pedestrian custom1 trailer evehicle rail_urban ship private vip custom2 authority delivery rail_electric taxi tram army hov coach motorcycle passenger rail emergency" index="0" length="227.4034061297591" shape="-124.8267,-13.04925 -142.2363,-27.48355 -149.7627,-34.143100000000004 -155.92645,-40.057100000000005 -160.10245,-44.4065 -163.33215,-48.2551 -169.02904999999998,-55.9163 -172.71859999999998,-60.685 -179.0465,-67.83395 -191.3136,-81.12955 -205.24450000000002,-95.6192 -221.56900000000002,-111.9847 -265.85405000000003,-155.10309999999998 -285.11805000000004,-174.2142" speed="36.11111111111111" width="2.4999273689449515"/>
		<lane allow="moped bicycle pedestrian custom1 trailer evehicle rail_urban ship private vip custom2 authority delivery rail_electric taxi tram army hov coach motorcycle passenger rail emergency" index="1" length="227.4034061297591" shape="-123.23015000000001,-14.972999999999999 -140.5994,-29.3729 -148.0839,-35.9953 -154.20544999999998,-41.8714 -158.31740000000002,-46.159400000000005 -161.4914,-49.95845 -167.19625000000002,-57.641949999999994 -170.94575,-62.46215 -177.29235,-69.6215 -189.57240000000002,-82.9271 -203.51325,-97.42439999999999 -219.8428,-113.79355000000001 -264.09645,-156.881 -283.35040000000004,-175.98205000000002" speed="36.11111111111111" width="2.4999393592645394"/>
	</edge>
	<edge from="7" function="normal" id="4114" length="226.92069641705578" numLanes="2" priority="1" speed="36.11111111111111" spreadType="center" to="8">
		<lane allow="moped bicycle pedestrian custom1 trailer evehicle rail_urban ship private vip custom2 authority delivery rail_electric taxi tram army hov coach motorcycle passenger rail emergency" index="0" length="226.92069641705578" shape="-279.8012,-179.50385 -260.59585,-160.4511 -216.41315,-117.43375 -200.1125,-101.09774999999999 -186.1947,-86.63329999999999 -173.93545,-73.36410000000001 -167.55419999999998,-66.1983 -163.79694999999998,-61.450199999999995 -158.1748,-53.8398 -155.06585,-50.028400000000005 -150.96715,-45.70575 -144.8684,-39.83155 -137.39589999999998,-33.2124 -120.0371,-18.8205" speed="36.11111111111111" width="2.4992783678494104"/>
		<lane allow="moped bicycle pedestrian custom1 trailer evehicle rail_urban ship private vip custom2 authority delivery rail_electric taxi tram army hov coach motorcycle passenger rail emergency" index="1" length="226.92069641705578" shape="-281.57579999999996,-177.74295 -262.34614999999997,-158.66604999999998 -218.12795,-115.61365 -201.81285,-99.26105 -187.8835,-84.78020000000001 -175.6137,-71.49265 -169.24869999999999,-64.33005 -165.49695,-59.547799999999995 -159.83479999999997,-51.89935 -156.69185,-48.0927 -152.58605,-43.78815 -146.47605,-37.91330000000001 -138.99759999999998,-31.2926 -121.63265,-16.8962" speed="36.11111111111111" width="2.4999488034757853"/>
	</edge>
	<edge from="9" function="normal" id="4115" length="189.88620617717348" numLanes="1" priority="1" speed="36.11111111111111" spreadType="center" to="10">
		<lane allow="moped bicycle pedestrian custom1 trailer evehicle rail_urban ship private vip custom2 authority delivery rail_electric taxi tram army hov coach motorcycle passenger rail emergency" index="0" length="189.88620617717348" shape="-100.9499,-207.5902 -107.05655,-25.86485 -107.47155000000001,-22.87345 -108.7793,-18.0079" speed="36.11111111111111" width="2.4975683614267634"/>
	</edge>
	<edge from="11" function="normal" id="4116" length="189.31656885801536" numLanes="1" priority="1" speed="36.11111111111111" spreadType="center" to="12">
		<lane allow="moped bicycle pedestrian custom1 trailer evehicle rail_urban ship private vip custom2 authority delivery rail_electric taxi tram army hov coach motorcycle passenger rail emergency" index="0" length="189.31656885801536" shape="-111.1931,-18.6545 -109.90690000000001,-23.42765 -109.53075000000001,-26.28315 -103.4485,-207.67419999999998" speed="36.11111111111111" width="2.4990448275290977"/>
	</edge>
	<edge from="13" function="normal" id="4117" length="26.366591125891258" numLanes="2" priority="1" speed="36.11111111111111" spreadType="center" to="14">
		<lane allow="moped bicycle pedestrian custom1 trailer evehicle rail_urban ship private vip custom2 authority delivery rail_electric taxi tram army hov coach motorcycle passenger rail emergency" index="0" length="26.366591125891258" shape="-90.23295,15.70185 -96.62115,10.65145 -110.7017,-1.1015000000000001" speed="36.11111111111111" width="2.499686080290885"/>
		<lane allow="moped bicycle pedestrian custom1 trailer evehicle rail_urban ship private vip custom2 authority delivery rail_electric taxi tram army hov coach motorcycle passenger rail emergency" index="1" length="26.366591125891258" shape="-88.70675,13.72185 -95.0476,8.70895 -109.08415,-3.007" speed="36.11111111111111" width="2.498250437806427"/>
	</edge>
	<edge from="15" function="normal" id="4120" length="26.090603521652056" numLanes="2" priority="1" speed="36.11111111111111" spreadType="center" to="16">
		<lane allow="moped bicycle pedestrian custom1 trailer evehicle rail_urban ship private vip custom2 authority delivery rail_electric taxi tram army hov coach motorcycle passenger rail emergency" index="0" length="26.090603521652056" shape="-105.8539,-6.8231 -91.98295,4.75665 -85.6919,9.73325" speed="36.11111111111111" width="2.4986891043105"/>
		<lane allow="moped bicycle pedestrian custom1 trailer evehicle rail_urban ship private vip custom2 authority delivery rail_electric taxi tram army hov coach motorcycle passenger rail emergency" index="1" length="26.090603521652056" shape="-107.47085,-4.9165 -93.51525000000001,6.732799999999999 -87.18885,11.73515" speed="36.11111111111111" width="2.5002768526705155"/>
	</edge>
	<edge from="17" function="normal" id="4121" length="73.78404439419806" numLanes="1" priority="1" speed="36.11111111111111" spreadType="center" to="18">
		<lane allow="moped bicycle pedestrian custom1 trailer evehicle rail_urban ship private vip custom2 authority delivery rail_electric taxi tram army hov coach motorcycle passenger rail emergency" index="0" length="73.78404439419806" shape="-45.4675,188.71195 -57.1766,187.53570000000002 -70.9156,185.86705 -86.12155,183.575 -97.2046,181.4934 -102.70235,180.2455 -106.6197,179.03625 -109.9349,177.667 -113.11195000000001,176.00175 -116.95345,173.4527" speed="36.11111111111111" width="2.4999347991497687"/>
	</edge>
	<edge from="19" function="normal" id="4122" length="72.54664236105167" numLanes="1" priority="1" speed="36.11111111111111" spreadType="center" to="20">
		<lane allow="moped bicycle pedestrian custom1 trailer evehicle rail_urban ship private vip custom2 authority delivery rail_electric taxi tram army hov coach motorcycle passenger rail emergency" index="0" length="72.54664236105167" shape="-115.53895,171.39155 -111.7955,173.87795 -108.7515,175.4621 -105.56415,176.75889999999998 -101.77265,177.90585 -96.38374999999999,179.10735 -85.44024999999999,181.1541 -70.40520000000001,183.4135 -56.8155,185.06015000000002 -45.20245,186.22645" speed="36.11111111111111" width="2.4992832772616755"/>
	</edge>
	<edge from="21" function="normal" id="4123" length="240.5922497319226" numLanes="1" priority="1" speed="36.11111111111111" spreadType="center" to="22">
		<lane allow="moped bicycle pedestrian custom1 trailer evehicle rail_urban ship private vip custom2 authority delivery rail_electric taxi tram army hov coach motorcycle passenger rail emergency" index="0" length="240.5922497319226" shape="44.469849999999994,-194.35765 35.969350000000006,-182.4916 32.4327,-176.9871 29.72765,-172.15715 25.32225,-163.106 20.430300000000003,-152.061 9.8463,-126.48015000000001 4.78875,-113.32554999999999 0.25435,-100.51429999999999 -10.20285,-68.9824 -23.5783,-31.00105 -27.6859,-19.64095 -35.89615,2.00825 -40.313199999999995,12.709 -44.487049999999996,21.869300000000003 -46.1691,24.963749999999997 -47.53725,27.07585" speed="36.11111111111111" width="2.497189720465785"/>
	</edge>
	<edge from="23" function="normal" id="4124" length="143.71571900056657" numLanes="1" priority="1" speed="36.11111111111111" spreadType="center" to="24">
		<lane allow="moped bicycle pedestrian custom1 trailer evehicle rail_urban ship private vip custom2 authority delivery rail_electric taxi tram army hov coach motorcycle passenger rail emergency" index="0" length="143.71571900056657" shape="-61.45195,41.74935 -71.02615,50.0201 -90.18435,65.76565 -103.0178,76.453 -113.27255,85.4833 -117.2997,89.3254 -119.99195,92.34755 -122.07515000000001,95.2112 -123.9128,98.23885000000001 -124.9933,100.5255 -125.93865,103.4089 -126.964,108.36345 -127.66695,113.88489999999999 -129.45495,133.5411 -130.0494,143.6449 -130.2111,152.75245 -130.08499999999998,156.79815000000002" speed="36.11111111111111" width="2.4847270312853267"/>
	</edge>
	<edge from="25" function="normal" id="4125" length="0.2920217694054299" numLanes="1" priority="1" speed="36.11111111111111" spreadType="center" to="26">
		<lane allow="moped bicycle pedestrian custom1 trailer evehicle rail_urban ship private vip custom2 authority delivery rail_electric taxi tram army hov coach motorcycle passenger rail emergency" index="0" length="0.2920217694054299" shape="-156.69235,163.58675 -156.8159,163.55935 -156.97645,163.5193" speed="36.11111111111111" width="2.491064039722773"/>
	</edge>
	<edge from="27" function="normal" id="4126" length="0.20202665705169626" numLanes="1" priority="1" speed="36.11111111111111" spreadType="center" to="28">
		<lane allow="moped bicycle pedestrian custom1 trailer evehicle rail_urban ship private vip custom2 authority delivery rail_electric taxi tram army hov coach motorcycle passenger rail emergency" index="0" length="0.20202665705169626" shape="-156.4085,161.09295 -156.27915000000002,161.11765000000003 -156.2111,161.13545" speed="36.11111111111111" width="2.4989850439728634"/>
	</edge>
	<edge from="29" function="normal" id="4127" length="0.29790810590970945" numLanes="2" priority="1" speed="36.11111111111111" spreadType="center" to="30">
		<lane allow="moped bicycle pedestrian custom1 trailer evehicle rail_urban ship private vip custom2 authority delivery rail_electric taxi tram army hov coach motorcycle passenger rail emergency" index="0" length="0.29790810590970945" shape="-61.0724,37.258300000000006 -61.19215,37.1841 -61.3338,37.0934" speed="36.11111111111111" width="2.5000320657943598"/>
		<lane allow="moped bicycle pedestrian custom1 trailer evehicle rail_urban ship private vip custom2 authority delivery rail_electric taxi tram army hov coach motorcycle passenger rail emergency" index="1" length="0.29790810590970945" shape="-59.752849999999995,35.1358 -59.859399999999994,35.06895 -60.0043,34.97605" speed="36.11111111111111" width="2.5000007699998794"/>
	</edge>
	<edge from="31" function="normal" id="4130" length="0.24469636323846722" numLanes="2" priority="1" speed="36.11111111111111" spreadType="center" to="32">
		<lane allow="moped bicycle pedestrian custom1 trailer evehicle rail_urban ship private vip custom2 authority delivery rail_electric taxi tram army hov coach motorcycle passenger rail emergency" index="0" length="0.24469636323846722" shape="-57.267,30.7941 -57.19385,30.8387 -57.060249999999996,30.92495" speed="36.11111111111111" width="2.5000320657943558"/>
		<lane allow="moped bicycle pedestrian custom1 trailer evehicle rail_urban ship private vip custom2 authority delivery rail_electric taxi tram army hov coach motorcycle passenger rail emergency" index="1" length="0.24469636323846722" shape="-58.634150000000005,32.88605 -58.5266,32.95385 -58.42415,33.0193" speed="36.11111111111111" width="2.498920843084068"/>
	</edge>
	<edge from="33" function="normal" id="4131" length="70.97273593740411" numLanes="1" priority="1" speed="36.11111111111111" spreadType="center" to="34">
		<lane allow="moped bicycle pedestrian custom1 trailer evehicle rail_urban ship private truck vip custom2 authority delivery rail_electric taxi tram army hov coach motorcycle passenger bus rail emergency" index="0" length="70.97273593740411" shape="-142.07330000000002,236.47825 -149.9853,201.88510000000002 -157.8973,167.29205000000002" speed="36.11111111111111" width="2.491523897136064"/>
	</edge>
	<edge from="35" function="normal" id="4132" length="184.86603274754287" numLanes="1" priority="1" speed="36.11111111111111" spreadType="center" to="36">
		<lane allow="moped bicycle pedestrian custom1 trailer evehicle rail_urban ship private truck vip custom2 authority delivery rail_electric taxi tram army hov coach motorcycle passenger bus rail emergency" index="0" length="184.86603274754287" shape="-44.28465,380.49345 -41.8902,288.08074999999997 -39.49595,195.68945000000002" speed="36.11111111111111" width="2.499379382966896"/>
	</edge>
	<edge from="37" function="normal" id="4133" length="184.86370761867553" numLanes="1" priority="1" speed="36.11111111111111" spreadType="center" to="38">
		<lane allow="moped bicycle pedestrian custom1 trailer evehicle rail_urban ship private truck vip custom2 authority delivery rail_electric taxi tram army hov coach motorcycle passenger bus rail emergency" index="0" length="184.86370761867553" shape="-36.9978,195.75650000000002 -39.39105,288.14549999999997 -41.7855,380.5582" speed="36.11111111111111" width="2.499503990794975"/>
	</edge>
	<edge from="39" function="normal" id="4134" length="99.1218802761882" numLanes="1" priority="1" speed="36.11111111111111" spreadType="center" to="40">
		<lane allow="moped bicycle pedestrian custom1 trailer evehicle rail_urban ship private vip custom2 authority delivery rail_electric taxi tram army hov coach motorcycle passenger rail emergency" index="0" length="99.1218802761882" shape="31.4683,104.4246 30.3662,111.38159999999999 29.5967,120.4054 29.049599999999998,131.4611 28.75665,147.55955 28.869300000000003,162.15064999999998 30.1473,203.39055000000002" speed="36.11111111111111" width="2.499974499869949"/>
	</edge>
	<edge from="41" function="normal" id="4135" length="99.58906849127966" numLanes="1" priority="1" speed="36.11111111111111" spreadType="center" to="42">
		<lane allow="moped bicycle pedestrian custom1 trailer evehicle rail_urban ship private vip custom2 authority delivery rail_electric taxi tram army hov coach motorcycle passenger rail emergency" index="0" length="99.58906849127966" shape="27.648249999999997,203.45870000000002 26.36805,162.1085 26.257399999999997,147.4528 26.55435,131.28125 27.10795,120.15825 27.8891,111.04715 29.001350000000002,104.02735000000001" speed="36.11111111111111" width="2.497423011826392"/>
	</edge>
	<edge from="43" function="normal" id="4136" length="44.96235336829019" numLanes="1" priority="1" speed="36.11111111111111" spreadType="center" to="44">
		<lane allow="moped bicycle pedestrian custom1 trailer evehicle rail_urban ship private vip custom2 authority delivery rail_electric taxi tram army hov coach motorcycle passenger rail emergency" index="0" length="44.96235336829019" shape="196.96545,-30.0134 191.47645,-35.941 188.2148,-39.1037 184.31955,-42.314800000000005 176.13094999999998,-48.22375 173.13395,-50.0948 169.0824,-52.150800000000004 164.41935,-54.0849 160.55329999999998,-55.35565" speed="36.11111111111111" width="2.499234388767883"/>
	</edge>
	<edge from="45" function="normal" id="4137" length="46.27087995780638" numLanes="1" priority="1" speed="36.11111111111111" spreadType="center" to="46">
		<lane allow="moped bicycle pedestrian custom1 trailer evehicle rail_urban ship private vip custom2 authority delivery rail_electric taxi tram army hov coach motorcycle passenger rail emergency" index="0" length="46.27087995780638" shape="161.2772,-57.7472 165.2602,-56.4387 170.07999999999998,-54.4428 174.2827,-52.31505 177.41475,-50.373450000000005 185.79289999999997,-44.3346 189.8174,-41.02285 193.1945,-37.76045 198.7892,-31.723300000000002" speed="36.11111111111111" width="2.4988181286360187"/>
	</edge>
	<edge from="47" function="normal" id="4138" length="52.194353639330075" numLanes="1" priority="1" speed="36.11111111111111" spreadType="center" to="48">
		<lane allow="moped bicycle pedestrian custom1 trailer evehicle rail_urban ship private vip custom2 authority delivery rail_electric taxi tram army hov coach motorcycle passenger rail emergency" index="0" length="52.194353639330075" shape="-168.34205,158.3725 -178.33155,152.34474999999998 -191.96699999999998,143.57760000000002 -212.3288,130.28535" speed="36.11111111111111" width="2.4999838239476566"/>
	</edge>
	<edge from="49" function="normal" id="4139" length="52.06923789879611" numLanes="1" priority="1" speed="36.11111111111111" spreadType="center" to="50">
		<lane allow="moped bicycle pedestrian custom1 trailer evehicle rail_urban ship private vip custom2 authority delivery rail_electric taxi tram army hov coach motorcycle passenger rail emergency" index="0" length="52.06923789879611" shape="-210.97445,128.184 -190.6352,141.46134999999998 -177.0317,150.2092 -167.0949,156.20665" speed="36.11111111111111" width="2.499488541682062"/>
	</edge>
	<edge from="51" function="normal" id="4140" length="81.04697781172278" numLanes="2" priority="1" speed="36.11111111111111" spreadType="center" to="52">
		<lane allow="moped bicycle pedestrian custom1 trailer evehicle rail_urban ship private vip custom2 authority delivery rail_electric taxi tram army hov coach motorcycle passenger rail emergency" index="0" length="81.04697781172278" shape="22.98565,92.27385 17.93045,88.93369999999999 7.5950999999999995,82.6465 -20.4161,66.64245 -30.3356,60.6417 -38.76765,55.11645 -46.142700000000005,49.845600000000005" speed="36.11111111111111" width="2.4984143531448137"/>
		<lane allow="moped bicycle pedestrian custom1 trailer evehicle rail_urban ship private vip custom2 authority delivery rail_electric taxi tram army hov coach motorcycle passenger rail emergency" index="1" length="81.04697781172278" shape="24.372799999999998,90.1937 19.27885,86.82875 8.9231,80.52735 -19.039050000000003,64.5518 -28.91415,58.5826 -37.29885,53.092600000000004 -44.66575,47.8283" speed="36.11111111111111" width="2.500713410209168"/>
	</edge>
	<edge from="53" function="normal" id="4143" length="80.74940419430166" numLanes="2" priority="1" speed="36.11111111111111" spreadType="center" to="54">
		<lane allow="moped bicycle pedestrian custom1 trailer evehicle rail_urban ship private vip custom2 authority delivery rail_electric taxi tram army hov coach motorcycle passenger rail emergency" index="0" length="80.74940419430166" shape="-41.649249999999995,43.84155 -34.373599999999996,49.035650000000004 -26.0068,54.5041 -16.14415,60.45215 11.78505,76.4101 22.11275,82.7053 27.1468,86.0346" speed="36.11111111111111" width="2.500152735334381"/>
		<lane allow="moped bicycle pedestrian custom1 trailer evehicle rail_urban ship private vip custom2 authority delivery rail_electric taxi tram army hov coach motorcycle passenger rail emergency" index="1" length="80.74940419430166" shape="-43.1705,45.8247 -35.83615,51.0642 -27.460500000000003,56.543400000000005 -17.5918,62.50195 10.354,78.46865 20.69585,84.76705000000001 25.765,88.1175" speed="36.11111111111111" width="2.499074588722799"/>
	</edge>
	<edge from="55" function="normal" id="4144" length="159.71707838376807" numLanes="1" priority="1" speed="36.11111111111111" spreadType="center" to="56">
		<lane allow="moped bicycle pedestrian custom1 trailer evehicle rail_urban ship private vip custom2 authority delivery rail_electric taxi tram army hov coach motorcycle passenger rail emergency" index="0" length="159.71707838376807" shape="-160.07774999999998,152.52685 -160.70825,140.88139999999999 -161.0014,128.20785 -160.9031,118.57419999999999 -160.52165,110.97805 -159.844,104.42155 -158.8701,98.9303 -157.87155,94.9996 -156.37705,90.6888 -154.72390000000001,86.98535000000001 -152.52645,82.987 -149.46685000000002,78.32445000000001 -145.73000000000002,73.523 -142.45010000000002,69.6567 -139.57965000000002,66.79205 -133.75535,61.90105 -123.79085,54.06455 -101.12219999999999,36.961299999999994 -92.01685,29.6736 -88.1957,26.3419 -86.4246,24.528100000000002" speed="36.11111111111111" width="2.4950822751965536"/>
	</edge>
	<edge from="57" function="normal" id="4145" length="234.84744452308132" numLanes="1" priority="1" speed="36.11111111111111" spreadType="center" to="58">
		<lane allow="moped bicycle pedestrian custom1 trailer evehicle rail_urban ship private vip custom2 authority delivery rail_electric taxi tram army hov coach motorcycle passenger rail emergency" index="0" length="234.84744452308132" shape="-76.6372,11.097249999999999 -72.67525,4.69785 -68.56954999999999,-2.7793 -63.5367,-12.60475 -59.84325,-20.8471 -52.679199999999994,-38.51885 -42.29375,-65.17035 11.1587,-206.44325" speed="36.11111111111111" width="2.4932901656245354"/>
	</edge>
	<edge from="59" function="normal" id="4146" length="0.25401598952379933" numLanes="1" priority="1" speed="36.11111111111111" spreadType="center" to="60">
		<lane allow="moped bicycle pedestrian custom1 trailer evehicle rail_urban ship private truck vip custom2 authority delivery rail_electric taxi tram army hov coach motorcycle passenger bus rail emergency" index="0" length="0.25401598952379933" shape="-149.16355,164.08795 -149.29185,164.0865 -149.41755,164.0851" speed="36.11111111111111" width="2.499842597044857"/>
	</edge>
	<edge from="61" function="normal" id="4147" length="0.2472143337290512" numLanes="1" priority="1" speed="36.11111111111111" spreadType="center" to="62">
		<lane allow="moped bicycle pedestrian custom1 trailer evehicle rail_urban ship private vip custom2 authority delivery rail_electric taxi tram army hov coach motorcycle passenger rail emergency" index="0" length="0.2472143337290512" shape="-149.37349999999998,161.5856 -149.2638,161.58665000000002 -149.12630000000001,161.58825000000002" speed="36.11111111111111" width="2.5000372897218917"/>
	</edge>
	<edge from="63" function="normal" id="4148" length="47.75014404514306" numLanes="1" priority="1" speed="36.11111111111111" spreadType="center" to="64">
		<lane allow="moped bicycle pedestrian custom1 trailer evehicle rail_urban ship private vip custom2 authority delivery rail_electric taxi tram army hov coach motorcycle passenger rail emergency" index="0" length="47.75014404514306" shape="156.26985000000002,-113.6293 155.5539,-110.70175 154.8859,-106.7399 154.54225,-102.232 154.34855,-94.6991 154.5403,-86.16085000000001 155.72875,-66.0742" speed="36.11111111111111" width="2.498987052787602"/>
	</edge>
	<edge from="65" function="normal" id="4149" length="48.525426353113296" numLanes="1" priority="1" speed="36.11111111111111" spreadType="center" to="66">
		<lane allow="moped bicycle pedestrian custom1 trailer evehicle rail_urban ship private vip custom2 authority delivery rail_electric taxi tram army hov coach motorcycle passenger rail emergency" index="0" length="48.525426353113296" shape="153.23305,-65.94385 152.03635,-86.20965000000001 151.84924999999998,-94.87275 152.0552,-102.53115 152.42034999999998,-107.16315 153.11700000000002,-111.2561 153.85365000000002,-114.26715" speed="36.11111111111111" width="2.4989836854209377"/>
	</edge>
	<edge from="67" function="normal" id="4150" length="0.25423164549735455" numLanes="1" priority="1" speed="36.11111111111111" spreadType="center" to="68">
		<lane allow="moped bicycle pedestrian custom1 trailer evehicle rail_urban ship private vip custom2 authority delivery rail_electric taxi tram army hov coach motorcycle passenger rail emergency" index="0" length="0.25423164549735455" shape="-140.3213,164.3218 -140.4479,164.31635 -140.5753,164.31095" speed="36.11111111111111" width="2.499898239928984"/>
	</edge>
	<edge from="69" function="normal" id="4151" length="0.2667894304911762" numLanes="1" priority="1" speed="36.11111111111111" spreadType="center" to="70">
		<lane allow="moped bicycle pedestrian custom1 trailer evehicle rail_urban ship private vip custom2 authority delivery rail_electric taxi tram army hov coach motorcycle passenger rail emergency" index="0" length="0.2667894304911762" shape="-140.47910000000002,161.81285 -140.34125,161.81865 -140.21255000000002,161.82415" speed="36.11111111111111" width="2.499960995695742"/>
	</edge>
	<edge from="71" function="normal" id="4152" length="0.24949134826150332" numLanes="2" priority="1" speed="36.11111111111111" spreadType="center" to="72">
		<lane allow="moped bicycle pedestrian custom1 trailer evehicle rail_urban ship private truck vip custom2 authority delivery rail_electric taxi tram army hov coach motorcycle passenger bus rail emergency" index="0" length="0.24949134826150332" shape="-78.78625,24.093600000000002 -78.8835,24.02015 -78.98535,23.94325" speed="36.11111111111111" width="2.4998297262013667"/>
		<lane allow="moped bicycle pedestrian custom1 trailer evehicle rail_urban ship private truck vip custom2 authority delivery rail_electric taxi tram army hov coach motorcycle passenger bus rail emergency" index="1" length="0.24949134826150332" shape="-77.27595,22.101399999999998 -77.37675,22.02525 -77.47739999999999,21.94925" speed="36.11111111111111" width="2.499954179580096"/>
	</edge>
	<edge from="73" function="normal" id="4155" length="0.25741150423160675" numLanes="2" priority="1" speed="36.11111111111111" spreadType="center" to="74">
		<lane allow="moped bicycle pedestrian custom1 trailer evehicle rail_urban ship private vip custom2 authority delivery rail_electric taxi tram army hov coach motorcycle passenger rail emergency" index="0" length="0.25741150423160675" shape="-74.47614999999999,17.95035 -74.3632,18.03545 -74.2589,18.11425" speed="36.11111111111111" width="2.4999721058443876"/>
		<lane allow="moped bicycle pedestrian custom1 trailer evehicle rail_urban ship private truck vip custom2 authority delivery rail_electric taxi tram army hov coach motorcycle passenger bus rail emergency" index="1" length="0.25741150423160675" shape="-75.97075,19.954250000000002 -75.87,20.03035 -75.76535,20.1094" speed="36.11111111111111" width="2.4998996659866184"/>
	</edge>
	<edge from="75" function="normal" id="4157" length="127.58082215270642" numLanes="2" priority="1" speed="36.11111111111111" spreadType="center" to="76">
		<lane allow="moped bicycle pedestrian custom1 trailer evehicle rail_urban ship private vip custom2 authority delivery rail_electric taxi tram army hov coach motorcycle passenger rail emergency" index="0" length="127.58082215270642" shape="151.7523,-124.2778 96.3536,-157.97944999999999 78.04560000000001,-169.5128 62.05515,-180.027 55.030199999999994,-184.952 44.13995,-193.0505" speed="36.11111111111111" width="2.4976825258627153"/>
		<lane allow="moped bicycle pedestrian custom1 trailer evehicle rail_urban ship private vip custom2 authority delivery rail_electric taxi tram army hov coach motorcycle passenger rail emergency" index="1" length="127.58082215270642" shape="153.07954999999998,-126.39525 97.71889999999999,-160.07445 79.4453,-171.5849 63.49765000000001,-182.0694 56.506299999999996,-186.96965 45.62465,-195.06185" speed="36.11111111111111" width="2.4999567696262393"/>
	</edge>
	<edge from="77" function="normal" id="4158" length="0.27408985891715093" numLanes="2" priority="1" speed="36.11111111111111" spreadType="center" to="78">
		<lane allow="moped bicycle pedestrian custom1 trailer evehicle rail_urban ship private vip custom2 authority delivery rail_electric taxi tram army hov coach motorcycle passenger rail emergency" index="0" length="0.27408985891715093" shape="-68.77875,31.756 -68.90065,31.6616 -68.99520000000001,31.58785" speed="36.11111111111111" width="2.499995481995922"/>
		<lane allow="moped bicycle pedestrian custom1 trailer evehicle rail_urban ship private vip custom2 authority delivery rail_electric taxi tram army hov coach motorcycle passenger rail emergency" index="1" length="0.27408985891715093" shape="-67.23895,29.7864 -67.36275,29.690600000000003 -67.46235,29.6129" speed="36.11111111111111" width="2.4999954819959136"/>
	</edge>
	<edge from="79" function="normal" id="4161" length="0.23159422974733523" numLanes="2" priority="1" speed="36.11111111111111" spreadType="center" to="80">
		<lane allow="moped bicycle pedestrian custom1 trailer evehicle rail_urban ship private vip custom2 authority delivery rail_electric taxi tram army hov coach motorcycle passenger rail emergency" index="0" length="0.23159422974733523" shape="-64.3916,25.66695 -64.28694999999999,25.748600000000003 -64.20935,25.80985" speed="36.11111111111111" width="2.4999954819959136"/>