<!-- generated on Tue Feb  9 22:16:43 2021 by Eclipse SUMO netconvert Version 1.8.0
<configuration xmlns:xsi="http://www.w3.org/2001/XMLSchema-instance" xsi:noNamespaceSchemaLocation="http://sumo.dlr.de/xsd/netconvertConfiguration.xsd">

    <input>
        <node-files value="./converted_scenarios/scenario-factory/FRA_Miramas-4_6_I-1-1/FRA_Miramas-4_6_I-1-1.nod.xml"/>
        <edge-files value="./converted_scenarios/scenario-factory/FRA_Miramas-4_6_I-1-1/FRA_Miramas-4_6_I-1-1.edg.xml"/>
        <connection-files value="./converted_scenarios/scenario-factory/FRA_Miramas-4_6_I-1-1/FRA_Miramas-4_6_I-1-1.con.xml"/>
        <tllogic-files value="./converted_scenarios/scenario-factory/FRA_Miramas-4_6_I-1-1/FRA_Miramas-4_6_I-1-1.tll.xml"/>
        <type-files value="/home/zen/commonroad-interactive-benchmarks/install/commonroad-map-tool/crmapconverter/sumo_map/templates/DEU.typ.xml"/>
    </input>

    <output>
        <output-file value="./converted_scenarios/scenario-factory/FRA_Miramas-4_6_I-1-1/FRA_Miramas-4_6_I-1-1.net.xml"/>
    </output>

    <processing>
        <geometry.remove.keep-edges.explicit value="true"/>
        <geometry.avoid-overlap value="true"/>
        <offset.disable-normalization value="true"/>
    </processing>

    <junctions>
        <no-turnarounds value="true"/>
        <junctions.internal-link-detail value="20"/>
    </junctions>

    <report>
        <aggregate-warnings value="5"/>
    </report>

    <random_number>
        <seed value="1234"/>
    </random_number>

</configuration>
--><net xmlns:xsi="http://www.w3.org/2001/XMLSchema-instance" version="1.6" junctionCornerDetail="5" junctionLinkDetail="20" limitTurnSpeed="5.50" xsi:noNamespaceSchemaLocation="http://sumo.dlr.de/xsd/net_file.xsd">

    <location netOffset="0.00,0.00" convBoundary="-606.54,254.25,-398.56,376.90" origBoundary="-606.54,254.25,-398.56,378.00" projParameter="!"/>

    <type id="highway.bridleway" priority="1" speed="2.78" allow="pedestrian" oneway="1" width="2.00"/>
    <type id="highway.bus_guideway" priority="1" speed="27.78" allow="bus" oneway="1"/>
    <type id="highway.cycleway" priority="1" speed="8.33" allow="bicycle" oneway="0" width="1.00"/>
    <type id="highway.footway" priority="1" speed="2.78" allow="pedestrian" oneway="1" width="2.00"/>
    <type id="highway.ford" priority="1" speed="2.78" allow="army" oneway="0"/>
    <type id="highway.living_street" priority="2" speed="2.78" disallow="tram rail_urban rail rail_electric rail_fast ship" oneway="0"/>
    <type id="highway.motorway" priority="14" speed="39.44" allow="private emergency authority army vip passenger hov taxi bus coach delivery truck trailer motorcycle evehicle custom1 custom2" oneway="1"/>
    <type id="highway.motorway_link" priority="9" speed="22.22" allow="private emergency authority army vip passenger hov taxi bus coach delivery truck trailer motorcycle evehicle custom1 custom2" oneway="1"/>
    <type id="highway.path" priority="1" speed="2.78" allow="pedestrian bicycle" oneway="0" width="2.00"/>
    <type id="highway.pedestrian" priority="1" speed="2.78" allow="pedestrian" oneway="1" width="2.00"/>
    <type id="highway.primary" priority="12" speed="27.78" disallow="pedestrian tram rail_urban rail rail_electric rail_fast ship" oneway="0"/>
    <type id="highway.primary_link" priority="7" speed="22.22" disallow="pedestrian tram rail_urban rail rail_electric rail_fast ship" oneway="0"/>
    <type id="highway.raceway" priority="15" speed="83.33" allow="vip" oneway="0"/>
    <type id="highway.residential" priority="3" speed="13.89" disallow="pedestrian tram rail_urban rail rail_electric rail_fast ship" oneway="0"/>
    <type id="highway.secondary" priority="11" speed="27.78" disallow="pedestrian tram rail_urban rail rail_electric rail_fast ship" oneway="0"/>
    <type id="highway.secondary_link" priority="6" speed="22.22" disallow="pedestrian tram rail_urban rail rail_electric rail_fast ship" oneway="0"/>
    <type id="highway.service" priority="1" speed="5.56" allow="pedestrian delivery bicycle" oneway="0"/>
    <type id="highway.stairs" priority="1" speed="1.39" allow="pedestrian" oneway="1" width="2.00"/>
    <type id="highway.step" priority="1" speed="1.39" allow="pedestrian" oneway="1" width="2.00"/>
    <type id="highway.steps" priority="1" speed="1.39" allow="pedestrian" oneway="1" width="2.00"/>
    <type id="highway.tertiary" priority="10" speed="22.22" disallow="pedestrian tram rail_urban rail rail_electric rail_fast ship" oneway="0"/>
    <type id="highway.tertiary_link" priority="5" speed="22.22" disallow="pedestrian tram rail_urban rail rail_electric rail_fast ship" oneway="0"/>
    <type id="highway.track" priority="1" speed="5.56" allow="pedestrian motorcycle moped bicycle" oneway="0"/>
    <type id="highway.trunk" priority="13" speed="27.78" disallow="pedestrian bicycle tram rail_urban rail rail_electric rail_fast ship" oneway="0"/>
    <type id="highway.trunk_link" priority="8" speed="22.22" disallow="pedestrian bicycle tram rail_urban rail rail_electric rail_fast ship" oneway="0"/>
    <type id="highway.unclassified" priority="4" speed="13.89" disallow="pedestrian tram rail_urban rail rail_electric rail_fast ship" oneway="0"/>
    <type id="highway.unsurfaced" priority="1" speed="8.33" disallow="tram rail_urban rail rail_electric rail_fast ship" oneway="0"/>
    <type id="railway.highspeed" priority="21" speed="69.44" allow="rail_fast" oneway="1"/>
    <type id="railway.light_rail" priority="19" speed="27.78" allow="rail_urban" oneway="1"/>
    <type id="railway.preserved" priority="16" speed="27.78" allow="rail" oneway="1"/>
    <type id="railway.rail" priority="20" speed="44.44" allow="rail" oneway="1"/>
    <type id="railway.subway" priority="18" speed="27.78" allow="rail_urban" oneway="1"/>
    <type id="railway.tram" priority="17" speed="13.89" allow="tram" oneway="1"/>

    <edge id=":16_0" function="internal">
        <lane id=":16_0_0" index="0" disallow="pedestrian tram rail_urban rail rail_electric rail_fast ship" speed="36.11" length="3.25" width="3.50" shape="-498.57,289.07 -501.82,289.05"/>
    </edge>
    <edge id=":30_0" function="internal">
        <lane id=":30_0_0" index="0" disallow="pedestrian tram rail_urban rail rail_electric rail_fast ship" speed="36.11" length="0.23" width="3.50" shape="-519.98,304.16 -519.96,303.93"/>
    </edge>
    <edge id=":32_0" function="internal">
        <lane id=":32_0_0" index="0" disallow="pedestrian tram rail_urban rail rail_electric rail_fast ship" speed="11.47" length="28.03" width="3.50" shape="-569.75,334.74 -573.04,334.03 -575.20,333.79 -577.36,333.78 -579.47,334.02 -581.50,334.54 -583.42,335.36 -585.18,336.47 -586.77,337.85 -588.18,339.45 -589.41,341.23 -590.47,343.13 -591.81,346.22"/>
    </edge>
    <edge id=":32_1" function="internal">
        <lane id=":32_1_0" index="0" disallow="pedestrian tram rail_urban rail rail_electric rail_fast ship" speed="12.85" length="32.94" width="3.50" shape="-569.75,334.74 -570.99,334.38 -574.44,333.13 -576.71,332.04 -578.88,330.74 -580.91,329.20 -582.75,327.41 -584.35,325.38 -585.66,323.15 -586.66,320.78 -587.35,318.32 -587.77,315.82 -587.94,313.32 -587.90,310.84"/>
    </edge>
    <edge id=":32_2" function="internal">
        <lane id=":32_2_0" index="0" disallow="pedestrian tram rail_urban rail rail_electric rail_fast ship" speed="11.88" length="28.01" width="3.50" shape="-584.41,311.14 -584.44,313.18 -584.29,315.34 -583.93,317.47 -583.34,319.56 -582.50,321.55 -581.40,323.41 -580.05,325.11 -578.49,326.61 -576.76,327.91 -574.91,329.02 -572.95,329.95 -569.90,331.05 -568.86,331.35"/>
    </edge>
    <edge id=":32_3" function="internal">
        <lane id=":32_3_0" index="0" disallow="pedestrian tram rail_urban rail rail_electric rail_fast ship" speed="36.11" length="35.99" width="3.50" shape="-584.42,311.14 -584.71,315.26 -585.45,321.58 -586.54,327.86 -587.97,334.07 -589.73,340.19 -591.81,346.22"/>
    </edge>
    <edge id=":32_4" function="internal">
        <lane id=":32_4_0" index="0" disallow="pedestrian tram rail_urban rail rail_electric rail_fast ship" speed="36.11" length="35.04" width="3.50" shape="-595.09,345.00 -593.07,339.14 -591.36,333.20 -589.97,327.17 -588.92,321.08 -588.19,314.94 -587.90,310.84"/>
    </edge>
    <edge id=":32_5" function="internal">
        <lane id=":32_5_0" index="0" disallow="pedestrian tram rail_urban rail rail_electric rail_fast ship" speed="12.45" length="33.24" width="3.50" shape="-595.09,345.00 -593.56,341.46 -592.31,339.23 -590.85,337.13 -589.16,335.22 -587.23,333.55 -585.06,332.19 -582.72,331.18 -580.24,330.55 -577.70,330.26 -575.15,330.27 -572.61,330.55 -568.86,331.35"/>
    </edge>
    <edge id=":33_0" function="internal">
        <lane id=":33_0_0" index="0" disallow="pedestrian tram rail_urban rail rail_electric rail_fast ship" speed="36.11" length="38.91" width="3.50" shape="-448.33,368.35 -468.04,362.78 -485.80,357.85"/>
    </edge>
    <edge id=":33_1" function="internal">
        <lane id=":33_1_0" index="0" disallow="pedestrian tram rail_urban rail rail_electric rail_fast ship" speed="13.33" length="35.39" width="3.50" shape="-448.33,368.35 -450.73,367.55 -453.04,366.54 -455.25,365.31 -457.30,363.84 -459.14,362.11 -460.74,360.16 -462.05,358.00 -463.08,355.69 -463.82,353.28 -464.30,350.80 -464.57,348.29 -464.60,344.50 -464.29,340.69"/>
    </edge>
    <edge id=":33_2" function="internal">
        <lane id=":33_2_0" index="0" disallow="pedestrian tram rail_urban rail rail_electric rail_fast ship" speed="12.38" length="30.43" width="3.50" shape="-460.82,341.12 -461.10,344.51 -461.07,347.87 -460.85,350.05 -460.44,352.19 -459.83,354.25 -458.98,356.20 -457.89,358.01 -456.57,359.66 -455.04,361.11 -453.32,362.36 -451.44,363.42 -449.44,364.29 -447.33,364.99"/>
    </edge>
    <edge id=":33_3" function="internal">
        <lane id=":33_3_0" index="0" disallow="pedestrian tram rail_urban rail rail_electric rail_fast ship" speed="11.83" length="35.89" width="3.50" shape="-460.82,341.12 -461.52,345.23 -462.26,347.88 -463.27,350.45 -463.90,351.68 -464.61,352.86 -465.42,353.97 -466.33,355.01 -467.34,355.95 -468.45,356.78 -469.63,357.48 -470.88,358.06 -472.19,358.51 -473.53,358.84 -474.89,359.05 -477.65,359.18 -480.40,358.97 -483.12,358.51 -485.80,357.85"/>
    </edge>
    <edge id=":33_4" function="internal">
        <lane id=":33_4_0" index="0" disallow="pedestrian tram rail_urban rail rail_electric rail_fast ship" speed="10.80" length="29.74" width="3.50" shape="-484.87,354.48 -482.53,355.06 -480.19,355.45 -477.87,355.63 -475.56,355.52 -474.48,355.35 -473.41,355.09 -472.38,354.74 -471.40,354.28 -470.48,353.74 -469.63,353.09 -468.84,352.36 -468.12,351.54 -467.47,350.64 -466.89,349.69 -466.38,348.70 -465.53,346.52 -464.90,344.27 -464.29,340.69"/>
    </edge>
    <edge id=":33_5" function="internal">
        <lane id=":33_5_0" index="0" disallow="pedestrian tram rail_urban rail rail_electric rail_fast ship" speed="36.11" length="38.98" width="3.50" shape="-484.87,354.48 -467.09,359.41 -447.33,364.99"/>
    </edge>
    <edge id=":34_0" function="internal">
        <lane id=":34_0_0" index="0" disallow="pedestrian tram rail_urban rail rail_electric rail_fast ship" speed="36.11" length="39.30" width="3.50" shape="-504.31,352.65 -523.27,347.43 -542.20,342.21"/>
    </edge>
    <edge id=":34_1" function="internal">
        <lane id=":34_1_0" index="0" disallow="pedestrian tram rail_urban rail rail_electric rail_fast ship" speed="13.66" length="36.19" width="3.50" shape="-504.31,352.66 -506.70,351.87 -508.99,350.89 -511.16,349.67 -513.18,348.21 -515.00,346.51 -516.60,344.60 -517.94,342.50 -519.02,340.26 -519.87,337.91 -520.49,335.50 -521.05,331.80 -521.26,328.07 -521.16,324.30"/>
    </edge>
    <edge id=":34_2" function="internal">
        <lane id=":34_2_0" index="0" disallow="pedestrian tram rail_urban rail rail_electric rail_fast ship" speed="12.75" length="31.41" width="3.50" shape="-517.67,324.51 -517.76,327.90 -517.59,331.24 -517.10,334.52 -516.57,336.62 -515.86,338.65 -514.95,340.58 -513.83,342.37 -512.50,344.00 -510.98,345.45 -509.27,346.70 -507.42,347.75 -505.45,348.60 -503.36,349.29"/>
    </edge>
    <edge id=":34_3" function="internal">
        <lane id=":34_3_0" index="0" disallow="pedestrian tram rail_urban rail rail_electric rail_fast ship" speed="11.75" length="36.70" width="3.50" shape="-517.67,324.51 -518.13,328.75 -518.70,331.51 -519.57,334.19 -520.13,335.49 -520.78,336.74 -521.55,337.92 -522.42,339.03 -523.41,340.03 -524.50,340.92 -525.69,341.68 -526.96,342.30 -528.29,342.78 -529.65,343.13 -531.04,343.36 -533.86,343.51 -536.67,343.32 -539.46,342.87 -542.20,342.21"/>
    </edge>
    <edge id=":34_4" function="internal">
        <lane id=":34_4_0" index="0" disallow="pedestrian tram rail_urban rail rail_electric rail_fast ship" speed="10.72" length="30.32" width="3.50" shape="-541.30,338.83 -538.90,339.40 -536.51,339.79 -534.14,339.96 -531.78,339.83 -530.68,339.65 -529.60,339.37 -528.55,338.99 -527.57,338.52 -526.66,337.93 -525.82,337.25 -525.05,336.47 -524.37,335.60 -523.76,334.65 -523.23,333.65 -522.78,332.61 -522.05,330.33 -521.56,327.99 -521.16,324.30"/>
    </edge>
    <edge id=":34_5" function="internal">
        <lane id=":34_5_0" index="0" disallow="pedestrian tram rail_urban rail rail_electric rail_fast ship" speed="36.11" length="39.36" width="3.50" shape="-541.30,338.83 -522.34,344.06 -503.36,349.29"/>
    </edge>
    <edge id=":9_0" function="internal">
        <lane id=":9_0_0" index="0" disallow="pedestrian tram rail_urban rail rail_electric rail_fast ship" speed="36.11" length="2.94" width="3.50" shape="-516.34,302.82 -516.57,305.75"/>
    </edge>

    <edge id="20834" from="32" to="23" priority="3" type="highway.residential" spreadType="center" length="32.75" shape="-581.36,330.55 -603.26,376.90">
        <lane id="20834_0" index="0" disallow="pedestrian tram rail_urban rail rail_electric rail_fast ship" speed="36.11" length="32.75" width="3.50" customShape="1" shape="-591.81,346.22 -597.53,361.55 -603.26,376.90"/>
    </edge>
    <edge id="20835" from="28" to="32" priority="3" type="highway.residential" spreadType="center" length="32.77" shape="-606.54,375.68 -584.52,329.06">
        <lane id="20835_0" index="0" disallow="pedestrian tram rail_urban rail rail_electric rail_fast ship" speed="36.11" length="32.77" width="3.50" customShape="1" shape="-606.54,375.68 -600.81,360.33 -595.08,344.98"/>
    </edge>
    <edge id="20837" from="27" to="32" priority="3" type="highway.residential" spreadType="center" length="70.11" shape="-546.10,254.65 -581.40,330.63">
        <lane id="20837_0" index="0" disallow="pedestrian tram rail_urban rail rail_electric rail_fast ship" speed="36.11" length="70.11" width="3.50" customShape="1" shape="-546.10,254.65 -549.49,259.71 -553.03,264.54 -555.91,267.99 -559.72,271.95 -567.42,279.06 -571.77,283.18 -574.85,286.45 -577.35,289.56 -579.30,292.46 -580.97,295.53 -582.31,298.76 -583.27,302.11 -583.98,306.04 -584.42,311.14"/>
    </edge>
    <edge id="20838" from="32" to="24" priority="3" type="highway.residential" spreadType="center" length="70.00" shape="-584.57,329.16 -550.05,254.25">
        <lane id="20838_0" index="0" disallow="pedestrian tram rail_urban rail rail_electric rail_fast ship" speed="36.11" length="70.00" width="3.50" customShape="1" shape="-587.90,310.84 -587.45,305.66 -586.73,301.52 -585.72,297.94 -584.34,294.49 -582.62,291.20 -580.61,288.10 -578.04,284.80 -574.88,281.35 -570.45,277.09 -562.66,269.93 -558.86,266.03 -556.00,262.66 -552.46,257.85 -550.05,254.25"/>
    </edge>
    <edge id="20935" from="34" to="32" priority="3" type="highway.residential" spreadType="center" length="28.57" shape="-521.87,340.37 -583.22,331.59">
        <lane id="20935_0" index="0" disallow="pedestrian tram rail_urban rail rail_electric rail_fast ship" speed="36.11" length="28.57" width="3.50" customShape="1" shape="-542.20,342.21 -555.99,338.47 -569.77,334.73"/>
    </edge>
    <edge id="20936" from="32" to="34" priority="3" type="highway.residential" spreadType="center" length="28.57" shape="-582.72,328.13 -521.38,336.91">
        <lane id="20936_0" index="0" disallow="pedestrian tram rail_urban rail rail_electric rail_fast ship" speed="36.11" length="28.57" width="3.50" customShape="1" shape="-568.86,331.35 -555.07,335.09 -541.29,338.83"/>
    </edge>
    <edge id="20938" from="33" to="34" priority="3" type="highway.residential" spreadType="center" length="19.25" shape="-465.71,356.26 -522.20,340.30">
        <lane id="20938_0" index="0" disallow="pedestrian tram rail_urban rail rail_electric rail_fast ship" speed="36.11" length="19.25" width="3.50" customShape="1" shape="-485.80,357.85 -495.06,355.25 -504.33,352.65"/>
    </edge>
    <edge id="20939" from="34" to="33" priority="3" type="highway.residential" spreadType="center" length="19.22" shape="-521.25,336.94 -464.76,352.90">
        <lane id="20939_0" index="0" disallow="pedestrian tram rail_urban rail rail_electric rail_fast ship" speed="36.11" length="19.22" width="3.50" customShape="1" shape="-503.36,349.29 -494.12,351.88 -484.85,354.48"/>
    </edge>
    <edge id="20941" from="29" to="33" priority="3" type="highway.residential" spreadType="center" length="70.04" shape="-398.56,349.72 -465.11,356.33">
        <lane id="20941_0" index="0" disallow="pedestrian tram rail_urban rail rail_electric rail_fast ship" speed="36.11" length="70.04" width="3.50" customShape="1" shape="-398.56,349.72 -398.81,351.44 -400.63,360.64 -401.75,364.66 -402.89,367.57 -404.10,369.88 -405.57,372.03 -407.29,373.98 -408.89,375.31 -410.68,376.39 -412.60,377.19 -414.62,377.71 -417.21,378.00 -420.33,377.94 -423.43,377.52 -426.97,376.64 -430.90,375.25 -439.02,371.70 -443.85,369.75 -448.37,368.34"/>
    </edge>
    <edge id="20942" from="33" to="18" priority="3" type="highway.residential" spreadType="center" length="70.00" shape="-465.54,352.86 -401.21,343.26">
        <lane id="20942_0" index="0" disallow="pedestrian tram rail_urban rail rail_electric rail_fast ship" speed="36.11" length="70.00" width="3.50" customShape="1" shape="-447.33,364.99 -442.91,366.37 -438.11,368.29 -430.25,371.74 -426.57,373.09 -423.32,373.97 -420.52,374.40 -417.71,374.51 -415.44,374.31 -413.74,373.88 -412.14,373.21 -410.68,372.29 -409.38,371.10 -407.93,369.33 -406.71,367.36 -405.71,365.24 -404.76,362.53 -403.79,358.73 -402.10,349.89 -401.22,343.46 -401.21,343.26"/>
    </edge>
    <edge id="21059" from="30" to="31" priority="3" type="highway.residential" spreadType="center" length="31.04">
        <lane id="21059_0" index="0" disallow="pedestrian tram rail_urban rail rail_electric rail_fast ship" speed="36.11" length="31.04" width="3.50" customShape="1" shape="-519.96,303.93 -519.71,301.36 -519.22,298.72 -518.45,296.15 -517.35,293.70 -516.66,292.55 -515.87,291.46 -514.99,290.45 -514.01,289.53 -512.95,288.71 -511.81,287.99 -510.62,287.37 -509.38,286.85 -506.80,286.10 -504.15,285.68 -501.47,285.53 -500.12,285.53 -500.00,285.54 -499.87,285.54"/>
    </edge>
    <edge id="21060" from="25" to="16" priority="3" type="highway.residential" spreadType="center" length="3.61">
        <lane id="21060_0" index="0" disallow="pedestrian tram rail_urban rail rail_electric rail_fast ship" speed="36.11" length="3.61" width="3.50" customShape="1" shape="-494.96,289.16 -498.57,289.07"/>
    </edge>
    <edge id="21062" from="34" to="30" priority="3" type="highway.residential" spreadType="center" length="20.17" shape="-523.42,338.55 -519.97,304.04">
        <lane id="21062_0" index="0" disallow="pedestrian tram rail_urban rail rail_electric rail_fast ship" speed="36.11" length="20.17" width="3.50" customShape="1" shape="-521.16,324.30 -520.57,314.19 -519.98,304.16"/>
    </edge>
    <edge id="21063" from="9" to="34" priority="3" type="highway.residential" spreadType="center" length="18.80" shape="-516.48,304.28 -519.94,338.89">
        <lane id="21063_0" index="0" disallow="pedestrian tram rail_urban rail rail_electric rail_fast ship" speed="36.11" length="18.80" width="3.50" customShape="1" shape="-516.57,305.75 -517.08,314.39 -517.67,324.52"/>
    </edge>
    <edge id="21487" from="33" to="17" priority="3" type="highway.residential" spreadType="center" length="20.03" shape="-466.98,354.41 -461.87,320.81">
        <lane id="21487_0" index="0" disallow="pedestrian tram rail_urban rail rail_electric rail_fast ship" speed="36.11" length="20.03" width="3.50" customShape="1" shape="-464.29,340.69 -463.08,330.77 -461.87,320.81"/>
    </edge>
    <edge id="21488" from="26" to="33" priority="3" type="highway.residential" spreadType="center" length="20.03" shape="-458.39,321.24 -463.52,354.93">
        <lane id="21488_0" index="0" disallow="pedestrian tram rail_urban rail rail_electric rail_fast ship" speed="36.11" length="20.03" width="3.50" customShape="1" shape="-458.39,321.24 -459.61,331.19 -460.82,341.12"/>
    </edge>
    <edge id="22584" from="16" to="9" priority="3" type="highway.residential" spreadType="center" length="22.40">
        <lane id="22584_0" index="0" disallow="pedestrian tram rail_urban rail rail_electric rail_fast ship" speed="36.11" length="22.40" width="3.50" customShape="1" shape="-501.82,289.05 -503.65,289.15 -505.86,289.51 -508.01,290.13 -508.98,290.54 -509.93,291.04 -510.83,291.61 -511.67,292.26 -512.43,292.98 -513.13,293.78 -513.75,294.64 -514.29,295.54 -515.21,297.57 -515.84,299.71 -516.26,301.95 -516.34,302.82"/>
    </edge>

    <junction id="16" type="priority" x="-500.19" y="289.03" incLanes="21060_0" intLanes=":16_0_0" shape="-498.61,290.82 -498.52,287.32 -501.81,287.30 -501.83,290.80" rightOfWay="edgePriority">
        <request index="0" response="0" foes="0" cont="0"/>
    </junction>
    <junction id="17" type="dead_end" x="-461.87" y="320.81" incLanes="21487_0" intLanes="" shape="-463.60,320.60 -460.13,321.02" rightOfWay="edgePriority"/>
    <junction id="18" type="dead_end" x="-401.21" y="343.26" incLanes="20942_0" intLanes="" shape="-402.95,343.11 -399.47,343.40" rightOfWay="edgePriority"/>
    <junction id="23" type="dead_end" x="-603.26" y="376.90" incLanes="20834_0" intLanes="" shape="-601.62,377.51 -604.90,376.29" rightOfWay="edgePriority"/>
    <junction id="24" type="dead_end" x="-550.05" y="254.25" incLanes="20838_0" intLanes="" shape="-551.50,253.28 -548.60,255.23" rightOfWay="edgePriority"/>
    <junction id="25" type="dead_end" x="-494.96" y="289.16" incLanes="" intLanes="" shape="-494.92,287.41 -495.01,290.91" rightOfWay="edgePriority"/>
    <junction id="26" type="dead_end" x="-458.39" y="321.24" incLanes="" intLanes="" shape="-460.13,321.03 -456.66,321.45" rightOfWay="edgePriority"/>
    <junction id="27" type="dead_end" x="-546.10" y="254.65" incLanes="" intLanes="" shape="-547.55,253.67 -544.64,255.62" rightOfWay="edgePriority"/>
    <junction id="28" type="dead_end" x="-606.54" y="375.68" incLanes="" intLanes="" shape="-604.90,376.29 -608.18,375.07" rightOfWay="edgePriority"/>
    <junction id="29" type="dead_end" x="-398.56" y="349.72" incLanes="" intLanes="" shape="-400.30,349.47 -396.83,349.97" rightOfWay="edgePriority"/>
    <junction id="30" type="priority" x="-519.97" y="304.04" incLanes="21062_0" intLanes=":30_0_0" shape="-518.22,304.10 -521.70,303.76 -521.72,304.05 -518.23,304.26" rightOfWay="edgePriority">
        <request index="0" response="0" foes="0" cont="0"/>
    </junction>
    <junction id="31" type="dead_end" x="-499.87" y="285.54" incLanes="21059_0" intLanes="" shape="-499.83,283.79 -499.92,287.29" rightOfWay="edgePriority"/>
    <junction id="32" type="priority" x="-582.97" y="329.86" incLanes="20935_0 20837_0 20835_0" intLanes=":32_0_0 :32_1_0 :32_2_0 :32_3_0 :32_4_0 :32_5_0" shape="-570.23,336.42 -568.40,329.67 -573.10,327.99 -576.88,325.75 -579.72,322.97 -581.63,319.63 -582.62,315.74 -582.67,311.29 -589.65,310.69 -590.27,318.02 -590.80,323.46 -591.48,327.92 -592.54,332.29 -594.21,337.48 -596.73,344.38 -590.17,346.83 -588.13,342.55 -585.57,339.29 -582.50,337.04 -578.93,335.82 -574.83,335.61">
        <request index="0" response="001000" foes="001000" cont="0"/>
        <request index="1" response="111000" foes="111000" cont="0"/>
        <request index="2" response="000000" foes="100000" cont="0"/>
        <request index="3" response="000000" foes="100011" cont="0"/>
        <request index="4" response="000000" foes="000010" cont="0"/>
        <request index="5" response="001100" foes="001110" cont="0"/>
    </junction>
    <junction id="33" type="priority" x="-465.24" y="354.58" incLanes="20941_0 21488_0 20939_0" intLanes=":33_0_0 :33_1_0 :33_2_0 :33_3_0 :33_4_0 :33_5_0" shape="-448.89,370.01 -446.80,363.33 -451.15,361.47 -454.57,358.88 -457.08,355.58 -458.66,351.55 -459.33,346.80 -459.08,341.33 -466.03,340.48 -467.11,345.52 -468.98,349.36 -471.64,352.01 -475.10,353.46 -479.34,353.73 -484.38,352.80 -486.27,359.54">
        <request index="0" response="000000" foes="001000" cont="0"/>
        <request index="1" response="110000" foes="111000" cont="0"/>
        <request index="2" response="100000" foes="100000" cont="0"/>
        <request index="3" response="100011" foes="100011" cont="0"/>
        <request index="4" response="000000" foes="000010" cont="0"/>
        <request index="5" response="000000" foes="001110" cont="0"/>
    </junction>
    <junction id="34" type="priority" x="-521.67" y="338.63" incLanes="20938_0 21063_0 20936_0" intLanes=":34_0_0 :34_1_0 :34_2_0 :34_3_0 :34_4_0 :34_5_0" shape="-504.78,354.34 -502.89,347.60 -507.18,345.86 -510.63,343.28 -513.23,339.87 -514.98,335.62 -515.87,330.53 -515.93,324.61 -522.91,324.20 -523.70,329.43 -525.36,333.43 -527.91,336.20 -531.33,337.74 -535.64,338.06 -540.83,337.15 -542.66,343.90">
        <request index="0" response="000000" foes="001000" cont="0"/>
        <request index="1" response="110000" foes="111000" cont="0"/>
        <request index="2" response="100000" foes="100000" cont="0"/>
        <request index="3" response="100011" foes="100011" cont="0"/>
        <request index="4" response="000000" foes="000010" cont="0"/>
        <request index="5" response="000000" foes="001110" cont="0"/>
    </junction>
    <junction id="9" type="priority" x="-516.48" y="304.28" incLanes="22584_0" intLanes=":9_0_0" shape="-514.60,302.99 -518.08,302.65 -518.31,305.64 -514.82,305.85" rightOfWay="edgePriority">
        <request index="0" response="0" foes="0" cont="0"/>
    </junction>

    <connection from="20835" to="20838" fromLane="0" toLane="0" contPos="-4.00" shape="-595.08,344.98 -593.07,339.14 -591.36,333.20 -589.97,327.17 -588.92,321.08 -588.19,314.94 -587.90,310.84" via=":32_4_0" dir="s" state="M"/>
    <connection from="20835" to="20936" fromLane="0" toLane="0" contPos="-4.00" shape="-595.08,344.98 -593.56,341.46 -592.31,339.23 -590.85,337.13 -589.16,335.22 -587.23,333.55 -585.06,332.19 -582.72,331.18 -580.24,330.55 -577.70,330.26 -575.15,330.27 -572.61,330.55 -568.86,331.35" via=":32_5_0" dir="l" state="m"/>
    <connection from="20837" to="20936" fromLane="0" toLane="0" contPos="-4.00" shape="-584.41,311.03 -584.44,313.18 -584.29,315.34 -583.93,317.47 -583.34,319.56 -582.50,321.55 -581.40,323.41 -580.05,325.11 -578.49,326.61 -576.76,327.91 -574.91,329.02 -572.95,329.95 -569.90,331.05 -568.86,331.35" via=":32_2_0" dir="r" state="M"/>
    <connection from="20837" to="20834" fromLane="0" toLane="0" contPos="-4.00" shape="-584.41,311.03 -584.71,315.26 -585.45,321.58 -586.54,327.86 -587.97,334.07 -589.73,340.19 -591.81,346.22" via=":32_3_0" dir="s" state="M"/>
    <connection from="20935" to="20834" fromLane="0" toLane="0" contPos="-4.00" shape="-569.75,334.74 -573.04,334.03 -575.20,333.79 -577.36,333.78 -579.47,334.02 -581.50,334.54 -583.42,335.36 -585.18,336.47 -586.77,337.85 -588.18,339.45 -589.41,341.23 -590.47,343.13 -591.81,346.22" via=":32_0_0" dir="r" state="m"/>
    <connection from="20935" to="20838" fromLane="0" toLane="0" contPos="-4.00" shape="-569.75,334.74 -570.99,334.38 -574.44,333.13 -576.71,332.04 -578.88,330.74 -580.91,329.20 -582.75,327.41 -584.35,325.38 -585.66,323.15 -586.66,320.78 -587.35,318.32 -587.77,315.82 -587.94,313.32 -587.90,310.84" via=":32_1_0" dir="l" state="m"/>
    <connection from="20936" to="21062" fromLane="0" toLane="0" contPos="-4.00" shape="-541.30,338.83 -538.90,339.40 -536.51,339.79 -534.14,339.96 -531.78,339.83 -530.68,339.65 -529.60,339.37 -528.55,338.99 -527.57,338.52 -526.66,337.93 -525.82,337.25 -525.05,336.47 -524.37,335.60 -523.76,334.65 -523.23,333.65 -522.78,332.61 -522.05,330.33 -521.56,327.99 -521.16,324.30" via=":34_4_0" dir="r" state="M"/>
    <connection from="20936" to="20939" fromLane="0" toLane="0" contPos="-4.00" shape="-541.30,338.83 -522.34,344.06 -503.36,349.29" via=":34_5_0" dir="s" state="M"/>
    <connection from="20938" to="20935" fromLane="0" toLane="0" contPos="-4.00" shape="-504.33,352.65 -523.27,347.43 -542.20,342.21" via=":34_0_0" dir="s" state="M"/>
    <connection from="20938" to="21062" fromLane="0" toLane="0" contPos="-4.00" shape="-504.33,352.65 -506.70,351.87 -508.99,350.89 -511.16,349.67 -513.18,348.21 -515.00,346.51 -516.60,344.60 -517.94,342.50 -519.02,340.26 -519.87,337.91 -520.49,335.50 -521.05,331.80 -521.26,328.07 -521.16,324.30" via=":34_1_0" dir="l" state="m"/>
    <connection from="20939" to="21487" fromLane="0" toLane="0" contPos="-4.00" shape="-484.87,354.48 -482.53,355.06 -480.19,355.45 -477.87,355.63 -475.56,355.52 -474.48,355.35 -473.41,355.09 -472.38,354.74 -471.40,354.28 -470.48,353.74 -469.63,353.09 -468.84,352.36 -468.12,351.54 -467.47,350.64 -466.89,349.69 -466.38,348.70 -465.53,346.52 -464.90,344.27 -464.29,340.69" via=":33_4_0" dir="r" state="M"/>
    <connection from="20939" to="20942" fromLane="0" toLane="0" contPos="-4.00" shape="-484.87,354.48 -467.09,359.41 -447.33,364.99" via=":33_5_0" dir="s" state="M"/>
    <connection from="20941" to="20938" fromLane="0" toLane="0" contPos="-4.00" shape="-448.33,368.35 -468.04,362.78 -485.80,357.85" via=":33_0_0" dir="s" state="M"/>