<routes>
	<vehicle depart="0.1" departLane="0" departPos="19.75501023683774" departSpeed="0.0" id="36" type="passenger">
		<route edges="42247 42589"/>
	</vehicle>
	<vehicle depart="0.1" departLane="0" departPos="2.5" departSpeed="12.019521" id="38" type="passenger">
		<route edges="42245 42248"/>
	</vehicle>
	<vehicle depart="0.1" departLane="0" departPos="12.25681796329064" departSpeed="0.0" id="310" type="passenger">
		<route edges="42247 42589"/>
	</vehicle>
	<vehicle depart="0.1" departLane="0" departPos="4.567640051819903" departSpeed="7.2203881" id="311" type="passenger">
		<route edges=":39_5 42544"/>
	</vehicle>
	<vehicle depart="0.1" departLane="0" departPos="25.99441243907681" departSpeed="0.0" id="312" type="passenger">
		<route edges="42244 42545"/>
	</vehicle>
	<vehicle depart="0.1" departLane="0" departPos="18.492062694514285" departSpeed="0.0" id="315" type="passenger">
		<route edges="42244 42545"/>
	</vehicle>
	<vehicle depart="0.1" departLane="0" departPos="24.63094723179918" departSpeed="8.2190539" id="322" type="passenger">
		<route edges=":40_2 42590 42244 42545"/>
	</vehicle>
</routes>
