<routes>
	<vehicle depart="0.1" departLane="0" departPos="13.586104449333398" departSpeed="1.5594645" id="33" type="passenger">
		<route edges=":26_3 108745 107986"/>
	</vehicle>
	<vehicle depart="0.1" departLane="0" departPos="53.7652150185575" departSpeed="0.58777241" id="35" type="passenger">
		<route edges="107067 108745"/>
	</vehicle>
	<vehicle depart="0.1" departLane="0" departPos="8.264545923508798" departSpeed="9.3157465" id="38" type="passenger">
		<route edges=":26_4 107068"/>
	</vehicle>
	<vehicle depart="0.1" departLane="0" departPos="62.24485300596147" departSpeed="3.9909453" id="310" type="passenger">
		<route edges="107067 108278 108275"/>
	</vehicle>
	<vehicle depart="0.1" departLane="0" departPos="11.641810828103813" departSpeed="5.5742103" id="316" type="passenger">
		<route edges=":27_4 108744 107068"/>
	</vehicle>
	<vehicle depart="0.1" departLane="0" departPos="69.52555611184853" departSpeed="4.9113428" id="320" type="passenger">
		<route edges="108747 107986 108275"/>
	</vehicle>
	<vehicle depart="0.1" departLane="0" departPos="48.16667236458656" departSpeed="1.2736933" id="330" type="passenger">
		<route edges="108276 108279"/>
	</vehicle>
	<vehicle depart="0.1" departLane="0" departPos="24.35976386053099" departSpeed="0.28705675" id="312" type="motorcycle">
		<route edges="107067 108745"/>
	</vehicle>
	<vehicle depart="0.1" departLane="0" departPos="18.944432502607942" departSpeed="11.861067" id="325" type="motorcycle">
		<route edges=":25_1 108275"/>
	</vehicle>
	<vehicle depart="0.1" departLane="0" departPos="26.71367362891222" departSpeed="6.274265" id="32" type="truck">
		<route edges=":27_4 108744 107068"/>
	</vehicle>
</routes>
