<!-- generated on Tue Feb  9 22:19:09 2021 by Eclipse SUMO netconvert Version 1.8.0
<configuration xmlns:xsi="http://www.w3.org/2001/XMLSchema-instance" xsi:noNamespaceSchemaLocation="http://sumo.dlr.de/xsd/netconvertConfiguration.xsd">

    <input>
        <node-files value="./converted_scenarios/scenario-factory/DEU_Moabit-5_2_I-1-1/DEU_Moabit-5_2_I-1-1.nod.xml"/>
        <edge-files value="./converted_scenarios/scenario-factory/DEU_Moabit-5_2_I-1-1/DEU_Moabit-5_2_I-1-1.edg.xml"/>
        <connection-files value="./converted_scenarios/scenario-factory/DEU_Moabit-5_2_I-1-1/DEU_Moabit-5_2_I-1-1.con.xml"/>
        <tllogic-files value="./converted_scenarios/scenario-factory/DEU_Moabit-5_2_I-1-1/DEU_Moabit-5_2_I-1-1.tll.xml"/>
        <type-files value="/home/zen/commonroad-interactive-benchmarks/install/commonroad-map-tool/crmapconverter/sumo_map/templates/DEU.typ.xml"/>
    </input>

    <output>
        <output-file value="./converted_scenarios/scenario-factory/DEU_Moabit-5_2_I-1-1/DEU_Moabit-5_2_I-1-1.net.xml"/>
    </output>

    <processing>
        <geometry.remove.keep-edges.explicit value="true"/>
        <geometry.avoid-overlap value="true"/>
        <offset.disable-normalization value="true"/>
    </processing>

    <junctions>
        <no-turnarounds value="true"/>
        <junctions.internal-link-detail value="20"/>
    </junctions>

    <report>
        <aggregate-warnings value="5"/>
    </report>

    <random_number>
        <seed value="1234"/>
    </random_number>

</configuration>
--><net xmlns:xsi="http://www.w3.org/2001/XMLSchema-instance" version="1.6" junctionCornerDetail="5" junctionLinkDetail="20" limitTurnSpeed="5.50" xsi:noNamespaceSchemaLocation="http://sumo.dlr.de/xsd/net_file.xsd">

    <location netOffset="0.00,0.00" convBoundary="742.23,-597.08,831.41,-426.78" origBoundary="742.23,-597.08,837.26,-426.78" projParameter="!"/>

    <type id="highway.bridleway" priority="1" speed="2.78" allow="pedestrian" oneway="1" width="2.00"/>
    <type id="highway.bus_guideway" priority="1" speed="27.78" allow="bus" oneway="1"/>
    <type id="highway.cycleway" priority="1" speed="8.33" allow="bicycle" oneway="0" width="1.00"/>
    <type id="highway.footway" priority="1" speed="2.78" allow="pedestrian" oneway="1" width="2.00"/>
    <type id="highway.ford" priority="1" speed="2.78" allow="army" oneway="0"/>
    <type id="highway.living_street" priority="2" speed="2.78" disallow="tram rail_urban rail rail_electric rail_fast ship" oneway="0"/>
    <type id="highway.motorway" priority="14" speed="39.44" allow="private emergency authority army vip passenger hov taxi bus coach delivery truck trailer motorcycle evehicle custom1 custom2" oneway="1"/>
    <type id="highway.motorway_link" priority="9" speed="22.22" allow="private emergency authority army vip passenger hov taxi bus coach delivery truck trailer motorcycle evehicle custom1 custom2" oneway="1"/>
    <type id="highway.path" priority="1" speed="2.78" allow="pedestrian bicycle" oneway="0" width="2.00"/>
    <type id="highway.pedestrian" priority="1" speed="2.78" allow="pedestrian" oneway="1" width="2.00"/>
    <type id="highway.primary" priority="12" speed="27.78" disallow="pedestrian tram rail_urban rail rail_electric rail_fast ship" oneway="0"/>
    <type id="highway.primary_link" priority="7" speed="22.22" disallow="pedestrian tram rail_urban rail rail_electric rail_fast ship" oneway="0"/>
    <type id="highway.raceway" priority="15" speed="83.33" allow="vip" oneway="0"/>
    <type id="highway.residential" priority="3" speed="13.89" disallow="pedestrian tram rail_urban rail rail_electric rail_fast ship" oneway="0"/>
    <type id="highway.secondary" priority="11" speed="27.78" disallow="pedestrian tram rail_urban rail rail_electric rail_fast ship" oneway="0"/>
    <type id="highway.secondary_link" priority="6" speed="22.22" disallow="pedestrian tram rail_urban rail rail_electric rail_fast ship" oneway="0"/>
    <type id="highway.service" priority="1" speed="5.56" allow="pedestrian delivery bicycle" oneway="0"/>
    <type id="highway.stairs" priority="1" speed="1.39" allow="pedestrian" oneway="1" width="2.00"/>
    <type id="highway.step" priority="1" speed="1.39" allow="pedestrian" oneway="1" width="2.00"/>
    <type id="highway.steps" priority="1" speed="1.39" allow="pedestrian" oneway="1" width="2.00"/>
    <type id="highway.tertiary" priority="10" speed="22.22" disallow="pedestrian tram rail_urban rail rail_electric rail_fast ship" oneway="0"/>
    <type id="highway.tertiary_link" priority="5" speed="22.22" disallow="pedestrian tram rail_urban rail rail_electric rail_fast ship" oneway="0"/>
    <type id="highway.track" priority="1" speed="5.56" allow="pedestrian motorcycle moped bicycle" oneway="0"/>
    <type id="highway.trunk" priority="13" speed="27.78" disallow="pedestrian bicycle tram rail_urban rail rail_electric rail_fast ship" oneway="0"/>
    <type id="highway.trunk_link" priority="8" speed="22.22" disallow="pedestrian bicycle tram rail_urban rail rail_electric rail_fast ship" oneway="0"/>
    <type id="highway.unclassified" priority="4" speed="13.89" disallow="pedestrian tram rail_urban rail rail_electric rail_fast ship" oneway="0"/>
    <type id="highway.unsurfaced" priority="1" speed="8.33" disallow="tram rail_urban rail rail_electric rail_fast ship" oneway="0"/>
    <type id="railway.highspeed" priority="21" speed="69.44" allow="rail_fast" oneway="1"/>
    <type id="railway.light_rail" priority="19" speed="27.78" allow="rail_urban" oneway="1"/>
    <type id="railway.preserved" priority="16" speed="27.78" allow="rail" oneway="1"/>
    <type id="railway.rail" priority="20" speed="44.44" allow="rail" oneway="1"/>
    <type id="railway.subway" priority="18" speed="27.78" allow="rail_urban" oneway="1"/>
    <type id="railway.tram" priority="17" speed="13.89" allow="tram" oneway="1"/>

    <edge id=":25_0" function="internal">
        <lane id=":25_0_0" index="0" disallow="pedestrian tram rail_urban rail rail_electric rail_fast ship" speed="36.11" length="29.45" width="3.50" shape="836.30,-505.31 836.96,-500.05 837.26,-494.81 837.22,-488.50 836.82,-482.21 836.12,-475.96"/>
    </edge>
    <edge id=":25_1" function="internal">
        <lane id=":25_1_0" index="0" disallow="pedestrian tram rail_urban rail rail_electric rail_fast ship" speed="13.24" length="28.40" width="3.50" shape="826.14,-500.62 827.21,-499.96 829.20,-498.49 831.03,-496.77 832.62,-494.81 833.94,-492.66 834.97,-490.37 835.71,-487.99 836.19,-485.57 836.44,-483.12 836.45,-479.52 836.12,-475.96"/>
    </edge>
    <edge id=":25_2" function="internal">
        <lane id=":25_2_0" index="0" disallow="pedestrian tram rail_urban rail rail_electric rail_fast ship" speed="12.26" length="24.30" width="3.50" shape="832.65,-476.39 832.95,-479.56 832.95,-482.73 832.75,-484.83 832.36,-486.91 831.75,-488.93 830.91,-490.87 829.82,-492.68 828.50,-494.32 826.98,-495.78 825.28,-497.04 824.38,-497.59"/>
    </edge>
    <edge id=":25_3" function="internal">
        <lane id=":25_3_0" index="0" disallow="pedestrian tram rail_urban rail rail_electric rail_fast ship" speed="36.11" length="28.45" width="3.50" shape="832.65,-476.39 833.34,-482.48 833.72,-488.57 833.76,-494.66 833.47,-499.71 832.85,-504.74"/>
    </edge>
    <edge id=":26_0" function="internal">
        <lane id=":26_0_0" index="0" disallow="pedestrian tram rail_urban rail rail_electric rail_fast ship" speed="6.20" length="10.44" width="3.50" shape="832.81,-504.96 832.61,-505.99 832.31,-506.99 831.89,-507.96 831.29,-508.82 830.47,-509.46 829.48,-509.77 828.43,-509.73 827.42,-509.45 826.46,-509.02 825.58,-508.52"/>
    </edge>
    <edge id=":26_1" function="internal">
        <lane id=":26_1_0" index="0" disallow="pedestrian tram rail_urban rail rail_electric rail_fast ship" speed="36.11" length="26.68" width="3.50" shape="832.81,-504.96 831.32,-513.03 828.86,-524.05 827.13,-531.02"/>
    </edge>
    <edge id=":26_2" function="internal">
        <lane id=":26_2_0" index="0" disallow="pedestrian tram rail_urban rail rail_electric rail_fast ship" speed="36.11" length="27.02" width="3.50" shape="830.51,-531.94 832.27,-524.85 834.76,-513.71 836.26,-505.55"/>
    </edge>
    <edge id=":26_3" function="internal">
        <lane id=":26_3_0" index="0" disallow="pedestrian tram rail_urban rail rail_electric rail_fast ship" speed="12.01" length="25.67" width="3.50" shape="830.51,-531.94 831.05,-529.64 831.65,-526.20 831.94,-522.70 831.90,-520.29 831.61,-517.87 831.00,-515.50 830.53,-514.29 829.96,-513.15 829.28,-512.05 828.49,-511.03 827.59,-510.09 826.61,-509.25 825.58,-508.52"/>
    </edge>
    <edge id=":26_4" function="internal">
        <lane id=":26_4_0" index="0" disallow="pedestrian tram rail_urban rail rail_electric rail_fast ship" speed="10.92" length="21.22" width="3.50" shape="823.71,-511.48 824.52,-512.06 825.28,-512.72 825.97,-513.47 826.56,-514.29 827.07,-515.16 827.48,-516.08 827.82,-517.04 828.26,-519.01 828.44,-521.03 828.43,-523.05 828.14,-526.07 827.60,-529.06 827.13,-531.02"/>
    </edge>
    <edge id=":26_5" function="internal">
        <lane id=":26_5_0" index="0" disallow="pedestrian tram rail_urban rail rail_electric rail_fast ship" speed="7.86" length="17.62" width="3.50" shape="823.71,-511.48 825.07,-512.26 826.57,-512.92 828.26,-513.38 830.17,-513.45 832.11,-512.88 833.71,-511.68 834.80,-510.17 835.50,-508.61 835.96,-507.06 836.26,-505.55"/>
    </edge>
    <edge id=":27_0" function="internal">
        <lane id=":27_0_0" index="0" disallow="pedestrian tram rail_urban rail rail_electric rail_fast ship" speed="12.30" length="22.07" width="3.50" shape="824.16,-497.72 823.31,-498.18 821.40,-498.94 819.43,-499.39 817.40,-499.54 815.35,-499.42 813.29,-499.06 811.24,-498.48 809.24,-497.73 806.28,-496.33 803.42,-494.68"/>
    </edge>
    <edge id=":27_1" function="internal">
        <lane id=":27_1_0" index="0" disallow="pedestrian tram rail_urban rail rail_electric rail_fast ship" speed="7.73" length="17.85" width="3.50" shape="824.16,-497.72 822.69,-498.66 821.26,-499.76 819.92,-501.17 818.90,-503.06 818.66,-505.36 819.38,-507.48 820.62,-509.10 822.02,-510.33 823.46,-511.33"/>
    </edge>
    <edge id=":27_2" function="internal">
        <lane id=":27_2_0" index="0" disallow="pedestrian tram rail_urban rail rail_electric rail_fast ship" speed="6.03" length="10.30" width="3.50" shape="825.33,-508.37 824.39,-507.72 823.53,-506.96 822.83,-506.05 822.47,-504.98 822.63,-503.85 823.23,-502.87 824.03,-502.06 824.95,-501.36 825.92,-500.75"/>
    </edge>
    <edge id=":27_3" function="internal">
        <lane id=":27_3_0" index="0" disallow="pedestrian tram rail_urban rail rail_electric rail_fast ship" speed="36.11" length="25.84" width="3.50" shape="825.33,-508.37 814.39,-501.53 803.42,-494.68"/>
    </edge>
    <edge id=":27_4" function="internal">
        <lane id=":27_4_0" index="0" disallow="pedestrian tram rail_urban rail rail_electric rail_fast ship" speed="36.11" length="25.82" width="3.50" shape="801.57,-497.64 812.53,-504.50 823.46,-511.33"/>
    </edge>
    <edge id=":27_5" function="internal">
        <lane id=":27_5_0" index="0" disallow="pedestrian tram rail_urban rail rail_electric rail_fast ship" speed="13.34" length="25.86" width="3.50" shape="801.57,-497.64 804.79,-499.50 808.13,-501.06 810.44,-501.90 812.82,-502.54 815.25,-502.94 817.71,-503.04 820.16,-502.82 822.55,-502.25 824.83,-501.33 825.92,-500.75"/>
    </edge>

    <edge id="107067" from="23" to="26" priority="3" type="highway.residential" spreadType="center" length="70.00" shape="805.45,-597.08 831.02,-516.06">
        <lane id="107067_0" index="0" disallow="pedestrian tram rail_urban rail rail_electric rail_fast ship" speed="36.11" length="70.00" width="3.50" customShape="1" shape="805.45,-597.08 805.88,-596.24 813.06,-581.11 817.40,-571.37 820.95,-562.40 824.50,-552.35 827.85,-541.69 830.52,-531.88"/>
    </edge>
    <edge id="107068" from="26" to="20" priority="3" type="highway.residential" spreadType="center" length="70.00" shape="827.68,-515.01 801.97,-596.18">
        <lane id="107068_0" index="0" disallow="pedestrian tram rail_urban rail rail_electric rail_fast ship" speed="36.11" length="70.00" width="3.50" customShape="1" shape="827.13,-531.02 824.49,-540.71 821.18,-551.25 817.67,-561.18 814.16,-570.04 809.87,-579.67 802.75,-594.68 801.97,-596.18"/>
    </edge>
    <edge id="107986" from="27" to="25" priority="3" type="highway.residential" spreadType="center" length="0.28" shape="818.04,-503.34 832.30,-494.94">
        <lane id="107986_0" index="0" disallow="pedestrian tram rail_urban rail rail_electric rail_fast ship" speed="36.11" length="0.28" width="3.50" customShape="1" shape="825.92,-500.75 826.03,-500.69 826.16,-500.61"/>
    </edge>
    <edge id="107987" from="25" to="27" priority="3" type="highway.residential" spreadType="center" length="0.26" shape="830.52,-491.92 816.27,-500.35">
        <lane id="107987_0" index="0" disallow="pedestrian tram rail_urban rail rail_electric rail_fast ship" speed="36.11" length="0.26" width="3.50" customShape="1" shape="824.38,-497.59 824.27,-497.66 824.16,-497.72"/>
    </edge>
    <edge id="108275" from="25" to="14" priority="3" type="highway.residential" spreadType="center" length="49.62" shape="833.16,-493.38 829.50,-426.78">
        <lane id="108275_0" index="0" disallow="pedestrian tram rail_urban rail rail_electric rail_fast ship" speed="36.11" length="49.62" width="3.50" customShape="1" shape="836.12,-475.96 832.81,-451.36 829.50,-426.78"/>
    </edge>
    <edge id="108276" from="24" to="25" priority="3" type="highway.residential" spreadType="center" length="49.64" shape="826.03,-427.23 829.67,-493.57">
        <lane id="108276_0" index="0" disallow="pedestrian tram rail_urban rail rail_electric rail_fast ship" speed="36.11" length="49.64" width="3.50" customShape="1" shape="826.03,-427.23 829.34,-451.83 832.66,-476.43"/>
    </edge>
    <edge id="108278" from="26" to="25" priority="3" type="highway.residential" spreadType="center" length="0.28" shape="831.06,-515.87 833.15,-493.59">
        <lane id="108278_0" index="0" disallow="pedestrian tram rail_urban rail rail_electric rail_fast ship" speed="36.11" length="0.28" width="3.50" customShape="1" shape="836.26,-505.55 836.29,-505.39 836.31,-505.27"/>
    </edge>
    <edge id="108279" from="25" to="26" priority="3" type="highway.residential" spreadType="center" length="0.24" shape="829.67,-493.27 827.59,-515.54">
        <lane id="108279_0" index="0" disallow="pedestrian tram rail_urban rail rail_electric rail_fast ship" speed="36.11" length="0.24" width="3.50" customShape="1" shape="832.85,-504.74 832.81,-504.98"/>
    </edge>
    <edge id="108744" from="27" to="26" priority="3" type="highway.residential" spreadType="center" length="0.31" shape="815.89,-502.77 828.02,-516.72">
        <lane id="108744_0" index="0" disallow="pedestrian tram rail_urban rail rail_electric rail_fast ship" speed="36.11" length="0.31" width="3.50" customShape="1" shape="823.46,-511.33 823.59,-511.41 823.72,-511.49"/>
    </edge>
    <edge id="108745" from="26" to="27" priority="3" type="highway.residential" spreadType="center" length="0.30" shape="830.66,-514.42 818.52,-500.48">
        <lane id="108745_0" index="0" disallow="pedestrian tram rail_urban rail rail_electric rail_fast ship" speed="36.11" length="0.30" width="3.50" customShape="1" shape="825.58,-508.52 825.44,-508.44 825.32,-508.37"/>
    </edge>
    <edge id="108747" from="22" to="27" priority="3" type="highway.residential" spreadType="center" length="69.99" shape="742.23,-460.55 816.47,-503.28">
        <lane id="108747_0" index="0" disallow="pedestrian tram rail_urban rail rail_electric rail_fast ship" speed="36.11" length="69.99" width="3.50" customShape="1" shape="742.23,-460.55 749.58,-465.15 801.58,-497.65"/>
    </edge>
    <edge id="108748" from="27" to="10" priority="3" type="highway.residential" spreadType="center" length="70.01" shape="818.22,-500.25 744.06,-457.57">
        <lane id="108748_0" index="0" disallow="pedestrian tram rail_urban rail rail_electric rail_fast ship" speed="36.11" length="70.01" width="3.50" customShape="1" shape="803.42,-494.68 751.44,-462.18 744.06,-457.57"/>
    </edge>

    <junction id="10" type="dead_end" x="744.06" y="-457.57" incLanes="108748_0" intLanes="" shape="744.99,-456.09 743.14,-459.06" rightOfWay="edgePriority"/>
    <junction id="14" type="dead_end" x="829.50" y="-426.78" incLanes="108275_0" intLanes="" shape="831.23,-426.55 827.77,-427.02" rightOfWay="edgePriority"/>
    <junction id="20" type="dead_end" x="801.97" y="-596.18" incLanes="107068_0" intLanes="" shape="800.42,-595.38 803.53,-596.98" rightOfWay="edgePriority"/>
    <junction id="22" type="dead_end" x="742.23" y="-460.55" incLanes="" intLanes="" shape="743.15,-459.07 741.30,-462.03" rightOfWay="edgePriority"/>
    <junction id="23" type="dead_end" x="805.45" y="-597.08" incLanes="" intLanes="" shape="803.89,-596.28 807.00,-597.88" rightOfWay="edgePriority"/>
    <junction id="24" type="dead_end" x="826.03" y="-427.23" incLanes="" intLanes="" shape="827.76,-426.99 824.29,-427.46" rightOfWay="edgePriority"/>
    <junction id="25" type="priority" x="831.41" y="-493.43" incLanes="108278_0 107986_0 108276_0" intLanes=":25_0_0 :25_1_0 :25_2_0 :25_3_0" shape="838.03,-505.60 831.12,-504.46 831.05,-501.88 830.52,-501.27 829.68,-501.11 828.51,-501.40 827.01,-502.14 823.51,-496.08 826.30,-494.04 828.47,-491.53 830.01,-488.53 830.94,-485.06 831.24,-481.10 830.92,-476.66 837.86,-475.73 838.73,-482.06 839.33,-486.78 839.60,-490.69 839.51,-494.60 839.00,-499.30">
        <request index="0" response="0000" foes="0010" cont="0"/>
        <request index="1" response="1001" foes="1001" cont="0"/>
        <request index="2" response="0000" foes="0000" cont="0"/>
        <request index="3" response="0000" foes="0010" cont="0"/>
    </junction>
    <junction id="26" type="priority" x="829.34" y="-515.57" incLanes="108279_0 107067_0 108744_0" intLanes=":26_0_0 :26_1_0 :26_2_0 :26_3_0 :26_4_0 :26_5_0" shape="831.08,-504.70 837.99,-505.84 837.04,-511.55 836.30,-515.77 835.60,-519.23 834.80,-522.67 833.71,-526.81 832.20,-532.40 825.44,-530.56 826.40,-526.28 826.80,-522.55 826.64,-519.34 825.91,-516.68 824.62,-514.55 822.77,-512.96 826.51,-507.04 828.70,-507.85 829.55,-507.65 830.23,-507.06 830.74,-506.08">
        <request index="0" response="000000" foes="001000" cont="0"/>
        <request index="1" response="000000" foes="111000" cont="0"/>
        <request index="2" response="000000" foes="100000" cont="0"/>
        <request index="3" response="000011" foes="100011" cont="0"/>
        <request index="4" response="000010" foes="000010" cont="0"/>
        <request index="5" response="001110" foes="001110" cont="0"/>
    </junction>
    <junction id="27" type="priority" x="817.31" y="-501.75" incLanes="107987_0 108745_0 108747_0" intLanes=":27_0_0 :27_1_0 :27_2_0 :27_3_0 :27_4_0 :27_5_0" shape="823.29,-496.21 826.79,-502.26 824.90,-503.84 824.60,-504.61 824.73,-505.38 825.28,-506.14 826.26,-506.89 822.52,-512.81 800.64,-499.13 804.35,-493.19 808.12,-495.30 811.64,-496.77 814.92,-497.59 817.95,-497.77 820.74,-497.31">
        <request index="0" response="001000" foes="001000" cont="0"/>
        <request index="1" response="111000" foes="111000" cont="0"/>
        <request index="2" response="000000" foes="100000" cont="0"/>
        <request index="3" response="000000" foes="100011" cont="0"/>
        <request index="4" response="000000" foes="000010" cont="0"/>
        <request index="5" response="001100" foes="001110" cont="0"/>
    </junction>

    <connection from="107067" to="108278" fromLane="0" toLane="0" contPos="-4.00" shape="830.52,-531.88 832.27,-524.85 834.76,-513.71 836.26,-505.55" via=":26_2_0" dir="s" state="M"/>
    <connection from="107067" to="108745" fromLane="0" toLane="0" contPos="-4.00" shape="830.52,-531.88 831.05,-529.64 831.65,-526.20 831.94,-522.70 831.90,-520.29 831.61,-517.87 831.00,-515.50 830.53,-514.29 829.96,-513.15 829.28,-512.05 828.49,-511.03 827.59,-510.09 826.61,-509.25 825.58,-508.52" via=":26_3_0" dir="l" state="m"/>
    <connection from="107986" to="108275" fromLane="0" toLane="0" contPos="-4.00" shape="826.16,-500.61 827.21,-499.96 829.20,-498.49 831.03,-496.77 832.62,-494.81 833.94,-492.66 834.97,-490.37 835.71,-487.99 836.19,-485.57 836.44,-483.12 836.45,-479.52 836.12,-475.96" via=":25_1_0" dir="l" state="m"/>
    <connection from="107987" to="108748" fromLane="0" toLane="0" contPos="-4.00" shape="824.16,-497.72 823.31,-498.18 821.40,-498.94 819.43,-499.39 817.40,-499.54 815.35,-499.42 813.29,-499.06 811.24,-498.48 809.24,-497.73 806.28,-496.33 803.42,-494.68" via=":27_0_0" dir="r" state="m"/>
    <connection from="107987" to="108744" fromLane="0" toLane="0" contPos="-4.00" shape="824.16,-497.72 822.69,-498.66 821.26,-499.76 819.92,-501.17 818.90,-503.06 818.66,-505.36 819.38,-507.48 820.62,-509.10 822.02,-510.33 823.46,-511.33" via=":27_1_0" dir="l" state="m"/>
    <connection from="108276" to="107987" fromLane="0" toLane="0" contPos="-4.00" shape="832.65,-476.39 832.95,-479.56 832.95,-482.73 832.75,-484.83 832.36,-486.91 831.75,-488.93 830.91,-490.87 829.82,-492.68 828.50,-494.32 826.98,-495.78 825.28,-497.04 824.38,-497.59" via=":25_2_0" dir="r" state="M"/>
    <connection from="108276" to="108279" fromLane="0" toLane="0" contPos="-4.00" shape="832.65,-476.39 833.34,-482.48 833.72,-488.57 833.76,-494.66 833.47,-499.71 832.85,-504.74" via=":25_3_0" dir="s" state="M"/>
    <connection from="108278" to="108275" fromLane="0" toLane="0" contPos="-4.00" shape="836.31,-505.27 836.96,-500.05 837.26,-494.81 837.22,-488.50 836.82,-482.21 836.12,-475.96" via=":25_0_0" dir="s" state="M"/>
    <connection from="108279" to="108745" fromLane="0" toLane="0" contPos="-4.00" shape="832.81,-504.96 832.61,-505.99 832.31,-506.99 831.89,-507.96 831.29,-508.82 830.47,-509.46 829.48,-509.77 828.43,-509.73 827.42,-509.45 826.46,-509.02 825.58,-508.52" via=":26_0_0" dir="r" state="M"/>
    <connection from="108279" to="107068" fromLane="0" toLane="0" contPos="-4.00" shape="832.81,-504.96 831.32,-513.03 828.86,-524.05 827.13,-531.02" via=":26_1_0" dir="s" state="M"/>
    <connection from="108744" to="107068" fromLane="0" toLane="0" contPos="-4.00" shape="823.72,-511.49 824.52,-512.06 825.28,-512.72 825.97,-513.47 826.56,-514.29 827.07,-515.16 827.48,-516.08 827.82,-517.04 828.26,-519.01 828.44,-521.03 828.43,-523.05 828.14,-526.07 827.60,-529.06 827.13,-531.02" via=":26_4_0" dir="r" state="m"/>
    <connection from="108744" to="108278" fromLane="0" toLane="0" contPos="-4.00" shape="823.72,-511.49 825.07,-512.26 826.57,-512.92 828.26,-513.38 830.17,-513.45 832.11,-512.88 833.71,-511.68 834.80,-510.17 835.50,-508.61 835.96,-507.06 836.26,-505.55" via=":26_5_0" dir="l" state="m"/>
    <connection from="108745" to="107986" fromLane="0" toLane="0" contPos="-4.00" shape="825.33,-508.37 824.39,-507.72 823.53,-506.96 822.83,-506.05 822.47,-504.98 822.63,-503.85 823.23,-502.87 824.03,-502.06 824.95,-501.36 825.92,-500.75" via=":27_2_0" dir="r" state="M"/>
    <connection from="108745" to="108748" fromLane="0" toLane="0" contPos="-4.00" shape="825.33,-508.37 814.39,-501.53 803.42,-494.68" via=":27_3_0" dir="s" state="M"/>
    <connection from="108747" to="108744" fromLane="0" toLane="0" contPos="-4.00" shape="801.58,-497.65 812.53,-504.50 823.46,-511.33" via=":27_4_0" dir="s" state="M"/>
    <connection from="108747" to="107986" fromLane="0" toLane="0" contPos="-4.00" shape="801.58,-497.65 804.79,-499.50 808.13,-501.06 810.44,-501.90 812.82,-502.54 815.25,-502.94 817.71,-503.04 820.16,-502.82 822.55,-502.25 824.83,-501.33 825.92,-500.75" via=":27_5_0" dir="l" state="m"/>

    <connection from=":25_0" to="108275" fromLane="0" toLane="0" dir="s" state="M"/>
    <connection from=":25_1" to="108275" fromLane="0" toLane="0" dir="l" state="M"/>
    <connection from=":25_2" to="107987" fromLane="0" toLane="0" dir="r" state="M"/>
    <connection from=":25_3" to="108279" fromLane="0" toLane="0" dir="s" state="M"/>
    <connection from=":26_0" to="108745" fromLane="0" toLane="0" dir="r" state="M"/>
    <connection from=":26_1" to="107068" fromLane="0" toLane="0" dir="s" state="M"/>
    <connection from=":26_2" to="108278" fromLane="0" toLane="0" dir="s" state="M"/>
    <connection from=":26_3" to="108745" fromLane="0" toLane="0" dir="l" state="M"/>
    <connection from=":26_4" to="107068" fromLane="0" toLane="0" dir="r" state="M"/>
    <connection from=":26_5" to="108278" fromLane="0" toLane="0" dir="l" state="M"/>
    <connection from=":27_0" to="108748" fromLane="0" toLane="0" dir="r" state="M"/>
    <connection from=":27_1" to="108744" fromLane="0" toLane="0" dir="l" state="M"/>
    <connection from=":27_2" to="107986" fromLane="0" toLane="0" dir="r" state="M"/>
    <connection from=":27_3" to="108748" fromLane="0" toLane="0" dir="s" state="M"/>
    <connection from=":27_4" to="108744" fromLane="0" toLane="0" dir="s" state="M"/>
    <connection from=":27_5" to="107986" fromLane="0" toLane="0" dir="l" state="M"/>

</net>