<!-- generated on Tue Feb  9 22:15:10 2021 by Eclipse SUMO netconvert Version 1.8.0
<configuration xmlns:xsi="http://www.w3.org/2001/XMLSchema-instance" xsi:noNamespaceSchemaLocation="http://sumo.dlr.de/xsd/netconvertConfiguration.xsd">

    <input>
        <node-files value="./converted_scenarios/scenario-factory/DEU_Guetersloh-31_3_I-1-1/DEU_Guetersloh-31_3_I-1-1.nod.xml"/>
        <edge-files value="./converted_scenarios/scenario-factory/DEU_Guetersloh-31_3_I-1-1/DEU_Guetersloh-31_3_I-1-1.edg.xml"/>
        <connection-files value="./converted_scenarios/scenario-factory/DEU_Guetersloh-31_3_I-1-1/DEU_Guetersloh-31_3_I-1-1.con.xml"/>
        <tllogic-files value="./converted_scenarios/scenario-factory/DEU_Guetersloh-31_3_I-1-1/DEU_Guetersloh-31_3_I-1-1.tll.xml"/>
        <type-files value="/home/zen/commonroad-interactive-benchmarks/install/commonroad-map-tool/crmapconverter/sumo_map/templates/DEU.typ.xml"/>
    </input>

    <output>
        <output-file value="./converted_scenarios/scenario-factory/DEU_Guetersloh-31_3_I-1-1/DEU_Guetersloh-31_3_I-1-1.net.xml"/>
    </output>

    <processing>
        <geometry.remove.keep-edges.explicit value="true"/>
        <geometry.avoid-overlap value="true"/>
        <offset.disable-normalization value="true"/>
    </processing>

    <junctions>
        <no-turnarounds value="true"/>
        <junctions.internal-link-detail value="20"/>
    </junctions>

    <report>
        <aggregate-warnings value="5"/>
    </report>

    <random_number>
        <seed value="1234"/>
    </random_number>

</configuration>
--><net xmlns:xsi="http://www.w3.org/2001/XMLSchema-instance" version="1.6" junctionCornerDetail="5" junctionLinkDetail="20" limitTurnSpeed="5.50" xsi:noNamespaceSchemaLocation="http://sumo.dlr.de/xsd/net_file.xsd">

    <location netOffset="0.00,0.00" convBoundary="-366.57,-617.62,-175.29,-337.89" origBoundary="-366.57,-617.62,-175.29,-337.89" projParameter="!"/>

    <type id="highway.bridleway" priority="1" speed="2.78" allow="pedestrian" oneway="1" width="2.00"/>
    <type id="highway.bus_guideway" priority="1" speed="27.78" allow="bus" oneway="1"/>
    <type id="highway.cycleway" priority="1" speed="8.33" allow="bicycle" oneway="0" width="1.00"/>
    <type id="highway.footway" priority="1" speed="2.78" allow="pedestrian" oneway="1" width="2.00"/>
    <type id="highway.ford" priority="1" speed="2.78" allow="army" oneway="0"/>
    <type id="highway.living_street" priority="2" speed="2.78" disallow="tram rail_urban rail rail_electric rail_fast ship" oneway="0"/>
    <type id="highway.motorway" priority="14" speed="39.44" allow="private emergency authority army vip passenger hov taxi bus coach delivery truck trailer motorcycle evehicle custom1 custom2" oneway="1"/>
    <type id="highway.motorway_link" priority="9" speed="22.22" allow="private emergency authority army vip passenger hov taxi bus coach delivery truck trailer motorcycle evehicle custom1 custom2" oneway="1"/>
    <type id="highway.path" priority="1" speed="2.78" allow="pedestrian bicycle" oneway="0" width="2.00"/>
    <type id="highway.pedestrian" priority="1" speed="2.78" allow="pedestrian" oneway="1" width="2.00"/>
    <type id="highway.primary" priority="12" speed="27.78" disallow="pedestrian tram rail_urban rail rail_electric rail_fast ship" oneway="0"/>
    <type id="highway.primary_link" priority="7" speed="22.22" disallow="pedestrian tram rail_urban rail rail_electric rail_fast ship" oneway="0"/>
    <type id="highway.raceway" priority="15" speed="83.33" allow="vip" oneway="0"/>
    <type id="highway.residential" priority="3" speed="13.89" disallow="pedestrian tram rail_urban rail rail_electric rail_fast ship" oneway="0"/>
    <type id="highway.secondary" priority="11" speed="27.78" disallow="pedestrian tram rail_urban rail rail_electric rail_fast ship" oneway="0"/>
    <type id="highway.secondary_link" priority="6" speed="22.22" disallow="pedestrian tram rail_urban rail rail_electric rail_fast ship" oneway="0"/>
    <type id="highway.service" priority="1" speed="5.56" allow="pedestrian delivery bicycle" oneway="0"/>
    <type id="highway.stairs" priority="1" speed="1.39" allow="pedestrian" oneway="1" width="2.00"/>
    <type id="highway.step" priority="1" speed="1.39" allow="pedestrian" oneway="1" width="2.00"/>
    <type id="highway.steps" priority="1" speed="1.39" allow="pedestrian" oneway="1" width="2.00"/>
    <type id="highway.tertiary" priority="10" speed="22.22" disallow="pedestrian tram rail_urban rail rail_electric rail_fast ship" oneway="0"/>
    <type id="highway.tertiary_link" priority="5" speed="22.22" disallow="pedestrian tram rail_urban rail rail_electric rail_fast ship" oneway="0"/>
    <type id="highway.track" priority="1" speed="5.56" allow="pedestrian motorcycle moped bicycle" oneway="0"/>
    <type id="highway.trunk" priority="13" speed="27.78" disallow="pedestrian bicycle tram rail_urban rail rail_electric rail_fast ship" oneway="0"/>
    <type id="highway.trunk_link" priority="8" speed="22.22" disallow="pedestrian bicycle tram rail_urban rail rail_electric rail_fast ship" oneway="0"/>
    <type id="highway.unclassified" priority="4" speed="13.89" disallow="pedestrian tram rail_urban rail rail_electric rail_fast ship" oneway="0"/>
    <type id="highway.unsurfaced" priority="1" speed="8.33" disallow="tram rail_urban rail rail_electric rail_fast ship" oneway="0"/>
    <type id="railway.highspeed" priority="21" speed="69.44" allow="rail_fast" oneway="1"/>
    <type id="railway.light_rail" priority="19" speed="27.78" allow="rail_urban" oneway="1"/>
    <type id="railway.preserved" priority="16" speed="27.78" allow="rail" oneway="1"/>
    <type id="railway.rail" priority="20" speed="44.44" allow="rail" oneway="1"/>
    <type id="railway.subway" priority="18" speed="27.78" allow="rail_urban" oneway="1"/>
    <type id="railway.tram" priority="17" speed="13.89" allow="tram" oneway="1"/>

    <edge id=":30_0" function="internal">
        <lane id=":30_0_0" index="0" disallow="pedestrian tram rail_urban rail rail_electric rail_fast ship" speed="36.11" length="3.00" width="3.50" shape="-318.29,-546.10 -318.58,-549.09"/>
    </edge>
    <edge id=":40_0" function="internal">
        <lane id=":40_0_0" index="0" disallow="pedestrian tram rail_urban rail rail_electric rail_fast ship" speed="36.11" length="2.99" width="3.50" shape="-315.10,-549.42 -314.81,-546.44"/>
    </edge>
    <edge id=":47_0" function="internal">
        <lane id=":47_0_0" index="0" disallow="pedestrian tram rail_urban rail rail_electric rail_fast ship" speed="12.24" length="28.88" width="3.50" shape="-301.34,-479.34 -302.46,-482.40 -303.41,-484.32 -304.53,-486.14 -305.85,-487.82 -307.37,-489.32 -309.07,-490.61 -310.94,-491.66 -312.92,-492.45 -314.99,-493.01 -317.10,-493.34 -319.23,-493.47 -322.44,-493.36 -323.47,-493.26"/>
    </edge>
    <edge id=":47_1" function="internal">
        <lane id=":47_1_0" index="0" disallow="pedestrian tram rail_urban rail rail_electric rail_fast ship" speed="36.11" length="40.02" width="3.50" shape="-301.34,-479.34 -307.40,-498.44 -313.45,-517.48"/>
    </edge>
    <edge id=":47_2" function="internal">
        <lane id=":47_2_0" index="0" disallow="pedestrian tram rail_urban rail rail_electric rail_fast ship" speed="36.11" length="39.91" width="3.49" shape="-310.10,-518.51 -304.06,-499.49 -298.03,-480.47"/>
    </edge>
    <edge id=":47_3" function="internal">
        <lane id=":47_3_0" index="0" disallow="pedestrian tram rail_urban rail rail_electric rail_fast ship" speed="11.46" length="34.20" width="3.50" shape="-310.10,-518.51 -309.09,-514.79 -308.61,-512.19 -308.34,-509.54 -308.36,-506.86 -308.52,-505.46 -308.79,-504.09 -309.19,-502.73 -309.73,-501.40 -310.43,-500.13 -311.27,-498.95 -312.25,-497.88 -313.33,-496.93 -314.50,-496.11 -315.72,-495.42 -316.98,-494.84 -318.30,-494.36 -320.87,-493.67 -323.47,-493.26"/>
    </edge>
    <edge id=":47_4" function="internal">
        <lane id=":47_4_0" index="0" disallow="pedestrian tram rail_urban rail rail_electric rail_fast ship" speed="10.39" length="27.93" width="3.50" shape="-323.89,-496.73 -321.70,-497.08 -319.54,-497.66 -318.49,-498.06 -317.48,-498.53 -316.52,-499.10 -315.61,-499.75 -314.78,-500.51 -314.05,-501.35 -313.42,-502.27 -312.91,-503.26 -312.50,-504.31 -312.21,-505.38 -312.01,-506.48 -311.90,-507.60 -311.90,-509.83 -312.14,-512.05 -312.56,-514.25 -313.45,-517.48"/>
    </edge>
    <edge id=":47_5" function="internal">
        <lane id=":47_5_0" index="0" disallow="pedestrian tram rail_urban rail rail_electric rail_fast ship" speed="13.20" length="33.69" width="3.49" shape="-323.89,-496.73 -322.66,-496.85 -319.04,-496.97 -316.56,-496.81 -314.09,-496.43 -311.66,-495.77 -309.31,-494.82 -307.08,-493.56 -305.05,-492.02 -303.25,-490.22 -301.69,-488.23 -300.38,-486.10 -299.28,-483.86 -298.03,-480.47"/>
    </edge>
    <edge id=":48_0" function="internal">
        <lane id=":48_0_0" index="0" disallow="pedestrian tram rail_urban rail rail_electric rail_fast ship" speed="12.05" length="29.21" width="3.50" shape="-252.71,-464.30 -254.86,-464.07 -256.99,-463.65 -259.06,-463.02 -261.05,-462.15 -262.90,-461.03 -264.59,-459.67 -266.06,-458.08 -267.31,-456.30 -268.33,-454.39 -269.14,-452.38 -269.77,-450.31 -270.41,-447.12 -270.66,-445.02"/>
    </edge>
    <edge id=":48_1" function="internal">
        <lane id=":48_1_0" index="0" disallow="pedestrian tram rail_urban rail rail_electric rail_fast ship" speed="26.69" length="38.70" width="3.50" shape="-252.71,-464.30 -264.30,-463.60 -275.93,-463.14 -283.38,-463.11 -287.72,-463.34 -290.01,-463.69 -291.29,-464.08"/>
    </edge>
    <edge id=":48_2" function="internal">
        <lane id=":48_2_0" index="0" disallow="pedestrian tram rail_urban rail rail_electric rail_fast ship" speed="25.80" length="36.73" width="3.50" shape="-289.62,-467.20 -288.91,-467.00 -286.87,-466.73 -282.76,-466.55 -275.55,-466.62 -264.24,-467.10 -252.97,-467.79"/>
    </edge>
    <edge id=":48_3" function="internal">
        <lane id=":48_3_0" index="0" disallow="pedestrian tram rail_urban rail rail_electric rail_fast ship" speed="13.91" length="31.10" width="3.50" shape="-289.64,-467.16 -285.76,-465.23 -282.73,-463.48 -279.82,-461.51 -277.07,-459.26 -275.36,-457.55 -273.81,-455.65 -272.49,-453.56 -271.46,-451.26 -270.82,-448.83 -270.65,-447.49 -270.66,-445.02"/>
    </edge>
    <edge id=":48_4" function="internal">
        <lane id=":48_4_0" index="0" disallow="pedestrian tram rail_urban rail rail_electric rail_fast ship" speed="12.96" length="27.04" width="3.50" shape="-274.15,-445.31 -274.15,-447.37 -274.30,-448.41 -274.87,-450.41 -275.78,-452.29 -276.95,-454.02 -278.31,-455.60 -279.82,-457.04 -282.28,-458.98 -284.89,-460.71 -287.61,-462.26 -291.29,-464.08"/>
    </edge>
    <edge id=":48_5" function="internal">
        <lane id=":48_5_0" index="0" disallow="pedestrian tram rail_urban rail rail_electric rail_fast ship" speed="13.01" length="34.20" width="3.50" shape="-274.15,-445.31 -273.85,-447.74 -273.12,-451.36 -272.39,-453.77 -271.43,-456.11 -270.21,-458.35 -268.71,-460.45 -266.94,-462.34 -264.91,-463.97 -262.69,-465.29 -260.33,-466.31 -257.90,-467.05 -255.42,-467.53 -252.97,-467.79"/>
    </edge>
    <edge id=":49_0" function="internal">
        <lane id=":49_0_0" index="0" disallow="pedestrian tram rail_urban rail rail_electric rail_fast ship" speed="11.07" length="29.30" width="3.50" shape="-280.05,-383.34 -279.87,-386.89 -280.00,-389.18 -280.36,-391.41 -281.01,-393.57 -281.43,-394.54 -281.95,-395.50 -282.54,-396.39 -283.21,-397.22 -283.96,-397.98 -284.78,-398.68 -285.67,-399.30 -286.59,-399.83 -288.66,-400.74 -290.84,-401.38 -293.10,-401.80 -296.62,-402.10"/>
    </edge>
    <edge id=":49_1" function="internal">
        <lane id=":49_1_0" index="0" disallow="pedestrian tram rail_urban rail rail_electric rail_fast ship" speed="36.11" length="38.64" width="3.50" shape="-280.05,-383.34 -278.19,-402.58 -276.33,-421.80"/>
    </edge>
    <edge id=":49_2" function="internal">
        <lane id=":49_2_0" index="0" disallow="pedestrian tram rail_urban rail rail_electric rail_fast ship" speed="36.11" length="38.63" width="3.50" shape="-272.84,-421.47 -274.70,-402.25 -276.56,-383.02"/>
    </edge>
    <edge id=":49_3" function="internal">
        <lane id=":49_3_0" index="0" disallow="pedestrian tram rail_urban rail rail_electric rail_fast ship" speed="12.51" length="34.63" width="3.50" shape="-272.84,-421.47 -272.98,-420.21 -273.41,-417.75 -274.07,-415.29 -275.01,-412.89 -276.26,-410.60 -277.83,-408.52 -278.76,-407.54 -279.75,-406.66 -280.84,-405.85 -283.06,-404.53 -285.46,-403.53 -287.92,-402.82 -290.41,-402.37 -292.91,-402.14 -296.62,-402.10"/>
    </edge>
    <edge id=":49_4" function="internal">
        <lane id=":49_4_0" index="0" disallow="pedestrian tram rail_urban rail rail_electric rail_fast ship" speed="11.53" length="29.28" width="3.50" shape="-296.50,-405.60 -293.25,-405.63 -291.09,-405.83 -288.95,-406.21 -286.86,-406.79 -284.86,-407.62 -282.99,-408.71 -282.12,-409.36 -281.30,-410.08 -280.55,-410.85 -279.23,-412.57 -278.18,-414.47 -277.38,-416.49 -276.82,-418.58 -276.45,-420.72 -276.33,-421.80"/>
    </edge>
    <edge id=":49_5" function="internal">
        <lane id=":49_5_0" index="0" disallow="pedestrian tram rail_urban rail rail_electric rail_fast ship" speed="12.07" length="35.11" width="3.50" shape="-296.50,-405.60 -292.46,-405.25 -289.81,-404.76 -287.22,-404.00 -284.75,-402.91 -283.58,-402.23 -282.47,-401.46 -281.44,-400.59 -280.49,-399.62 -279.64,-398.57 -278.90,-397.45 -278.26,-396.26 -277.72,-395.02 -276.95,-392.43 -276.52,-389.76 -276.37,-387.07 -276.56,-383.02"/>
    </edge>
    <edge id=":50_0" function="internal">
        <lane id=":50_0_0" index="0" disallow="pedestrian tram rail_urban rail rail_electric rail_fast ship" speed="10.51" length="20.87" width="3.50" shape="-184.74,-463.76 -185.88,-464.60 -187.70,-465.62 -189.64,-466.44 -191.66,-467.07 -194.85,-467.72 -198.11,-468.04 -201.41,-468.10 -204.72,-467.94"/>
    </edge>
    <edge id=":50_1" function="internal">
        <lane id=":50_1_0" index="0" disallow="pedestrian tram rail_urban rail rail_electric rail_fast ship" speed="36.11" length="29.17" width="3.50" shape="-181.92,-464.72 -185.23,-474.53 -191.63,-492.23"/>
    </edge>
    <edge id=":50_2" function="internal">
        <lane id=":50_2_0" index="0" disallow="pedestrian tram rail_urban rail rail_electric rail_fast ship" speed="36.11" length="29.25" width="3.50" shape="-188.34,-493.42 -178.60,-465.84"/>
    </edge>
    <edge id=":50_3" function="internal">
        <lane id=":50_3_0" index="0" disallow="pedestrian tram rail_urban rail rail_electric rail_fast ship" speed="11.59" length="37.42" width="3.50" shape="-188.36,-493.46 -187.11,-489.53 -186.51,-486.78 -186.21,-483.99 -186.20,-482.52 -186.31,-481.06 -186.56,-479.59 -186.96,-478.14 -187.54,-476.73 -188.28,-475.39 -189.20,-474.16 -190.24,-473.05 -191.40,-472.09 -192.63,-471.26 -193.91,-470.55 -195.26,-469.95 -197.92,-469.06 -200.65,-468.45 -204.72,-467.94"/>
    </edge>
    <edge id=":50_4" function="internal">
        <lane id=":50_4_0" index="0" disallow="pedestrian tram rail_urban rail rail_electric rail_fast ship" speed="10.54" length="30.71" width="3.50" shape="-205.00,-471.43 -201.49,-471.87 -199.18,-472.38 -196.94,-473.13 -195.86,-473.62 -194.83,-474.18 -193.85,-474.84 -192.94,-475.60 -192.12,-476.45 -191.42,-477.40 -190.84,-478.43 -190.40,-479.53 -190.08,-480.67 -189.89,-481.83 -189.80,-483.01 -189.81,-484.19 -190.06,-486.54 -190.56,-488.85 -191.63,-492.23"/>
    </edge>
    <edge id=":50_5" function="internal">
        <lane id=":50_5_0" index="0" disallow="pedestrian tram rail_urban rail rail_electric rail_fast ship" speed="18.69" length="21.30" width="3.50" shape="-204.99,-471.43 -204.15,-471.47 -203.22,-471.48 -202.20,-471.47 -201.11,-471.42 -199.96,-471.34 -198.76,-471.23 -197.52,-471.10 -196.26,-470.93 -194.99,-470.75 -193.72,-470.54 -192.46,-470.30 -191.22,-470.04 -190.01,-469.77 -188.86,-469.47 -187.76,-469.15 -186.73,-468.81 -185.79,-468.46 -184.94,-468.08 -184.20,-467.70"/>
    </edge>
    <edge id=":52_0" function="internal">
        <lane id=":52_0_0" index="0" disallow="pedestrian tram rail_urban rail rail_electric rail_fast ship" speed="36.11" length="6.10" width="3.50" shape="-321.71,-493.47 -322.16,-493.41 -322.57,-493.37 -322.94,-493.32 -323.27,-493.29 -323.58,-493.25 -323.86,-493.21 -324.12,-493.18 -324.37,-493.15 -324.62,-493.11 -324.85,-493.07 -325.09,-493.02 -325.34,-492.97 -325.60,-492.92 -325.88,-492.85 -326.17,-492.78 -326.50,-492.69 -326.86,-492.59 -327.26,-492.49 -327.70,-492.36"/>
    </edge>
    <edge id=":52_1" function="internal">
        <lane id=":52_1_0" index="0" disallow="pedestrian tram rail_urban rail rail_electric rail_fast ship" speed="36.11" length="6.09" width="3.50" shape="-321.71,-493.47 -322.16,-493.41 -322.57,-493.36 -322.93,-493.31 -323.27,-493.27 -323.57,-493.23 -323.85,-493.19 -324.12,-493.16 -324.37,-493.13 -324.61,-493.11 -324.85,-493.08 -325.09,-493.06 -325.34,-493.04 -325.61,-493.03 -325.89,-493.01 -326.20,-493.00 -326.53,-492.99 -326.90,-492.98 -327.31,-492.98 -327.77,-492.98"/>
    </edge>
    <edge id=":52_2" function="internal">
        <lane id=":52_2_0" index="0" disallow="pedestrian tram rail_urban rail rail_electric rail_fast ship" speed="8.87" length="18.81" width="3.50" shape="-338.57,-504.22 -338.48,-503.10 -338.29,-502.05 -337.98,-501.05 -337.54,-500.15 -336.98,-499.33 -336.28,-498.62 -335.46,-498.02 -334.53,-497.53 -333.52,-497.15 -332.45,-496.86 -331.35,-496.66 -328.98,-496.46 -326.58,-496.49 -324.16,-496.70"/>
    </edge>
    <edge id=":52_3" function="internal">
        <lane id=":52_3_0" index="0" disallow="pedestrian tram rail_urban rail rail_electric rail_fast ship" speed="36.11" length="0.19" width="3.50" shape="-338.32,-496.51 -338.32,-496.49 -338.31,-496.48 -338.31,-496.47 -338.31,-496.46 -338.31,-496.46 -338.31,-496.45 -338.31,-496.44 -338.30,-496.43 -338.30,-496.43 -338.30,-496.42 -338.30,-496.41 -338.29,-496.41 -338.29,-496.40 -338.29,-496.39 -338.29,-496.38 -338.29,-496.37 -338.29,-496.36 -338.29,-496.35 -338.28,-496.34"/>
    </edge>
    <edge id=":52_4" function="internal">
        <lane id=":52_4_0" index="0" disallow="pedestrian tram rail_urban rail rail_electric rail_fast ship" speed="36.11" length="9.03" width="3.50" shape="-341.39,-485.54 -341.72,-494.56"/>
    </edge>
    <edge id=":52_5" function="internal">
        <lane id=":52_5_0" index="0" disallow="pedestrian tram rail_urban rail rail_electric rail_fast ship" speed="9.87" length="20.57" width="3.50" shape="-339.63,-485.05 -339.46,-485.61 -338.38,-488.00 -337.67,-489.18 -336.88,-490.28 -335.99,-491.31 -335.02,-492.26 -333.96,-493.12 -332.85,-493.88 -331.65,-494.55 -329.23,-495.57 -326.71,-496.28 -324.16,-496.70"/>
    </edge>

    <edge id="76915" from="21" to="52" priority="3" type="highway.residential" spreadType="center" length="17.56">
        <lane id="76915_0" index="0" disallow="pedestrian tram rail_urban rail rail_electric rail_fast ship" speed="36.11" length="17.56" width="3.50" customShape="1" shape="-340.77,-467.99 -340.95,-472.99 -340.97,-473.62 -341.39,-485.54"/>
    </edge>
    <edge id="76917" from="28" to="52" priority="3" type="highway.residential" spreadType="center" length="12.94">
        <lane id="76917_0" index="0" disallow="pedestrian tram rail_urban rail rail_electric rail_fast ship" speed="36.11" length="12.94" width="3.50" customShape="1" shape="-338.76,-509.44 -338.58,-504.44 -338.32,-496.51"/>
    </edge>
    <edge id="76932" from="49" to="26" priority="3" type="highway.residential" spreadType="center" length="70.00" shape="-283.19,-401.14 -366.57,-404.87">
        <lane id="76932_0" index="0" disallow="pedestrian tram rail_urban rail rail_electric rail_fast ship" speed="36.11" length="70.00" width="3.50" customShape="1" shape="-296.62,-402.10 -366.57,-404.87"/>
    </edge>
    <edge id="76933" from="29" to="49" priority="3" type="highway.residential" spreadType="center" length="70.00" shape="-366.44,-408.37 -283.04,-404.63">
        <lane id="76933_0" index="0" disallow="pedestrian tram rail_urban rail rail_electric rail_fast ship" speed="36.11" length="70.00" width="3.50" customShape="1" shape="-366.44,-408.37 -296.49,-405.60"/>
    </edge>
    <edge id="76992" from="50" to="48" priority="3" type="highway.residential" spreadType="center" length="48.13" shape="-193.26,-474.24 -271.57,-457.25">
        <lane id="76992_0" index="0" disallow="pedestrian tram rail_urban rail rail_electric rail_fast ship" speed="36.11" length="48.13" width="3.50" customShape="1" shape="-204.72,-467.94 -230.48,-465.91 -252.71,-464.30"/>
    </edge>
    <edge id="76993" from="48" to="50" priority="3" type="highway.residential" spreadType="center" length="48.12" shape="-272.31,-460.67 -194.00,-477.66">
        <lane id="76993_0" index="0" disallow="pedestrian tram rail_urban rail rail_electric rail_fast ship" speed="36.11" length="48.12" width="3.50" customShape="1" shape="-252.97,-467.79 -230.74,-469.40 -204.99,-471.43"/>
    </edge>
    <edge id="77188" from="47" to="52" priority="3" type="highway.residential" spreadType="center" length="0.20" shape="-311.25,-495.95 -331.55,-490.38">
        <lane id="77188_0" index="0" disallow="pedestrian tram rail_urban rail rail_electric rail_fast ship" speed="36.11" length="0.20" width="3.50" customShape="1" shape="-321.51,-493.49 -321.71,-493.47"/>
    </edge>
    <edge id="77189" from="52" to="47" priority="3" type="highway.residential" spreadType="center" length="0.27" shape="-332.47,-493.75 -312.18,-499.33">
        <lane id="77189_0" index="0" disallow="pedestrian tram rail_urban rail rail_electric rail_fast ship" speed="36.11" length="0.27" width="3.50" customShape="1" shape="-324.16,-496.70 -324.03,-496.71 -323.89,-496.73"/>
    </edge>
    <edge id="77238" from="49" to="27" priority="3" type="highway.residential" spreadType="center" length="45.36" shape="-281.40,-402.94 -281.11,-337.89">
        <lane id="77238_0" index="0" disallow="pedestrian tram rail_urban rail rail_electric rail_fast ship" speed="36.11" length="45.36" width="3.50" customShape="1" shape="-276.56,-383.02 -278.84,-360.45 -281.11,-337.89"/>
    </edge>
    <edge id="77239" from="32" to="49" priority="3" type="highway.residential" spreadType="center" length="45.37" shape="-284.59,-338.23 -284.90,-402.92">
        <lane id="77239_0" index="0" disallow="pedestrian tram rail_urban rail rail_electric rail_fast ship" speed="36.11" length="45.37" width="3.50" customShape="1" shape="-284.59,-338.23 -282.32,-360.80 -280.05,-383.37"/>
    </edge>
    <edge id="77241" from="48" to="49" priority="3" type="highway.residential" spreadType="center" length="23.66" shape="-270.22,-458.62 -281.45,-402.49">
        <lane id="77241_0" index="0" disallow="pedestrian tram rail_urban rail rail_electric rail_fast ship" speed="36.11" length="23.66" width="3.50" customShape="1" shape="-270.66,-445.02 -271.75,-433.22 -272.84,-421.46"/>
    </edge>
    <edge id="77242" from="49" to="48" priority="3" type="highway.residential" spreadType="center" length="23.64" shape="-284.88,-403.18 -273.65,-459.30">
        <lane id="77242_0" index="0" disallow="pedestrian tram rail_urban rail rail_electric rail_fast ship" speed="36.11" length="23.64" width="3.50" customShape="1" shape="-276.33,-421.80 -275.24,-433.54 -274.15,-445.34"/>
    </edge>
    <edge id="77381" from="30" to="31" priority="3" type="highway.residential" spreadType="center" length="68.49">
        <lane id="77381_0" index="0" disallow="pedestrian tram rail_urban rail rail_electric rail_fast ship" speed="36.11" length="68.49" width="3.50" customShape="1" shape="-318.58,-549.09 -322.98,-596.34 -324.93,-617.29"/>
    </edge>
    <edge id="77382" from="41" to="40" priority="3" type="highway.residential" spreadType="center" length="68.49">
        <lane id="77382_0" index="0" disallow="pedestrian tram rail_urban rail rail_electric rail_fast ship" speed="36.11" length="68.49" width="3.50" customShape="1" shape="-321.45,-617.62 -319.50,-596.66 -315.10,-549.42"/>
    </edge>
    <edge id="77457" from="40" to="47" priority="3" type="highway.residential" spreadType="center" length="28.38" shape="-314.96,-547.93 -309.97,-497.75">
        <lane id="77457_0" index="0" disallow="pedestrian tram rail_urban rail rail_electric rail_fast ship" speed="36.11" length="28.38" width="3.50" customShape="1" shape="-314.81,-546.44 -314.21,-540.60 -312.99,-531.25 -311.89,-525.11 -310.89,-521.11 -310.51,-519.84 -310.10,-518.51"/>
    </edge>
    <edge id="77459" from="48" to="47" priority="3" type="highway.residential" spreadType="center" length="18.82" shape="-273.12,-457.67 -312.94,-496.39">
        <lane id="77459_0" index="0" disallow="pedestrian tram rail_urban rail rail_electric rail_fast ship" speed="36.11" length="18.82" width="3.50" customShape="1" shape="-291.29,-464.08 -292.86,-464.92 -294.20,-465.97 -295.35,-467.22 -296.99,-469.54 -298.67,-472.51 -300.05,-475.63 -301.35,-479.39"/>
    </edge>
    <edge id="77460" from="47" to="48" priority="3" type="highway.residential" spreadType="center" length="16.15" shape="-310.50,-498.89 -270.68,-460.17">
        <lane id="77460_0" index="0" disallow="pedestrian tram rail_urban rail rail_electric rail_fast ship" speed="36.11" length="16.15" width="3.49" customShape="1" shape="-298.03,-480.47 -296.86,-477.07 -295.66,-474.32 -294.22,-471.72 -292.83,-469.69 -291.99,-468.70 -291.04,-467.91 -289.64,-467.16"/>
    </edge>
    <edge id="77548" from="50" to="33" priority="3" type="highway.residential" spreadType="center" length="33.09" shape="-195.38,-475.59 -203.28,-523.20">
        <lane id="77548_0" index="0" disallow="pedestrian tram rail_urban rail rail_electric rail_fast ship" speed="36.11" length="33.09" width="3.50" customShape="1" shape="-191.63,-492.23 -197.45,-507.70 -203.28,-523.20"/>
    </edge>
    <edge id="77549" from="36" to="50" priority="3" type="highway.residential" spreadType="center" length="33.12" shape="-200.00,-524.42 -191.93,-476.17">
        <lane id="77549_0" index="0" disallow="pedestrian tram rail_urban rail rail_electric rail_fast ship" speed="36.11" length="33.12" width="3.50" customShape="1" shape="-200.00,-524.42 -194.18,-508.93 -188.34,-493.42"/>
    </edge>
    <edge id="77551" from="37" to="50" priority="3" type="highway.residential" spreadType="center" length="15.77" shape="-177.06,-449.71 -195.12,-475.02">
        <lane id="77551_0" index="0" disallow="pedestrian tram rail_urban rail rail_electric rail_fast ship" speed="36.11" length="15.77" width="3.45" customShape="1" shape="-177.06,-449.71 -178.55,-454.48 -181.75,-464.77"/>
    </edge>
    <edge id="80277" from="47" to="30" priority="3" type="highway.residential" spreadType="center" length="29.08" shape="-313.45,-497.41 -318.44,-547.59">
        <lane id="80277_0" index="0" disallow="pedestrian tram rail_urban rail rail_electric rail_fast ship" speed="36.11" length="29.08" width="3.50" customShape="1" shape="-313.45,-517.48 -313.85,-518.82 -314.26,-520.14 -315.29,-524.30 -316.43,-530.61 -317.68,-540.15 -318.29,-546.10"/>
    </edge>
    <edge id="80795" from="50" to="51" priority="3" type="highway.residential" spreadType="center" length="10.61" shape="-192.37,-477.12 -175.29,-455.76">
        <lane id="80795_0" index="0" disallow="pedestrian tram rail_urban rail rail_electric rail_fast ship" speed="36.11" length="10.61" width="3.50" customShape="1" shape="-178.60,-465.84 -176.89,-460.76 -175.29,-455.76"/>
    </edge>
    <edge id="80941" from="52" to="53" priority="3" type="highway.residential" spreadType="center" length="7.12">
        <lane id="80941_0" index="0" disallow="pedestrian tram rail_urban rail rail_electric rail_fast ship" speed="36.11" length="7.12" width="3.50" customShape="1" shape="-327.70,-492.36 -328.01,-492.27 -334.25,-489.57"/>
    </edge>
    <edge id="80943" from="52" to="53" priority="3" type="highway.residential" spreadType="center" length="10.44">
        <lane id="80943_0" index="0" disallow="pedestrian tram rail_urban rail rail_electric rail_fast ship" speed="36.11" length="10.44" width="3.50" customShape="1" shape="-327.77,-492.98 -329.54,-492.96 -332.43,-493.25 -333.85,-493.54 -335.24,-493.96 -336.57,-494.53 -337.79,-495.25"/>
    </edge>
    <edge id="82493" from="52" to="53" priority="3" type="highway.residential" spreadType="center" length="4.32">
        <lane id="82493_0" index="0" disallow="pedestrian tram rail_urban rail rail_electric rail_fast ship" speed="36.11" length="4.32" width="3.50" customShape="1" shape="-338.28,-496.34 -338.13,-492.02"/>
    </edge>
    <edge id="82616" from="50" to="51" priority="3" type="highway.residential" spreadType="center" length="15.23">
        <lane id="82616_0" index="0" disallow="pedestrian tram rail_urban rail rail_electric rail_fast ship" speed="36.11" length="15.23" width="3.50" customShape="1" shape="-184.20,-467.70 -183.73,-467.42 -181.77,-465.96 -180.01,-464.25 -178.48,-462.35 -177.19,-460.27 -176.13,-458.06 -175.29,-455.76"/>
    </edge>
    <edge id="82721" from="52" to="53" priority="3" type="highway.residential" spreadType="center" length="0.20">
        <lane id="82721_0" index="0" disallow="pedestrian tram rail_urban rail rail_electric rail_fast ship" speed="36.11" length="0.20" width="3.50" customShape="1" shape="-341.72,-494.56 -341.73,-494.76"/>
    </edge>

    <junction id="21" type="dead_end" x="-340.77" y="-467.99" incLanes="" intLanes="" shape="-339.02,-468.06 -342.52,-467.93" rightOfWay="edgePriority"/>
    <junction id="26" type="dead_end" x="-366.57" y="-404.87" incLanes="76932_0" intLanes="" shape="-366.64,-403.13 -366.50,-406.62" rightOfWay="edgePriority"/>
    <junction id="27" type="dead_end" x="-281.11" y="-337.89" incLanes="77238_0" intLanes="" shape="-279.37,-337.71 -282.85,-338.06" rightOfWay="edgePriority"/>