<?xml version="1.0" encoding="UTF-8"?>

<!-- generated on Fri Dec 18 15:38:48 2020 by Eclipse SUMO netconvert Version 1.8.0
<configuration xmlns:xsi="http://www.w3.org/2001/XMLSchema-instance" xsi:noNamespaceSchemaLocation="http://sumo.dlr.de/xsd/netconvertConfiguration.xsd">

    <input>
        <node-files value="./converted_scenarios/hand-crafted/DEU_Ffb-1_3_I-1-1/nodes.net.xml"/>
        <edge-files value="./converted_scenarios/hand-crafted/DEU_Ffb-1_3_I-1-1/edges.net.xml"/>
        <connection-files value="./converted_scenarios/hand-crafted/DEU_Ffb-1_3_I-1-1/_connections.net.xml"/>
        <tllogic-files value="./converted_scenarios/hand-crafted/DEU_Ffb-1_3_I-1-1/_tll.net.xml"/>
    </input>

    <output>
        <output-file value="./converted_scenarios/hand-crafted/DEU_Ffb-1_3_I-1-1/DEU_Ffb-1_3_I-1-1.net.xml"/>
    </output>

    <processing>
        <plain.extend-edge-shape value="true"/>
        <geometry.remove.keep-edges.explicit value="true"/>
        <geometry.avoid-overlap value="true"/>
        <offset.disable-normalization value="true"/>
    </processing>

    <junctions>
        <no-turnarounds value="true"/>
        <junctions.internal-link-detail value="20"/>
    </junctions>

    <report>
        <aggregate-warnings value="5"/>
    </report>

    <random_number>
        <seed value="1234"/>
    </random_number>

</configuration>
-->

<net version="1.6" junctionCornerDetail="5" junctionLinkDetail="20" limitTurnSpeed="5.50" xmlns:xsi="http://www.w3.org/2001/XMLSchema-instance" xsi:noNamespaceSchemaLocation="http://sumo.dlr.de/xsd/net_file.xsd">

    <location netOffset="0.00,0.00" convBoundary="-86.83,-186.12,197.25,129.45" origBoundary="-86.83,-186.12,197.25,129.45" projParameter="!"/>

    <edge id=":12_0" function="internal">
        <lane id=":12_0_0" index="0" disallow="bus truck rail_fast" speed="9.63" length="12.20" width="3.45" shape="84.30,8.63 83.12,8.77 82.01,8.90 80.95,9.03 79.96,9.16 79.03,9.28 78.15,9.41 77.34,9.53 76.60,9.65 75.91,9.77 75.28,9.89 74.72,10.01 74.21,10.12 73.77,10.23 73.38,10.34 73.06,10.45 72.80,10.56 72.60,10.66 72.47,10.77 72.39,10.87"/>
    </edge>
    <edge id=":12_1" function="internal">
        <lane id=":12_1_0" index="0" disallow="rail_fast" speed="36.11" length="14.42" width="4.34" shape="84.30,8.63 83.52,8.72 82.74,8.78 81.98,8.84 81.22,8.88 80.46,8.91 79.71,8.92 78.96,8.93 78.22,8.92 77.48,8.90 76.73,8.87 75.99,8.83 75.25,8.78 74.50,8.72 73.75,8.65 73.00,8.58 72.24,8.49 71.48,8.39 70.71,8.29 69.93,8.17"/>
    </edge>
    <edge id=":12_2" function="internal">
        <lane id=":12_2_0" index="0" disallow="bus truck rail_fast" speed="11.44" length="14.82" width="3.50" shape="84.30,8.63 83.46,8.71 82.63,8.75 81.82,8.76 81.02,8.73 80.24,8.66 79.47,8.56 78.72,8.42 77.98,8.25 77.25,8.04 76.54,7.79 75.85,7.51 75.17,7.19 74.50,6.84 73.85,6.45 73.21,6.02 72.59,5.56 71.98,5.07 71.39,4.54 70.81,3.97"/>
    </edge>
    <edge id=":13_0" function="internal">
        <lane id=":13_0_0" index="0" disallow="bus truck rail_fast" speed="23.07" length="12.19" width="3.07" shape="72.30,11.05 71.99,11.75 71.70,12.41 71.43,13.05 71.19,13.66 70.98,14.25 70.78,14.82 70.61,15.38 70.46,15.94 70.32,16.49 70.20,17.04 70.09,17.60 70.00,18.17 69.92,18.76 69.85,19.36 69.79,19.99 69.74,20.65 69.70,21.33 69.65,22.06 69.62,22.83"/>
    </edge>
    <edge id=":13_1" function="internal">
        <lane id=":13_1_0" index="0" disallow="rail_fast" speed="36.11" length="17.88" width="3.07" shape="71.12,5.01 69.62,22.83"/>
    </edge>
    <edge id=":13_2" function="internal">
        <lane id=":13_2_0" index="0" disallow="bus truck rail_fast" speed="16.91" length="16.82" width="3.07" shape="67.38,6.37 67.77,7.07 68.11,7.81 68.42,8.59 68.68,9.41 68.91,10.26 69.11,11.13 69.27,12.03 69.41,12.94 69.51,13.86 69.60,14.80 69.66,15.73 69.70,16.67 69.72,17.60 69.73,18.52 69.72,19.43 69.71,20.32 69.68,21.18 69.65,22.02 69.62,22.83"/>
    </edge>
    <edge id=":16_0" function="internal">
        <lane id=":16_0_0" index="0" disallow="bus truck rail_fast" speed="9.27" length="13.07" width="3.02" shape="66.47,20.94 66.52,19.83 66.54,18.77 66.54,17.76 66.53,16.81 66.49,15.90 66.43,15.05 66.36,14.24 66.26,13.49 66.15,12.79 66.02,12.14 65.86,11.54 65.69,11.00 65.50,10.50 65.28,10.06 65.05,9.66 64.80,9.32 64.53,9.03 64.24,8.78 63.93,8.59"/>
    </edge>
    <edge id=":16_1" function="internal">
        <lane id=":16_1_0" index="0" disallow="rail_fast" speed="36.11" length="15.94" width="3.02" shape="66.47,20.94 67.29,5.01"/>
    </edge>
    <edge id=":16_2" function="internal">
        <lane id=":16_2_0" index="0" disallow="bus truck rail_fast" speed="11.34" length="15.14" width="3.02" shape="66.47,20.94 66.54,19.69 66.62,18.50 66.72,17.37 66.83,16.29 66.95,15.27 67.09,14.30 67.25,13.38 67.42,12.52 67.61,11.72 67.81,10.97 68.02,10.27 68.26,9.63 68.50,9.04 68.76,8.51 69.04,8.03 69.33,7.61 69.64,7.24 69.96,6.92 70.29,6.66"/>
    </edge>
    <edge id=":2_0" function="internal">
        <lane id=":2_0_0" index="0" disallow="bus truck rail_fast" speed="8.61" length="13.43" width="3.50" shape="54.97,0.33 56.04,0.34 57.06,0.33 58.02,0.28 58.94,0.21 59.81,0.12 60.62,-0.01 61.39,-0.16 62.10,-0.34 62.77,-0.55 63.38,-0.79 63.95,-1.06 64.46,-1.35 64.92,-1.67 65.34,-2.02 65.70,-2.40 66.01,-2.80 66.27,-3.24 66.48,-3.70 66.64,-4.19"/>
    </edge>
    <edge id=":2_1" function="internal">
        <lane id=":2_1_0" index="0" disallow="rail_fast" speed="36.11" length="14.12" width="4.82" shape="54.97,0.33 55.75,0.35 56.52,0.39 57.28,0.44 58.02,0.51 58.76,0.58 59.48,0.66 60.20,0.75 60.92,0.84 61.64,0.94 62.35,1.05 63.06,1.16 63.78,1.28 64.50,1.39 65.22,1.51 65.95,1.63 66.69,1.75 67.44,1.86 68.20,1.97 68.98,2.08"/>
    </edge>
    <edge id=":2_2" function="internal">
        <lane id=":2_2_0" index="0" disallow="bus truck rail_fast" speed="10.55" length="14.26" width="3.45" shape="54.97,0.33 55.89,0.37 56.78,0.43 57.64,0.53 58.47,0.66 59.27,0.82 60.04,1.01 60.78,1.23 61.49,1.48 62.16,1.76 62.81,2.07 63.43,2.41 64.02,2.77 64.57,3.17 65.10,3.60 65.60,4.06 66.06,4.55 66.50,5.07 66.90,5.62 67.28,6.20"/>
    </edge>
    <edge id=":3_0" function="internal">
        <lane id=":3_0_0" index="0" disallow="bus truck rail_fast" speed="19.47" length="8.89" width="3.58" shape="63.75,8.50 63.17,8.20 62.64,7.91 62.17,7.64 61.74,7.40 61.34,7.17 60.98,6.95 60.64,6.76 60.31,6.58 59.99,6.41 59.67,6.26 59.34,6.12 58.99,5.99 58.63,5.88 58.23,5.78 57.80,5.68 57.32,5.60 56.79,5.52 56.20,5.46 55.55,5.40"/>
    </edge>
    <edge id=":3_1" function="internal">
        <lane id=":3_1_0" index="0" disallow="rail_fast" speed="36.11" length="12.72" width="3.58" shape="68.02,7.89 55.55,5.40"/>
    </edge>
    <edge id=":3_2" function="internal">
        <lane id=":3_2_0" index="0" disallow="bus truck rail_fast" speed="10.34" length="13.85" width="3.58" shape="68.36,1.88 68.01,2.32 67.61,2.73 67.18,3.12 66.72,3.47 66.22,3.80 65.69,4.10 65.12,4.36 64.52,4.61 63.88,4.82 63.20,5.00 62.49,5.16 61.75,5.29 60.97,5.39 60.15,5.46 59.30,5.50 58.42,5.52 57.50,5.51 56.54,5.46 55.55,5.40"/>
    </edge>
    <edge id=":5_0" function="internal">
        <lane id=":5_0_0" index="0" disallow="bus truck rail_fast" speed="36.11" length="4.19" width="3.36" shape="67.28,-6.81 67.20,-11.00"/>
    </edge>
    <edge id=":5_1" function="internal">
        <lane id=":5_1_0" index="0" disallow="bus truck rail_fast" speed="36.11" length="4.19" width="3.36" shape="67.22,-6.81 67.20,-11.00"/>
    </edge>
    <edge id=":5_2" function="internal">
        <lane id=":5_2_0" index="0" disallow="rail_fast" speed="36.11" length="4.19" width="3.36" shape="67.28,-6.81 67.20,-11.00"/>
    </edge>
    <edge id=":8_0" function="internal">
        <lane id=":8_0_0" index="0" disallow="bus truck rail_fast" speed="11.65" length="17.22" width="3.63" shape="70.46,-16.15 70.55,-14.50 70.64,-12.93 70.74,-11.44 70.84,-10.04 70.95,-8.73 71.05,-7.50 71.17,-6.35 71.28,-5.29 71.40,-4.31 71.51,-3.42 71.64,-2.62 71.76,-1.89 71.89,-1.25 72.02,-0.70 72.16,-0.23 72.30,0.15 72.44,0.45 72.58,0.66 72.73,0.79"/>
    </edge>
    <edge id=":8_1" function="internal">
        <lane id=":8_1_0" index="0" disallow="rail_fast" speed="36.11" length="20.81" width="3.45" shape="70.46,-16.15 70.50,-15.31 70.56,-14.39 70.62,-13.40 70.68,-12.33 70.75,-11.21 70.82,-10.05 70.89,-8.84 70.96,-7.62 71.03,-6.38 71.09,-5.13 71.14,-3.89 71.19,-2.66 71.22,-1.46 71.25,-0.30 71.26,0.82 71.26,1.89 71.24,2.88 71.21,3.80 71.15,4.64"/>
    </edge>
    <edge id=":8_2" function="internal">
        <lane id=":8_2_0" index="0" disallow="bus truck rail_fast" speed="36.11" length="3.06" width="3.63" shape="70.46,-16.15 70.74,-13.10"/>
    </edge>
    <edge id=":9_0" function="internal">
        <lane id=":9_0_0" index="0" disallow="bus truck rail_fast" speed="14.02" length="12.11" width="3.61" shape="72.90,0.90 73.56,1.29 74.19,1.65 74.79,1.99 75.37,2.31 75.93,2.60 76.48,2.86 77.02,3.11 77.55,3.32 78.08,3.52 78.61,3.69 79.15,3.83 79.70,3.95 80.27,4.05 80.86,4.12 81.48,4.17 82.13,4.19 82.81,4.19 83.53,4.17 84.29,4.12"/>
    </edge>
    <edge id=":9_1" function="internal">
        <lane id=":9_1_0" index="0" disallow="rail_fast" speed="36.11" length="15.30" width="3.61" shape="69.17,2.11 69.96,2.23 70.75,2.36 71.54,2.50 72.33,2.65 73.12,2.81 73.92,2.97 74.72,3.13 75.52,3.29 76.32,3.44 77.12,3.59 77.92,3.72 78.73,3.85 79.53,3.96 80.33,4.05 81.12,4.11 81.92,4.16 82.71,4.18 83.51,4.16 84.29,4.12"/>
    </edge>
    <edge id=":9_2" function="internal">
        <lane id=":9_2_0" index="0" disallow="bus truck rail_fast" speed="17.63" length="14.25" width="3.61" shape="70.46,6.55 71.12,6.14 71.79,5.78 72.46,5.47 73.15,5.21 73.84,5.00 74.55,4.82 75.25,4.67 75.97,4.56 76.70,4.47 77.43,4.40 78.17,4.35 78.91,4.32 79.66,4.29 80.42,4.27 81.19,4.26 81.96,4.24 82.73,4.21 83.51,4.17 84.29,4.12"/>
    </edge>

    <edge id="49564" from="1" to="2" priority="1" spreadType="center" length="142.63">
        <lane id="49564_0" index="0" disallow="rail_fast" speed="36.11" length="142.63" width="3.70" customShape="1" shape="-86.83,4.68 -64.08,3.77 -63.18,3.72 -41.17,2.42 -40.81,2.39 -20.20,0.80 -1.01,0.14 24.13,-0.55 48.25,0.16 54.97,0.33"/>
    </edge>
    <edge id="49566" from="3" to="4" priority="1" spreadType="center" length="142.13">
        <lane id="49566_0" index="0" disallow="rail_fast" speed="36.11" length="142.13" width="3.58" customShape="1" shape="55.55,5.40 47.98,4.77 47.62,4.74 24.27,3.51 -0.83,3.78 -19.87,4.86 -40.36,6.49 -63.83,8.54 -86.27,10.26"/>
    </edge>
    <edge id="49568" from="5" to="6" priority="1" spreadType="center" length="176.40">
        <lane id="49568_0" index="0" disallow="rail_fast" speed="36.11" length="176.40" width="3.36" customShape="1" shape="67.20,-11.00 66.74,-22.74 66.12,-36.41 65.74,-48.02 64.36,-77.06 62.51,-97.06 57.61,-141.23 54.64,-163.61 53.24,-174.31 52.62,-179.93 51.50,-184.46"/>
    </edge>
    <edge id="49570" from="7" to="8" priority="1" spreadType="center" length="177.61">
        <lane id="49570_0" index="0" disallow="rail_fast" speed="36.11" length="177.61" width="3.29" customShape="1" shape="55.49,-186.12 55.84,-183.54 56.23,-181.01 56.51,-178.15 56.75,-175.87 58.01,-165.93 60.99,-142.94 66.11,-98.09 68.02,-77.69 69.24,-48.15 69.62,-36.58 70.09,-22.95 70.46,-16.15"/>
    </edge>
    <edge id="49572" from="9" to="10" priority="1" spreadType="center" length="115.91">
        <lane id="49572_0" index="0" disallow="rail_fast" speed="36.11" length="115.91" width="3.61" customShape="1" shape="84.29,4.12 94.89,3.31 95.84,3.24 114.14,1.56 114.45,1.53 140.04,-1.80 159.67,-4.55 160.17,-4.63 196.83,-9.99"/>
    </edge>
    <edge id="49574" from="11" to="12" priority="1" spreadType="center" length="115.55">
        <lane id="49574_0" index="0" disallow="rail_fast" speed="36.11" length="115.55" width="3.52" customShape="1" shape="197.25,-6.30 160.82,-1.12 140.72,2.03 114.97,5.42 95.34,7.40 84.30,8.63"/>
    </edge>
    <edge id="49576" from="13" to="14" priority="1" spreadType="center" length="110.04">
        <lane id="49576_0" index="0" disallow="rail_fast" speed="36.11" length="110.04" width="3.07" customShape="1" shape="69.62,22.83 68.76,41.58 67.70,68.51 66.40,102.56 65.44,117.62 64.87,129.45"/>
    </edge>
    <edge id="49578" from="15" to="16" priority="1" spreadType="center" length="109.96">
        <lane id="49578_0" index="0" disallow="rail_fast" speed="36.11" length="109.96" width="3.02" customShape="1" shape="61.53,129.18 62.15,118.22 63.06,102.40 64.56,68.59 65.52,41.79 66.47,20.94"/>
    </edge>
    <edge id="49580" from="8" to="9" priority="1" spreadType="center" length="19.88">
        <lane id="49580_0" index="0" disallow="bus truck rail_fast" speed="36.11" length="19.88" width="3.63" customShape="1" shape="72.73,0.79 72.90,0.90"/>
    </edge>
    <edge id="49582" from="12" to="13" priority="1" spreadType="center" length="19.66">
        <lane id="49582_0" index="0" disallow="bus truck rail_fast" speed="36.11" length="19.66" width="3.45" customShape="1" shape="72.39,10.87 72.30,11.05"/>
    </edge>
    <edge id="49584" from="16" to="3" priority="1" spreadType="center" length="19.85">
        <lane id="49584_0" index="0" disallow="bus truck rail_fast" speed="36.11" length="19.85" width="3.02" customShape="1" shape="63.93,8.59 63.75,8.50"/>
    </edge>
    <edge id="49586" from="2" to="5" priority="1" spreadType="center" length="17.99">
        <lane id="49586_0" index="0" disallow="bus truck rail_fast" speed="36.11" length="17.99" width="3.50" customShape="1" shape="66.64,-4.19 66.84,-4.93 67.04,-5.38 67.17,-5.48 67.22,-6.81"/>
    </edge>
    <edge id="49588" from="8" to="3" priority="1" spreadType="center" length="25.95">
        <lane id="49588_0" index="0" disallow="bus truck rail_fast" speed="36.11" length="25.95" width="3.63" customShape="1" shape="70.74,-13.10 70.88,-6.73 70.91,-4.16 70.91,-3.94 70.79,-3.11 70.37,-1.64 70.30,-1.34 70.05,-0.57 69.00,1.04 68.36,1.88"/>
    </edge>
    <edge id="49590" from="12" to="5" priority="1" spreadType="center" length="27.22">
        <lane id="49590_0" index="0" disallow="bus truck rail_fast" speed="36.11" length="27.22" width="3.50" customShape="1" shape="70.81,3.97 70.42,3.56 69.79,2.75 69.26,2.00 68.72,1.06 68.55,0.77 68.21,-0.08 67.98,-0.76 67.87,-1.10 67.55,-3.19 67.37,-5.46 67.35,-5.62 67.27,-5.99 67.28,-6.81"/>
    </edge>
    <edge id="49592" from="16" to="9" priority="1" spreadType="center" length="25.76">
        <lane id="49592_0" index="0" disallow="bus truck rail_fast" speed="36.11" length="25.76" width="3.02" customShape="1" shape="70.29,6.66 70.46,6.55"/>
    </edge>
    <edge id="49594" from="2" to="13" priority="1" spreadType="center" length="27.55">
        <lane id="49594_0" index="0" disallow="bus truck rail_fast" speed="36.11" length="27.55" width="3.45" customShape="1" shape="67.28,6.20 67.38,6.37"/>
    </edge>
    <edge id="49596" from="16" to="5" priority="1" spreadType="center" length="28.29">
        <lane id="49596_0" index="0" disallow="rail_fast" speed="36.11" length="28.29" width="3.02" customShape="1" shape="67.29,5.01 67.28,-6.81"/>
    </edge>
    <edge id="49598" from="8" to="13" priority="1" spreadType="center" length="28.89">
        <lane id="49598_0" index="0" disallow="rail_fast" speed="36.11" length="28.89" width="3.45" customShape="1" shape="71.15,4.64 71.12,5.01"/>
    </edge>
    <edge id="49600" from="12" to="3" priority="1" spreadType="center" length="27.47">
        <lane id="49600_0" index="0" disallow="rail_fast" speed="36.11" length="27.47" width="4.34" customShape="1" shape="69.93,8.17 68.02,7.89"/>
    </edge>
    <edge id="49602" from="2" to="9" priority="1" spreadType="center" length="26.52">
        <lane id="49602_0" index="0" disallow="rail_fast" speed="36.11" length="26.52" width="4.82" customShape="1" shape="68.98,2.08 69.17,2.11"/>
    </edge>

    <junction id="1" type="dead_end" x="-86.83" y="4.68" incLanes="" intLanes="" shape="-86.76,6.53 -86.91,2.83"/>
    <junction id="10" type="dead_end" x="196.83" y="-9.99" incLanes="49572_0" intLanes="" shape="196.56,-11.77 197.09,-8.20"/>
    <junction id="11" type="dead_end" x="197.25" y="-6.30" incLanes="" intLanes="" shape="197.00,-8.04 197.50,-4.56"/>
    <junction id="12" type="priority" x="82.71" y="8.81" incLanes="49574_0" intLanes=":12_0_0 :12_1_0 :12_2_0" shape="84.49,10.38 84.10,6.89 81.47,7.00 79.04,6.73 76.80,6.07 74.76,5.03 72.91,3.61 71.26,1.80 69.49,10.30 70.10,10.54 70.25,10.75 70.30,11.01 70.26,11.34 70.13,11.73 72.04,16.72 73.83,13.77 75.61,12.61 77.98,11.66 80.94,10.92">
        <request index="0" response="000" foes="000" cont="0"/>
        <request index="1" response="000" foes="000" cont="0"/>
        <request index="2" response="000" foes="000" cont="0"/>
    </junction>
    <junction id="13" type="priority" x="69.77" y="19.53" incLanes="49582_0 49598_0 49594_0" intLanes=":13_0_0 :13_1_0 :13_2_0" shape="78.68,10.65 73.99,8.14 73.40,7.94 73.18,7.51 73.01,6.84 72.91,5.95 72.85,4.83 69.39,4.43 69.28,5.28 69.13,5.42 68.91,5.38 68.63,5.16 68.27,4.74 64.04,5.05 65.44,6.86 66.55,9.12 67.37,11.84 67.90,15.02 68.14,18.66 68.08,22.76 71.15,22.90 71.52,19.16 72.24,16.10 73.31,13.72 74.75,12.02 76.54,11.00">
        <request index="0" response="000" foes="110" cont="0"/>
        <request index="1" response="101" foes="101" cont="0"/>
        <request index="2" response="001" foes="011" cont="0"/>
    </junction>
    <junction id="14" type="dead_end" x="64.87" y="129.45" incLanes="49576_0" intLanes="" shape="66.41,129.52 63.34,129.38"/>
    <junction id="15" type="dead_end" x="61.53" y="129.18" incLanes="" intLanes="" shape="63.04,129.27 60.02,129.10"/>
    <junction id="16" type="priority" x="66.55" y="19.34" incLanes="49578_0" intLanes=":16_0_0 :16_1_0 :16_2_0" shape="73.96,6.31 69.90,5.10 69.29,5.37 69.08,5.34 68.92,5.19 68.83,4.93 68.80,4.56 58.37,7.68 60.53,8.57 62.26,9.98 63.57,11.91 64.46,14.37 64.93,17.36 64.96,20.87 67.98,21.01 68.31,17.07 68.91,13.72 69.77,10.98 70.90,8.83 72.30,7.27">
        <request index="0" response="000" foes="000" cont="0"/>
        <request index="1" response="000" foes="000" cont="0"/>
        <request index="2" response="000" foes="000" cont="0"/>
    </junction>
    <junction id="2" type="priority" x="55.64" y="0.34" incLanes="49564_0" intLanes=":2_0_0 :2_1_0 :2_2_0" shape="67.44,9.98 68.88,5.59 68.59,4.95 68.62,4.74 68.79,4.61 69.07,4.56 69.48,4.59 70.04,-0.20 68.29,-0.59 67.76,-0.84 67.46,-1.14 67.39,-1.47 67.55,-1.85 65.48,-7.22 64.23,-3.94 62.77,-2.82 60.75,-2.04 58.16,-1.61 55.02,-1.52 54.93,2.18 57.84,2.46 60.42,3.15 62.67,4.24 64.59,5.75 66.18,7.66">
        <request index="0" response="000" foes="000" cont="0"/>
        <request index="1" response="000" foes="000" cont="0"/>
        <request index="2" response="000" foes="000" cont="0"/>
    </junction>
    <junction id="3" type="priority" x="55.55" y="5.40" incLanes="49584_0 49600_0 49588_0" intLanes=":3_0_0 :3_1_0 :3_2_0" shape="64.62,14.78 69.03,5.85 68.26,5.57 68.11,5.34 68.13,5.06 68.30,4.72 68.64,4.32 68.06,-0.84 66.77,0.73 65.17,1.96 63.25,2.87 61.02,3.44 58.47,3.69 55.61,3.60 55.32,7.17 57.42,7.54 59.31,8.26 60.97,9.35 62.41,10.80 63.62,12.61">
        <request index="0" response="000" foes="110" cont="0"/>
        <request index="1" response="101" foes="101" cont="0"/>
        <request index="2" response="001" foes="011" cont="0"/>
    </junction>
    <junction id="4" type="dead_end" x="-86.27" y="10.26" incLanes="49566_0" intLanes="" shape="-86.13,12.05 -86.41,8.48"/>
    <junction id="5" type="priority" x="67.28" y="-8.93" incLanes="49590_0 49586_0 49596_0" intLanes=":5_0_0 :5_1_0 :5_2_0" shape="65.46,-6.82 69.03,-6.81 68.88,-11.07 65.52,-10.93">
        <request index="0" response="010" foes="110" cont="0"/>
        <request index="1" response="000" foes="101" cont="0"/>
        <request index="2" response="011" foes="011" cont="0"/>
    </junction>
    <junction id="6" type="dead_end" x="51.50" y="-184.46" incLanes="49568_0" intLanes="" shape="49.87,-184.06 53.14,-184.86"/>
    <junction id="7" type="dead_end" x="55.49" y="-186.12" incLanes="" intLanes="" shape="53.86,-185.89 57.11,-186.34"/>
    <junction id="8" type="priority" x="70.82" y="-9.30" incLanes="49570_0" intLanes=":8_0_0 :8_1_0 :8_2_0" shape="73.96,3.57 78.83,1.91 77.02,0.98 75.49,-0.78 74.23,-3.39 73.24,-6.83 72.53,-11.11 72.10,-16.24 68.82,-16.06 68.93,-13.06 72.55,-13.14 72.37,-17.05 72.05,-18.18 71.59,-16.54 70.99,-12.12 70.26,-4.93 69.38,5.05 72.85,4.97 73.05,3.91 73.22,3.61 73.42,3.45 73.67,3.43">
        <request index="0" response="000" foes="000" cont="0"/>
        <request index="1" response="000" foes="000" cont="0"/>
        <request index="2" response="000" foes="000" cont="0"/>
    </junction>
    <junction id="9" type="priority" x="81.84" y="4.31" incLanes="49580_0 49602_0 49592_0" intLanes=":9_0_0 :9_1_0 :9_2_0" shape="84.43,5.92 84.16,2.32 80.99,2.27 78.33,1.61 76.19,0.33 74.55,-1.56 73.43,-4.07 72.81,-7.19 70.04,-2.15 70.13,-1.06 69.97,-0.70 69.66,-0.47 69.22,-0.37 68.64,-0.39 68.14,4.40 69.09,4.71 69.29,4.95 69.30,5.26 69.12,5.62 68.71,6.09 69.48,10.34 72.03,8.33 74.22,7.52 77.01,6.85 80.42,6.32">
        <request index="0" response="000" foes="110" cont="0"/>
        <request index="1" response="101" foes="101" cont="0"/>
        <request index="2" response="001" foes="011" cont="0"/>
    </junction>

    <connection from="49564" to="49586" fromLane="0" toLane="0" contPos="-4.00" via=":2_0_0" dir="R" state="M"/>
    <connection from="49564" to="49602" fromLane="0" toLane="0" contPos="-4.00" via=":2_1_0" dir="s" state="M"/>
    <connection from="49564" to="49594" fromLane="0" toLane="0" contPos="-4.00" via=":2_2_0" dir="l" state="M"/>
    <connection from="49570" to="49580" fromLane="0" toLane="0" contPos="-4.00" via=":8_0_0" dir="R" state="M"/>
    <connection from="49570" to="49598" fromLane="0" toLane="0" contPos="-4.00" via=":8_1_0" dir="s" state="M"/>
    <connection from="49570" to="49588" fromLane="0" toLane="0" contPos="-4.00" via=":8_2_0" dir="l" state="M"/>
    <connection from="49574" to="49582" fromLane="0" toLane="0" contPos="-4.00" via=":12_0_0" dir="R" state="M"/>
    <connection from="49574" to="49600" fromLane="0" toLane="0" contPos="-4.00" via=":12_1_0" dir="s" state="M"/>
    <connection from="49574" to="49590" fromLane="0" toLane="0" contPos="-4.00" via=":12_2_0" dir="l" state="M"/>
    <connection from="49578" to="49584" fromLane="0" toLane="0" contPos="-4.00" via=":16_0_0" dir="R" state="M"/>
    <connection from="49578" to="49596" fromLane="0" toLane="0" contPos="-4.00" via=":16_1_0" dir="s" state="M"/>
    <connection from="49578" to="49592" fromLane="0" toLane="0" contPos="-4.00" via=":16_2_0" dir="L" state="M"/>
    <connection from="49580" to="49572" fromLane="0" toLane="0" contPos="-4.00" via=":9_0_0" dir="r" state="M"/>
    <connection from="49582" to="49576" fromLane="0" toLane="0" contPos="-4.00" via=":13_0_0" dir="r" state="M"/>
    <connection from="49584" to="49566" fromLane="0" toLane="0" contPos="-4.00" via=":3_0_0" dir="r" state="M"/>
    <connection from="49586" to="49568" fromLane="0" toLane="0" contPos="-4.00" via=":5_1_0" dir="r" state="M"/>
    <connection from="49588" to="49566" fromLane="0" toLane="0" contPos="-4.00" via=":3_2_0" dir="s" state="m"/>
    <connection from="49590" to="49568" fromLane="0" toLane="0" contPos="-4.00" via=":5_0_0" dir="s" state="m"/>
    <connection from="49592" to="49572" fromLane="0" toLane="0" contPos="-4.00" via=":9_2_0" dir="s" state="m"/>
    <connection from="49594" to="49576" fromLane="0" toLane="0" contPos="-4.00" via=":13_2_0" dir="s" state="m"/>
    <connection from="49596" to="49568" fromLane="0" toLane="0" contPos="-4.00" via=":5_2_0" dir="s" state="m"/>
    <connection from="49598" to="49576" fromLane="0" toLane="0" contPos="-4.00" via=":13_1_0" dir="s" state="m"/>
    <connection from="49600" to="49566" fromLane="0" toLane="0" contPos="-4.00" via=":3_1_0" dir="s" state="m"/>
    <connection from="49602" to="49572" fromLane="0" toLane="0" contPos="-4.00" via=":9_1_0" dir="s" state="m"/>

    <connection from=":12_0" to="49582" fromLane="0" toLane="0" dir="R" state="M"/>
    <connection from=":12_1" to="49600" fromLane="0" toLane="0" dir="s" state="M"/>
    <connection from=":12_2" to="49590" fromLane="0" toLane="0" dir="l" state="M"/>
    <connection from=":13_0" to="49576" fromLane="0" toLane="0" dir="r" state="M"/>
    <connection from=":13_1" to="49576" fromLane="0" toLane="0" dir="s" state="M"/>
    <connection from=":13_2" to="49576" fromLane="0" toLane="0" dir="s" state="M"/>
    <connection from=":16_0" to="49584" fromLane="0" toLane="0" dir="R" state="M"/>
    <connection from=":16_1" to="49596" fromLane="0" toLane="0" dir="s" state="M"/>
    <connection from=":16_2" to="49592" fromLane="0" toLane="0" dir="L" state="M"/>
    <connection from=":2_0" to="49586" fromLane="0" toLane="0" dir="R" state="M"/>
    <connection from=":2_1" to="49602" fromLane="0" toLane="0" dir="s" state="M"/>
    <connection from=":2_2" to="49594" fromLane="0" toLane="0" dir="l" state="M"/>
    <connection from=":3_0" to="49566" fromLane="0" toLane="0" dir="r" state="M"/>
    <connection from=":3_1" to="49566" fromLane="0" toLane="0" dir="s" state="M"/>
    <connection from=":3_2" to="49566" fromLane="0" toLane="0" dir="s" state="M"/>
    <connection from=":5_0" to="49568" fromLane="0" toLane="0" dir="s" state="M"/>
    <connection from=":5_1" to="49568" fromLane="0" toLane="0" dir="r" state="M"/>
    <connection from=":5_2" to="49568" fromLane="0" toLane="0" dir="s" state="M"/>
    <connection from=":8_0" to="49580" fromLane="0" toLane="0" dir="R" state="M"/>
    <connection from=":8_1" to="49598" fromLane="0" toLane="0" dir="s" state="M"/>
    <connection from=":8_2" to="49588" fromLane="0" toLane="0" dir="l" state="M"/>
    <connection from=":9_0" to="49572" fromLane="0" toLane="0" dir="r" state="M"/>
    <connection from=":9_1" to="49572" fromLane="0" toLane="0" dir="s" state="M"/>
    <connection from=":9_2" to="49572" fromLane="0" toLane="0" dir="s" state="M"/>

</net>
