<routes>
	<vehicle depart="0.1" departLane="0" departPos="31.519736332431222" departSpeed="13.423891" id="38" type="passenger">
		<route edges=":230_11 5959 5662"/>
	</vehicle>
	<vehicle depart="0.1" departLane="0" departPos="14.684696893617838" departSpeed="12.070408" id="323" type="passenger">
		<route edges=":230_11 5959 5662"/>
	</vehicle>
	<vehicle depart="0.1" departLane="0" departPos="25.655961494316706" departSpeed="1.8961454" id="331" type="passenger">
		<route edges="5960 6262"/>
	</vehicle>
	<vehicle depart="0.1" departLane="0" departPos="35.26162276322591" departSpeed="0.0" id="3101" type="passenger">
		<route edges="5960 6262"/>
	</vehicle>
	<vehicle depart="0.1" departLane="0" departPos="99.26008448202275" departSpeed="9.7334172" id="3124" type="passenger">
		<route edges="6261 5963"/>
	</vehicle>
	<vehicle depart="0.1" departLane="0" departPos="20.110106614026922" departSpeed="0.93220271" id="316" type="truck">
		<route edges=":230_6 6258"/>
	</vehicle>
</routes>
