<routes>
	<vehicle depart="0.1" departLane="0" departPos="20.032004202960916" departSpeed="8.7137756" id="1" type="passenger">
		<route edges="50201 50213 50197"/>
	</vehicle>
	<vehicle depart="0.1" departLane="0" departPos="92.69541398100094" departSpeed="2.8605431" id="2" type="passenger">
		<route edges="50195 50211 50199"/>
	</vehicle>
	<vehicle depart="0.1" departLane="0" departPos="118.13339933351403" departSpeed="3.370872" id="4" type="passenger">
		<route edges="50205 50207 50197"/>
	</vehicle>
	<vehicle depart="0.1" departLane="0" departPos="126.13444769159128" departSpeed="4.8800558" id="5" type="passenger">
		<route edges="50205 50217 50199"/>
	</vehicle>
	<vehicle depart="0.1" departLane="0" departPos="12.0296824929303" departSpeed="4.3250391" id="7" type="passenger">
		<route edges="50201 50213 50197"/>
	</vehicle>
</routes>
