<routes>
	<vehicle depart="0.1" departLane="1" departPos="88.5215281912893" departSpeed="12.235754" id="1" type="passenger">
		<route edges="26 28 24"/>
	</vehicle>
	<vehicle depart="0.1" departLane="0" departPos="0" departSpeed="14.87055" id="2" type="passenger">
		<route edges="26 27 24"/>
	</vehicle>
	<vehicle depart="0.1" departLane="0" departPos="80.46996362103566" departSpeed="14.862117" id="3" type="passenger">
		<route edges="26 27 24"/>
	</vehicle>
</routes>
