<!-- generated on Tue Feb  9 22:19:20 2021 by Eclipse SUMO netconvert Version 1.8.0
<configuration xmlns:xsi="http://www.w3.org/2001/XMLSchema-instance" xsi:noNamespaceSchemaLocation="http://sumo.dlr.de/xsd/netconvertConfiguration.xsd">

    <input>
        <node-files value="./converted_scenarios/scenario-factory/DEU_Hennigsdorf-5_4_I-1-1/DEU_Hennigsdorf-5_4_I-1-1.nod.xml"/>
        <edge-files value="./converted_scenarios/scenario-factory/DEU_Hennigsdorf-5_4_I-1-1/DEU_Hennigsdorf-5_4_I-1-1.edg.xml"/>
        <connection-files value="./converted_scenarios/scenario-factory/DEU_Hennigsdorf-5_4_I-1-1/DEU_Hennigsdorf-5_4_I-1-1.con.xml"/>
        <tllogic-files value="./converted_scenarios/scenario-factory/DEU_Hennigsdorf-5_4_I-1-1/DEU_Hennigsdorf-5_4_I-1-1.tll.xml"/>
        <type-files value="/home/zen/commonroad-interactive-benchmarks/install/commonroad-map-tool/crmapconverter/sumo_map/templates/DEU.typ.xml"/>
    </input>

    <output>
        <output-file value="./converted_scenarios/scenario-factory/DEU_Hennigsdorf-5_4_I-1-1/DEU_Hennigsdorf-5_4_I-1-1.net.xml"/>
    </output>

    <processing>
        <geometry.remove.keep-edges.explicit value="true"/>
        <geometry.avoid-overlap value="true"/>
        <offset.disable-normalization value="true"/>
    </processing>

    <junctions>
        <no-turnarounds value="true"/>
        <junctions.internal-link-detail value="20"/>
    </junctions>

    <report>
        <aggregate-warnings value="5"/>
    </report>

    <random_number>
        <seed value="1234"/>
    </random_number>

</configuration>
--><net xmlns:xsi="http://www.w3.org/2001/XMLSchema-instance" version="1.6" junctionCornerDetail="5" junctionLinkDetail="20" limitTurnSpeed="5.50" xsi:noNamespaceSchemaLocation="http://sumo.dlr.de/xsd/net_file.xsd">

    <location netOffset="0.00,0.00" convBoundary="-748.92,118.59,-479.83,489.99" origBoundary="-748.92,118.59,-479.83,489.99" projParameter="!"/>

    <type id="highway.bridleway" priority="1" speed="2.78" allow="pedestrian" oneway="1" width="2.00"/>
    <type id="highway.bus_guideway" priority="1" speed="27.78" allow="bus" oneway="1"/>
    <type id="highway.cycleway" priority="1" speed="8.33" allow="bicycle" oneway="0" width="1.00"/>
    <type id="highway.footway" priority="1" speed="2.78" allow="pedestrian" oneway="1" width="2.00"/>
    <type id="highway.ford" priority="1" speed="2.78" allow="army" oneway="0"/>
    <type id="highway.living_street" priority="2" speed="2.78" disallow="tram rail_urban rail rail_electric rail_fast ship" oneway="0"/>
    <type id="highway.motorway" priority="14" speed="39.44" allow="private emergency authority army vip passenger hov taxi bus coach delivery truck trailer motorcycle evehicle custom1 custom2" oneway="1"/>
    <type id="highway.motorway_link" priority="9" speed="22.22" allow="private emergency authority army vip passenger hov taxi bus coach delivery truck trailer motorcycle evehicle custom1 custom2" oneway="1"/>
    <type id="highway.path" priority="1" speed="2.78" allow="pedestrian bicycle" oneway="0" width="2.00"/>
    <type id="highway.pedestrian" priority="1" speed="2.78" allow="pedestrian" oneway="1" width="2.00"/>
    <type id="highway.primary" priority="12" speed="27.78" disallow="pedestrian tram rail_urban rail rail_electric rail_fast ship" oneway="0"/>
    <type id="highway.primary_link" priority="7" speed="22.22" disallow="pedestrian tram rail_urban rail rail_electric rail_fast ship" oneway="0"/>
    <type id="highway.raceway" priority="15" speed="83.33" allow="vip" oneway="0"/>
    <type id="highway.residential" priority="3" speed="13.89" disallow="pedestrian tram rail_urban rail rail_electric rail_fast ship" oneway="0"/>
    <type id="highway.secondary" priority="11" speed="27.78" disallow="pedestrian tram rail_urban rail rail_electric rail_fast ship" oneway="0"/>
    <type id="highway.secondary_link" priority="6" speed="22.22" disallow="pedestrian tram rail_urban rail rail_electric rail_fast ship" oneway="0"/>
    <type id="highway.service" priority="1" speed="5.56" allow="pedestrian delivery bicycle" oneway="0"/>
    <type id="highway.stairs" priority="1" speed="1.39" allow="pedestrian" oneway="1" width="2.00"/>
    <type id="highway.step" priority="1" speed="1.39" allow="pedestrian" oneway="1" width="2.00"/>
    <type id="highway.steps" priority="1" speed="1.39" allow="pedestrian" oneway="1" width="2.00"/>
    <type id="highway.tertiary" priority="10" speed="22.22" disallow="pedestrian tram rail_urban rail rail_electric rail_fast ship" oneway="0"/>
    <type id="highway.tertiary_link" priority="5" speed="22.22" disallow="pedestrian tram rail_urban rail rail_electric rail_fast ship" oneway="0"/>
    <type id="highway.track" priority="1" speed="5.56" allow="pedestrian motorcycle moped bicycle" oneway="0"/>
    <type id="highway.trunk" priority="13" speed="27.78" disallow="pedestrian bicycle tram rail_urban rail rail_electric rail_fast ship" oneway="0"/>
    <type id="highway.trunk_link" priority="8" speed="22.22" disallow="pedestrian bicycle tram rail_urban rail rail_electric rail_fast ship" oneway="0"/>
    <type id="highway.unclassified" priority="4" speed="13.89" disallow="pedestrian tram rail_urban rail rail_electric rail_fast ship" oneway="0"/>
    <type id="highway.unsurfaced" priority="1" speed="8.33" disallow="tram rail_urban rail rail_electric rail_fast ship" oneway="0"/>
    <type id="railway.highspeed" priority="21" speed="69.44" allow="rail_fast" oneway="1"/>
    <type id="railway.light_rail" priority="19" speed="27.78" allow="rail_urban" oneway="1"/>
    <type id="railway.preserved" priority="16" speed="27.78" allow="rail" oneway="1"/>
    <type id="railway.rail" priority="20" speed="44.44" allow="rail" oneway="1"/>
    <type id="railway.subway" priority="18" speed="27.78" allow="rail_urban" oneway="1"/>
    <type id="railway.tram" priority="17" speed="13.89" allow="tram" oneway="1"/>

    <edge id=":69_0" function="internal">
        <lane id=":69_0_0" index="0" disallow="pedestrian tram rail_urban rail rail_electric rail_fast ship" speed="36.11" length="39.06" width="3.50" shape="-648.78,285.51 -657.65,268.07 -666.48,250.69"/>
    </edge>
    <edge id=":69_1" function="internal">
        <lane id=":69_1_0" index="0" disallow="pedestrian tram rail_urban rail rail_electric rail_fast ship" speed="12.22" length="34.53" width="3.50" shape="-648.78,285.51 -650.42,281.85 -651.26,279.33 -651.85,276.74 -652.12,274.10 -652.12,272.78 -652.01,271.45 -651.80,270.15 -651.47,268.86 -651.03,267.61 -650.48,266.40 -649.83,265.24 -649.08,264.15 -647.36,262.13 -645.39,260.36 -643.24,258.80 -640.96,257.44 -639.78,256.82"/>
    </edge>
    <edge id=":69_2" function="internal">
        <lane id=":69_2_0" index="0" disallow="pedestrian tram rail_urban rail rail_electric rail_fast ship" speed="11.22" length="28.92" width="3.50" shape="-638.21,259.95 -639.22,260.48 -641.20,261.66 -643.04,262.99 -644.69,264.48 -646.13,266.17 -646.72,267.04 -647.24,267.97 -647.68,268.94 -648.03,269.94 -648.29,270.97 -648.46,272.03 -648.55,273.10 -648.55,274.16 -648.32,276.39 -647.81,278.57 -647.09,280.72 -645.66,283.92"/>
    </edge>
    <edge id=":69_3" function="internal">
        <lane id=":69_3_0" index="0" disallow="pedestrian tram rail_urban rail rail_electric rail_fast ship" speed="12.17" length="33.99" width="3.50" shape="-638.21,259.95 -640.51,261.01 -642.91,261.90 -645.40,262.57 -648.00,262.96 -650.63,263.00 -652.00,262.86 -653.33,262.61 -654.63,262.24 -655.90,261.76 -657.12,261.18 -658.28,260.49 -659.40,259.71 -661.36,257.99 -663.09,256.04 -664.61,253.95 -666.48,250.69"/>
    </edge>
    <edge id=":69_4" function="internal">
        <lane id=":69_4_0" index="0" disallow="pedestrian tram rail_urban rail rail_electric rail_fast ship" speed="11.17" length="28.46" width="3.50" shape="-663.38,249.08 -661.74,251.92 -660.46,253.70 -659.01,255.33 -657.36,256.78 -656.46,257.40 -655.52,257.96 -654.53,258.43 -653.51,258.82 -652.45,259.12 -651.38,259.32 -650.29,259.43 -648.10,259.40 -645.94,259.07 -643.82,258.50 -641.77,257.74 -639.78,256.82"/>
    </edge>
    <edge id=":69_5" function="internal">
        <lane id=":69_5_0" index="0" disallow="pedestrian tram rail_urban rail rail_electric rail_fast ship" speed="36.11" length="39.09" width="3.50" shape="-663.38,249.08 -654.53,266.48 -645.66,283.92"/>
    </edge>
    <edge id=":70_0" function="internal">
        <lane id=":70_0_0" index="0" disallow="pedestrian tram rail_urban rail rail_electric rail_fast ship" speed="11.12" length="28.79" width="3.50" shape="-600.11,381.20 -601.75,378.33 -603.04,376.53 -604.52,374.88 -606.19,373.43 -607.11,372.80 -608.07,372.26 -609.08,371.80 -610.13,371.43 -611.20,371.17 -612.30,371.00 -613.41,370.92 -614.51,370.94 -616.71,371.22 -618.86,371.78 -620.94,372.54 -623.92,374.00"/>
    </edge>
    <edge id=":70_1" function="internal">
        <lane id=":70_1_0" index="0" disallow="pedestrian tram rail_urban rail rail_electric rail_fast ship" speed="36.11" length="38.94" width="3.50" shape="-600.11,381.20 -608.92,363.87 -617.76,346.49"/>
    </edge>
    <edge id=":70_2" function="internal">
        <lane id=":70_2_0" index="0" disallow="pedestrian tram rail_urban rail rail_electric rail_fast ship" speed="12.16" length="34.25" width="3.50" shape="-600.11,381.20 -601.17,378.91 -602.09,376.52 -602.80,374.03 -603.25,371.44 -603.36,368.81 -603.27,367.43 -603.07,366.09 -602.75,364.76 -602.31,363.46 -601.76,362.21 -601.10,361.02 -600.36,359.89 -599.51,358.81 -597.68,356.93 -595.64,355.29 -593.47,353.88 -591.22,352.66"/>
    </edge>
    <edge id=":70_3" function="internal">
        <lane id=":70_3_0" index="0" disallow="pedestrian tram rail_urban rail rail_electric rail_fast ship" speed="11.15" length="28.64" width="3.50" shape="-589.66,355.80 -591.61,356.85 -593.46,358.05 -595.17,359.44 -596.70,361.02 -597.38,361.89 -597.99,362.81 -598.52,363.78 -598.96,364.79 -599.30,365.83 -599.56,366.90 -599.72,368.00 -599.79,369.10 -599.69,371.30 -599.30,373.47 -598.69,375.58 -597.91,377.64 -596.99,379.62"/>
    </edge>
    <edge id=":70_4" function="internal">
        <lane id=":70_4_0" index="0" disallow="pedestrian tram rail_urban rail rail_electric rail_fast ship" speed="36.11" length="38.80" width="3.50" shape="-589.66,355.80 -602.38,362.33 -622.14,373.02 -623.92,374.00"/>
    </edge>
    <edge id=":70_5" function="internal">
        <lane id=":70_5_0" index="0" disallow="pedestrian tram rail_urban rail rail_electric rail_fast ship" speed="12.17" length="33.87" width="3.50" shape="-589.66,355.80 -593.26,357.35 -595.74,358.13 -598.29,358.66 -600.88,358.87 -602.18,358.83 -603.48,358.69 -604.75,358.45 -606.01,358.09 -607.22,357.63 -608.40,357.07 -609.52,356.41 -611.59,354.84 -613.44,353.00 -615.06,350.97 -616.49,348.79 -617.76,346.49"/>
    </edge>
    <edge id=":70_6" function="internal">
        <lane id=":70_6_0" index="0" disallow="pedestrian tram rail_urban rail rail_electric rail_fast ship" speed="11.16" length="28.33" width="3.50" shape="-614.64,344.90 -613.54,346.91 -612.31,348.78 -610.93,350.50 -609.40,352.04 -607.67,353.34 -606.79,353.85 -605.85,354.31 -604.88,354.68 -603.87,354.96 -602.85,355.15 -601.80,355.27 -600.77,355.30 -598.59,355.12 -596.45,354.68 -594.34,354.01 -591.22,352.66"/>
    </edge>
    <edge id=":70_7" function="internal">
        <lane id=":70_7_0" index="0" disallow="pedestrian tram rail_urban rail rail_electric rail_fast ship" speed="36.11" length="38.95" width="3.50" shape="-614.64,344.90 -605.80,362.28 -596.99,379.62"/>
    </edge>
    <edge id=":70_8" function="internal">
        <lane id=":70_8_0" index="0" disallow="pedestrian tram rail_urban rail rail_electric rail_fast ship" speed="12.40" length="34.77" width="3.50" shape="-614.64,344.90 -613.06,348.45 -612.26,350.90 -611.70,353.41 -611.45,355.97 -611.56,358.54 -611.76,359.81 -612.06,361.07 -612.46,362.29 -612.96,363.47 -614.23,365.71 -615.80,367.75 -617.61,369.58 -619.60,371.22 -622.81,373.36 -623.92,374.00"/>
    </edge>
    <edge id=":70_9" function="internal">
        <lane id=":70_9_0" index="0" disallow="pedestrian tram rail_urban rail rail_electric rail_fast ship" speed="11.41" length="29.30" width="3.50" shape="-625.60,370.93 -624.66,370.39 -621.83,368.51 -620.14,367.11 -618.61,365.57 -617.30,363.88 -616.24,362.01 -615.85,361.08 -615.52,360.09 -615.27,359.08 -615.11,358.08 -615.01,355.93 -615.22,353.80 -615.69,351.68 -616.38,349.60 -617.76,346.49"/>
    </edge>
    <edge id=":70_10" function="internal">
        <lane id=":70_10_0" index="0" disallow="pedestrian tram rail_urban rail rail_electric rail_fast ship" speed="36.11" length="38.94" width="3.50" shape="-625.60,370.93 -623.82,369.95 -604.00,359.23 -591.22,352.66"/>
    </edge>
    <edge id=":70_11" function="internal">
        <lane id=":70_11_0" index="0" disallow="pedestrian tram rail_urban rail rail_electric rail_fast ship" speed="12.13" length="34.49" width="3.50" shape="-625.60,370.93 -622.17,369.26 -619.71,368.35 -617.15,367.70 -614.53,367.36 -613.14,367.34 -611.78,367.43 -610.42,367.64 -609.08,367.97 -607.77,368.43 -606.52,369.00 -605.33,369.68 -604.18,370.47 -602.18,372.20 -600.42,374.18 -598.89,376.31 -596.99,379.62"/>
    </edge>
    <edge id=":71_0" function="internal">
        <lane id=":71_0_0" index="0" disallow="pedestrian tram rail_urban rail rail_electric rail_fast ship" speed="36.11" length="38.62" width="3.50" shape="-618.75,344.53 -627.52,327.29 -636.26,310.11"/>
    </edge>
    <edge id=":71_1" function="internal">
        <lane id=":71_1_0" index="0" disallow="pedestrian tram rail_urban rail rail_electric rail_fast ship" speed="12.26" length="34.26" width="3.50" shape="-618.76,344.53 -620.37,340.89 -621.19,338.39 -621.75,335.82 -621.99,333.20 -621.97,331.88 -621.84,330.57 -621.61,329.27 -621.26,328.00 -620.81,326.77 -620.25,325.57 -619.60,324.43 -618.04,322.31 -616.20,320.43 -614.16,318.76 -611.98,317.29 -609.69,315.98"/>
    </edge>
    <edge id=":71_2" function="internal">
        <lane id=":71_2_0" index="0" disallow="pedestrian tram rail_urban rail rail_electric rail_fast ship" speed="11.26" length="28.74" width="3.50" shape="-608.06,319.08 -610.06,320.21 -611.94,321.48 -613.67,322.90 -615.20,324.47 -616.51,326.24 -617.02,327.14 -617.47,328.10 -617.83,329.09 -618.11,330.12 -618.30,331.16 -618.40,332.22 -618.42,333.27 -618.22,335.47 -617.75,337.64 -617.05,339.77 -615.64,342.95"/>
    </edge>
    <edge id=":71_3" function="internal">
        <lane id=":71_3_0" index="0" disallow="pedestrian tram rail_urban rail rail_electric rail_fast ship" speed="12.08" length="33.95" width="3.50" shape="-608.06,319.08 -610.34,320.18 -612.71,321.11 -615.19,321.82 -617.78,322.26 -620.40,322.33 -621.78,322.21 -623.11,321.97 -624.42,321.62 -625.69,321.15 -626.91,320.57 -628.07,319.89 -629.19,319.11 -631.15,317.39 -632.88,315.45 -634.39,313.36 -636.26,310.11"/>
    </edge>
    <edge id=":71_4" function="internal">
        <lane id=":71_4_0" index="0" disallow="pedestrian tram rail_urban rail rail_electric rail_fast ship" speed="11.08" length="28.34" width="3.50" shape="-633.16,308.50 -631.53,311.33 -630.25,313.10 -628.81,314.73 -627.16,316.16 -626.27,316.79 -625.33,317.34 -624.34,317.80 -623.32,318.18 -622.27,318.47 -621.19,318.66 -620.11,318.76 -617.93,318.69 -615.78,318.33 -613.69,317.73 -611.66,316.93 -609.69,315.98"/>
    </edge>
    <edge id=":71_5" function="internal">
        <lane id=":71_5_0" index="0" disallow="pedestrian tram rail_urban rail rail_electric rail_fast ship" speed="36.11" length="38.65" width="3.50" shape="-633.16,308.50 -624.40,325.71 -615.64,342.95"/>
    </edge>
    <edge id=":72_0" function="internal">
        <lane id=":72_0_0" index="0" disallow="pedestrian tram rail_urban rail rail_electric rail_fast ship" speed="36.11" length="39.04" width="3.50" shape="-679.87,224.38 -688.73,206.95 -697.56,189.58"/>
    </edge>
    <edge id=":72_1" function="internal">
        <lane id=":72_1_0" index="0" disallow="pedestrian tram rail_urban rail rail_electric rail_fast ship" speed="12.23" length="34.55" width="3.49" shape="-679.87,224.38 -681.51,220.72 -682.35,218.20 -682.94,215.61 -683.21,212.97 -683.20,211.64 -683.09,210.32 -682.87,209.01 -682.54,207.72 -682.10,206.47 -681.55,205.26 -680.90,204.11 -680.15,203.01 -678.43,200.99 -676.46,199.21 -674.31,197.65 -672.03,196.28 -670.86,195.66"/>
    </edge>
    <edge id=":72_2" function="internal">
        <lane id=":72_2_0" index="0" disallow="pedestrian tram rail_urban rail rail_electric rail_fast ship" speed="11.23" length="28.95" width="3.50" shape="-669.28,198.79 -670.28,199.32 -672.27,200.51 -674.10,201.84 -675.76,203.33 -677.20,205.03 -677.78,205.90 -678.31,206.83 -678.75,207.80 -679.11,208.81 -679.37,209.84 -679.54,210.89 -679.63,211.97 -679.63,213.03 -679.41,215.25 -678.91,217.44 -678.19,219.59 -676.75,222.79"/>
    </edge>
    <edge id=":72_3" function="internal">
        <lane id=":72_3_0" index="0" disallow="pedestrian tram rail_urban rail rail_electric rail_fast ship" speed="12.18" length="34.01" width="3.50" shape="-669.28,198.79 -671.57,199.85 -673.97,200.75 -676.46,201.43 -679.06,201.83 -681.68,201.88 -683.06,201.75 -684.39,201.50 -685.70,201.14 -686.97,200.66 -688.19,200.07 -689.35,199.39 -690.47,198.61 -692.44,196.89 -694.17,194.94 -695.68,192.84 -697.56,189.58"/>
    </edge>
    <edge id=":72_4" function="internal">
        <lane id=":72_4_0" index="0" disallow="pedestrian tram rail_urban rail rail_electric rail_fast ship" speed="11.17" length="28.46" width="3.49" shape="-694.45,187.97 -692.82,190.82 -691.54,192.59 -690.08,194.23 -688.43,195.67 -687.54,196.30 -686.59,196.85 -685.60,197.33 -684.58,197.71 -683.52,198.00 -682.45,198.20 -681.36,198.31 -679.17,198.27 -677.01,197.94 -674.89,197.36 -672.84,196.59 -670.86,195.66"/>
    </edge>
    <edge id=":72_5" function="internal">
        <lane id=":72_5_0" index="0" disallow="pedestrian tram rail_urban rail rail_electric rail_fast ship" speed="36.11" length="39.06" width="3.50" shape="-694.45,187.97 -685.61,205.37 -676.75,222.79"/>
    </edge>
    <edge id=":73_0" function="internal">
        <lane id=":73_0_0" index="0" disallow="pedestrian tram rail_urban rail rail_electric rail_fast ship" speed="36.11" length="39.14" width="3.50" shape="-552.29,475.21 -560.96,457.63 -569.61,440.11"/>
    </edge>
    <edge id=":73_1" function="internal">
        <lane id=":73_1_0" index="0" disallow="pedestrian tram rail_urban rail rail_electric rail_fast ship" speed="12.17" length="34.29" width="3.50" shape="-552.29,475.21 -553.37,472.90 -554.29,470.50 -555.00,468.00 -555.43,465.40 -555.52,462.76 -555.42,461.37 -555.19,460.03 -554.85,458.70 -554.39,457.41 -553.82,456.17 -553.15,454.99 -552.38,453.87 -551.52,452.80 -549.67,450.94 -547.62,449.31 -545.46,447.91 -543.23,446.71"/>
    </edge>
    <edge id=":73_2" function="internal">
        <lane id=":73_2_0" index="0" disallow="pedestrian tram rail_urban rail rail_electric rail_fast ship" speed="11.16" length="28.68" width="3.50" shape="-541.66,449.84 -543.59,450.88 -545.45,452.08 -547.18,453.45 -548.73,455.02 -549.42,455.88 -550.04,456.79 -550.59,457.75 -551.05,458.76 -551.41,459.80 -551.69,460.87 -551.86,461.96 -551.95,463.06 -551.87,465.26 -551.50,467.44 -550.90,469.56 -550.11,471.63 -549.17,473.62"/>
    </edge>
    <edge id=":73_3" function="internal">
        <lane id=":73_3_0" index="0" disallow="pedestrian tram rail_urban rail rail_electric rail_fast ship" speed="12.14" length="33.86" width="3.50" shape="-541.66,449.84 -545.13,451.32 -547.59,452.09 -550.14,452.59 -552.75,452.77 -554.11,452.71 -555.45,452.54 -556.76,452.25 -558.06,451.85 -559.31,451.34 -560.51,450.72 -561.64,450.02 -562.74,449.21 -564.65,447.45 -566.33,445.48 -567.79,443.37 -569.61,440.11"/>
    </edge>
    <edge id=":73_4" function="internal">
        <lane id=":73_4_0" index="0" disallow="pedestrian tram rail_urban rail rail_electric rail_fast ship" speed="11.13" length="28.29" width="3.50" shape="-566.49,438.53 -564.90,441.38 -563.66,443.17 -562.25,444.83 -560.64,446.31 -559.77,446.96 -558.85,447.53 -557.88,448.03 -556.87,448.45 -555.83,448.77 -554.77,449.00 -553.69,449.14 -552.60,449.19 -550.42,449.05 -548.29,448.63 -546.21,447.99 -543.23,446.71"/>
    </edge>
    <edge id=":73_5" function="internal">
        <lane id=":73_5_0" index="0" disallow="pedestrian tram rail_urban rail rail_electric rail_fast ship" speed="36.11" length="39.13" width="3.50" shape="-566.49,438.53 -557.83,456.08 -549.17,473.62"/>
    </edge>
    <edge id=":74_0" function="internal">
        <lane id=":74_0_0" index="0" disallow="pedestrian tram rail_urban rail rail_electric rail_fast ship" speed="10.97" length="29.05" width="3.50" shape="-661.83,414.25 -663.33,411.06 -664.50,409.10 -665.84,407.29 -667.39,405.66 -668.20,404.99 -669.08,404.37 -670.01,403.83 -670.97,403.39 -671.97,403.04 -673.00,402.80 -674.06,402.64 -675.13,402.58 -676.19,402.61 -678.42,402.91 -680.61,403.49 -682.76,404.30 -684.89,405.28"/>
    </edge>
    <edge id=":74_1" function="internal">
        <lane id=":74_1_0" index="0" disallow="pedestrian tram rail_urban rail rail_electric rail_fast ship" speed="36.11" length="40.07" width="3.50" shape="-661.83,414.25 -663.41,410.45 -670.34,394.42 -678.04,377.61"/>
    </edge>
    <edge id=":74_2" function="internal">
        <lane id=":74_2_0" index="0" disallow="pedestrian tram rail_urban rail rail_electric rail_fast ship" speed="12.78" length="35.39" width="3.50" shape="-661.83,414.25 -662.71,411.93 -663.72,408.40 -664.17,405.92 -664.38,403.40 -664.29,400.84 -663.86,398.30 -663.07,395.83 -661.92,393.50 -660.45,391.37 -658.74,389.47 -656.84,387.80 -654.79,386.33 -651.61,384.51"/>
    </edge>
    <edge id=":74_3" function="internal">
        <lane id=":74_3_0" index="0" disallow="pedestrian tram rail_urban rail rail_electric rail_fast ship" speed="11.82" length="30.11" width="3.50" shape="-650.01,387.62 -652.80,389.22 -654.55,390.48 -656.17,391.90 -657.60,393.50 -658.82,395.28 -659.76,397.21 -660.41,399.26 -660.76,401.38 -660.83,403.53 -660.65,405.67 -660.26,407.79 -659.36,410.89 -658.60,412.90"/>
    </edge>
    <edge id=":74_4" function="internal">
        <lane id=":74_4_0" index="0" disallow="pedestrian tram rail_urban rail rail_electric rail_fast ship" speed="36.11" length="39.10" width="3.50" shape="-650.01,387.62 -667.44,396.45 -684.89,405.28"/>
    </edge>
    <edge id=":74_5" function="internal">
        <lane id=":74_5_0" index="0" disallow="pedestrian tram rail_urban rail rail_electric rail_fast ship" speed="12.00" length="34.26" width="3.50" shape="-650.01,387.62 -653.50,389.15 -655.98,389.94 -658.56,390.47 -661.19,390.65 -662.57,390.59 -663.92,390.41 -665.26,390.12 -666.56,389.70 -667.82,389.17 -669.02,388.53 -670.16,387.79 -671.25,386.96 -673.15,385.15 -674.81,383.13 -676.24,380.97 -678.04,377.61"/>
    </edge>
    <edge id=":74_6" function="internal">
        <lane id=":74_6_0" index="0" disallow="pedestrian tram rail_urban rail rail_electric rail_fast ship" speed="10.99" length="28.53" width="3.50" shape="-674.87,376.13 -673.32,379.03 -672.10,380.86 -670.71,382.56 -669.12,384.08 -668.25,384.75 -667.33,385.35 -666.36,385.87 -665.35,386.30 -664.30,386.63 -663.23,386.87 -662.14,387.02 -661.04,387.07 -658.85,386.92 -656.70,386.49 -654.60,385.82 -651.61,384.51"/>
    </edge>
    <edge id=":74_7" function="internal">
        <lane id=":74_7_0" index="0" disallow="pedestrian tram rail_urban rail rail_electric rail_fast ship" speed="36.11" length="40.21" width="3.50" shape="-674.87,376.13 -667.14,393.00 -660.19,409.09 -658.60,412.90"/>
    </edge>
    <edge id=":74_8" function="internal">
        <lane id=":74_8_0" index="0" disallow="pedestrian tram rail_urban rail rail_electric rail_fast ship" speed="12.52" length="35.14" width="3.50" shape="-674.87,376.13 -673.39,379.73 -672.63,382.23 -672.12,384.78 -671.91,387.37 -672.05,389.97 -672.27,391.25 -672.59,392.51 -673.01,393.74 -673.53,394.94 -674.85,397.18 -676.48,399.21 -678.35,401.01 -680.40,402.61 -682.59,404.03 -684.89,405.28"/>
    </edge>
    <edge id=":74_9" function="internal">
        <lane id=":74_9_0" index="0" disallow="pedestrian tram rail_urban rail rail_electric rail_fast ship" speed="11.54" length="29.68" width="3.50" shape="-686.47,402.16 -684.45,401.06 -682.56,399.84 -680.80,398.47 -679.22,396.95 -677.87,395.27 -676.78,393.40 -676.37,392.46 -676.03,391.46 -675.77,390.44 -675.60,389.42 -675.47,387.25 -675.65,385.08 -676.09,382.91 -676.73,380.78 -678.04,377.61"/>
    </edge>
    <edge id=":74_10" function="internal">
        <lane id=":74_10_0" index="0" disallow="pedestrian tram rail_urban rail rail_electric rail_fast ship" speed="36.11" length="39.07" width="3.50" shape="-686.47,402.16 -669.02,393.32 -651.61,384.51"/>
    </edge>
    <edge id=":74_11" function="internal">
        <lane id=":74_11_0" index="0" disallow="pedestrian tram rail_urban rail rail_electric rail_fast ship" speed="11.99" length="34.91" width="3.50" shape="-686.47,402.16 -684.02,401.02 -681.50,400.09 -678.90,399.40 -676.25,399.03 -674.90,398.99 -673.56,399.07 -672.24,399.25 -670.93,399.57 -669.66,400.00 -668.44,400.56 -667.28,401.23 -666.18,402.00 -665.15,402.86 -663.29,404.80 -661.69,406.96 -660.32,409.26 -658.60,412.90"/>
    </edge>
    <edge id=":75_0" function="internal">
        <lane id=":75_0_0" index="0" disallow="pedestrian tram rail_urban rail rail_electric rail_fast ship" speed="24.81" length="21.39" width="3.50" shape="-587.06,138.91 -588.03,139.55 -588.81,140.28 -589.45,141.13 -589.94,142.08 -590.31,143.09 -590.74,145.18 -590.99,148.38 -591.21,152.65 -591.51,154.77 -592.08,156.83 -592.50,157.81 -592.99,158.67"/>
    </edge>
    <edge id=":75_1" function="internal">
        <lane id=":75_1_0" index="0" disallow="pedestrian tram rail_urban rail rail_electric rail_fast ship" speed="15.66" length="36.51" width="3.50" shape="-602.97,124.54 -599.63,131.19 -596.53,137.95 -594.54,142.93 -593.18,147.04 -592.38,150.24 -592.03,152.49 -591.94,154.81 -592.07,156.09 -592.39,157.39 -592.99,158.67"/>
    </edge>
    <edge id=":75_2" function="internal">
        <lane id=":75_2_0" index="0" disallow="pedestrian tram rail_urban rail rail_electric rail_fast ship" speed="14.77" length="32.74" width="3.49" shape="-595.87,156.63 -595.54,155.89 -595.35,154.91 -595.31,153.92 -595.49,151.93 -595.89,149.98 -596.71,147.10 -598.05,143.34 -599.97,138.73 -602.92,132.40 -606.07,126.16"/>
    </edge>
    <edge id=":75_3" function="internal">
        <lane id=":75_3_0" index="0" disallow="pedestrian tram rail_urban rail rail_electric rail_fast ship" speed="28.46" length="22.75" width="3.50" shape="-595.85,156.64 -595.49,156.02 -595.13,155.20 -594.58,153.29 -594.26,151.29 -593.92,146.93 -593.55,143.50 -592.98,141.13 -592.50,139.88 -591.84,138.70 -591.00,137.60 -589.97,136.65 -588.81,135.89"/>
    </edge>

    <edge id="1982" from="74" to="34" priority="3" type="highway.residential" spreadType="center" length="70.00" shape="-666.70,394.32 -630.23,476.88">
        <lane id="1982_0" index="0" disallow="pedestrian tram rail_urban rail rail_electric rail_fast ship" speed="36.11" length="70.00" width="3.50" customShape="1" shape="-658.60,412.90 -652.58,427.37 -645.34,444.07 -639.03,457.31 -635.64,465.21 -631.25,474.88 -630.23,476.88"/>
    </edge>
    <edge id="1983" from="48" to="74" priority="3" type="highway.residential" spreadType="center" length="70.00" shape="-633.47,478.23 -669.90,395.73">
        <lane id="1983_0" index="0" disallow="pedestrian tram rail_urban rail rail_electric rail_fast ship" speed="36.11" length="70.00" width="3.50" customShape="1" shape="-633.47,478.23 -634.45,476.31 -638.86,466.59 -642.24,458.71 -648.55,445.47 -655.80,428.73 -661.83,414.25"/>
    </edge>
    <edge id="2073" from="61" to="73" priority="3" type="highway.residential" spreadType="center" length="70.00" shape="-479.83,417.12 -552.97,455.57">
        <lane id="2073_0" index="0" disallow="pedestrian tram rail_urban rail rail_electric rail_fast ship" speed="36.11" length="70.00" width="3.50" customShape="1" shape="-479.83,417.12 -487.34,421.51 -501.82,429.56 -516.94,437.49 -541.68,449.85"/>
    </edge>
    <edge id="2074" from="73" to="59" priority="3" type="highway.residential" spreadType="center" length="70.00" shape="-554.59,452.47 -481.38,413.97">
        <lane id="2074_0" index="0" disallow="pedestrian tram rail_urban rail rail_electric rail_fast ship" speed="36.11" length="70.00" width="3.50" customShape="1" shape="-543.23,446.71 -518.55,434.38 -503.49,426.48 -489.06,418.46 -481.38,413.97"/>
    </edge>
    <edge id="2201" from="67" to="75" priority="3" type="highway.residential" spreadType="center" length="5.25" shape="-582.54,136.42 -595.20,141.75">
        <lane id="2201_0" index="0" disallow="pedestrian tram rail_urban rail rail_electric rail_fast ship" speed="36.11" length="5.25" width="3.29" customShape="1" shape="-582.54,136.42 -586.91,138.84 -587.02,138.90 -587.14,138.96"/>
    </edge>
    <edge id="2202" from="75" to="64" priority="3" type="highway.residential" spreadType="center" length="5.30" shape="-596.54,138.66 -584.13,133.40">
        <lane id="2202_0" index="0" disallow="pedestrian tram rail_urban rail rail_electric rail_fast ship" speed="36.11" length="5.30" width="3.50" customShape="1" shape="-588.81,135.89 -588.70,135.83 -588.54,135.74 -584.13,133.40"/>
    </edge>
    <edge id="2284" from="74" to="39" priority="3" type="highway.residential" spreadType="center" length="70.00" shape="-669.87,395.82 -707.31,314.02">
        <lane id="2284_0" index="0" disallow="pedestrian tram rail_urban rail rail_electric rail_fast ship" speed="36.11" length="70.00" width="3.50" customShape="1" shape="-678.04,377.61 -707.31,314.02"/>
    </edge>
    <edge id="2285" from="40" to="74" priority="3" type="highway.residential" spreadType="center" length="70.03" shape="-704.14,312.54 -666.69,394.36">