<routes>
	<vehicle depart="0.1" departLane="0" departPos="2.5" departSpeed="2.2637157" id="323" type="passenger">
		<route edges="2543 2584"/>
	</vehicle>
	<vehicle depart="0.1" departLane="0" departPos="69.90091303026824" departSpeed="0.0" id="336" type="passenger">
		<route edges="2583 2546"/>
	</vehicle>
	<vehicle depart="0.1" departLane="0" departPos="16.692525428117406" departSpeed="2.0564878" id="342" type="passenger">
		<route edges="2543 2546"/>
	</vehicle>
	<vehicle depart="0.1" departLane="0" departPos="26.819811576433825" departSpeed="0.0" id="346" type="passenger">
		<route edges="2542 2311"/>
	</vehicle>
	<vehicle depart="0.1" departLane="0" departPos="19.58792379016798" departSpeed="0.0014669077" id="348" type="passenger">
		<route edges="2542 2311"/>
	</vehicle>
	<vehicle depart="0.1" departLane="0" departPos="12.284027371610014" departSpeed="0.076842262" id="354" type="passenger">
		<route edges="2542 2311"/>
	</vehicle>
	<vehicle depart="0.1" departLane="0" departPos="62.39963221699736" departSpeed="0.0" id="356" type="passenger">
		<route edges="2583 2546"/>
	</vehicle>
	<vehicle depart="0.1" departLane="0" departPos="23.87290902404543" departSpeed="4.1871342" id="360" type="passenger">
		<route edges=":69_5 2542"/>
	</vehicle>
	<vehicle depart="0.1" departLane="0" departPos="16.641628994384625" departSpeed="0.33853495" id="373" type="passenger">
		<route edges="2545 2542"/>
	</vehicle>
	<vehicle depart="0.1" departLane="0" departPos="30.9042583858391" departSpeed="0.38810178" id="367" type="truck">
		<route edges="2545 2542 2311"/>
	</vehicle>
</routes>
