<routes>
	<vehicle depart="0.1" departLane="0" departPos="33.51356638420018" departSpeed="0.0" id="315" type="bicycle">
		<route edges="262 103"/>
	</vehicle>
	<vehicle depart="0.1" departLane="0" departPos="18.965446712286017" departSpeed="0.0" id="317" type="bicycle">
		<route edges="104 261"/>
	</vehicle>
	<vehicle depart="0.1" departLane="0" departPos="34.13986911383334" departSpeed="6.7172025" id="348" type="bus">
		<route edges="88 181"/>
	</vehicle>
	<vehicle depart="0.1" departLane="0" departPos="70.35083746994906" departSpeed="0.0" id="32" type="passenger">
		<route edges="109 106"/>
	</vehicle>
	<vehicle depart="0.1" departLane="0" departPos="55.24415997270774" departSpeed="0.0" id="35" type="passenger">
		<route edges="180 89"/>
	</vehicle>
	<vehicle depart="0.1" departLane="0" departPos="62.4708683624239" departSpeed="0.0" id="37" type="passenger">
		<route edges="180 89"/>
	</vehicle>
	<vehicle depart="0.1" departLane="0" departPos="33.094211887284274" departSpeed="0.0" id="38" type="passenger">
		<route edges="262 103"/>
	</vehicle>
	<vehicle depart="0.1" departLane="0" departPos="25.66661292507874" departSpeed="0.0" id="311" type="passenger">
		<route edges="262 103"/>
	</vehicle>
	<vehicle depart="0.1" departLane="0" departPos="135.12776498680537" departSpeed="0.0" id="314" type="passenger">
		<route edges="107 110"/>
	</vehicle>
	<vehicle depart="0.1" departLane="0" departPos="24.333790576719952" departSpeed="0.0" id="316" type="passenger">
		<route edges="104 261"/>
	</vehicle>
	<vehicle depart="0.1" departLane="0" departPos="48.032299718669805" departSpeed="0.0" id="319" type="passenger">
		<route edges="180 89"/>
	</vehicle>
	<vehicle depart="0.1" departLane="0" departPos="63.64591194656631" departSpeed="0.0" id="320" type="passenger">
		<route edges="109 106"/>
	</vehicle>
	<vehicle depart="0.1" departLane="0" departPos="18.21104429987951" departSpeed="0.0" id="322" type="passenger">
		<route edges="262 103"/>
	</vehicle>
	<vehicle depart="0.1" departLane="0" departPos="40.54326859535612" departSpeed="0.0" id="323" type="passenger">
		<route edges="180 89"/>
	</vehicle>
	<vehicle depart="0.1" departLane="0" departPos="14.918377846182809" departSpeed="0.0" id="325" type="passenger">
		<route edges="104 261"/>
	</vehicle>
	<vehicle depart="0.1" departLane="0" departPos="56.54161491810574" departSpeed="0.0" id="328" type="passenger">
		<route edges="109 106"/>
	</vehicle>
	<vehicle depart="0.1" departLane="0" departPos="33.19059259153465" departSpeed="0.0" id="329" type="passenger">
		<route edges="180 89"/>
	</vehicle>
	<vehicle depart="0.1" departLane="0" departPos="7.921191217421103" departSpeed="0.0" id="331" type="passenger">
		<route edges="104 261"/>
	</vehicle>
	<vehicle depart="0.1" departLane="0" departPos="25.884657532205885" departSpeed="0.0" id="332" type="passenger">
		<route edges="180 89"/>
	</vehicle>
	<vehicle depart="0.1" departLane="0" departPos="18.834385069571006" departSpeed="0.0" id="335" type="passenger">
		<route edges="180 89"/>
	</vehicle>
	<vehicle depart="0.1" departLane="0" departPos="39.91798561706331" departSpeed="0.00031636569" id="337" type="passenger">
		<route edges="109 106"/>
	</vehicle>
	<vehicle depart="0.1" departLane="0" departPos="11.80151079580105" departSpeed="6.6410667e-05" id="338" type="passenger">
		<route edges="180 89"/>
	</vehicle>
	<vehicle depart="0.1" departLane="0" departPos="33.00111227599365" departSpeed="0.001035496" id="340" type="passenger">
		<route edges="109 106"/>
	</vehicle>
	<vehicle depart="0.1" departLane="0" departPos="54.449558081884895" departSpeed="15.128255" id="341" type="passenger">
		<route edges="181"/>
	</vehicle>
	<vehicle depart="0.1" departLane="0" departPos="26.29308255725113" departSpeed="0.003035404" id="342" type="passenger">
		<route edges="109 106"/>
	</vehicle>
	<vehicle depart="0.1" departLane="0" departPos="48.19479191361347" departSpeed="18.191019" id="343" type="passenger">
		<route edges="85 106 103"/>
	</vehicle>
	<vehicle depart="0.1" departLane="0" departPos="19.57964367187952" departSpeed="0.0097805985" id="344" type="passenger">
		<route edges="109 106"/>
	</vehicle>
	<vehicle depart="0.1" departLane="0" departPos="16.126321252111197" departSpeed="16.334206" id="345" type="passenger">
		<route edges="85 106 103"/>
	</vehicle>
	<vehicle depart="0.1" departLane="0" departPos="12.488918944348885" departSpeed="0.026811946" id="346" type="passenger">
		<route edges="109 106"/>
	</vehicle>
	<vehicle depart="0.1" departLane="0" departPos="13.211215418147553" departSpeed="4.8451996" id="349" type="passenger">
		<route edges="88 85 106"/>
	</vehicle>
	<vehicle depart="0.1" departLane="0" departPos="49.296114892418174" departSpeed="1.7649903e-05" id="330" type="motorcycle">
		<route edges="109 106"/>
	</vehicle>
	<vehicle depart="0.1" departLane="0" departPos="44.642621505495946" departSpeed="8.6668133e-05" id="334" type="motorcycle">
		<route edges="109 106"/>
	</vehicle>
	<vehicle depart="0.1" departLane="0" departPos="11.14903607962165" departSpeed="0.0" id="326" type="truck">
		<route edges="262 103"/>
	</vehicle>
</routes>
