<!-- generated on Wed Feb 10 12:30:21 2021 by Eclipse SUMO netconvert Version 1.8.0
<configuration xmlns:xsi="http://www.w3.org/2001/XMLSchema-instance" xsi:noNamespaceSchemaLocation="http://sumo.dlr.de/xsd/netconvertConfiguration.xsd">

    <input>
        <node-files value="./converted_scenarios/SUMO/DEU_Lohmar-42_1_I-1-1/DEU_Lohmar-42_1_I-1-1.nod.xml"/>
        <edge-files value="./converted_scenarios/SUMO/DEU_Lohmar-42_1_I-1-1/DEU_Lohmar-42_1_I-1-1.edg.xml"/>
        <connection-files value="./converted_scenarios/SUMO/DEU_Lohmar-42_1_I-1-1/DEU_Lohmar-42_1_I-1-1.con.xml"/>
        <tllogic-files value="./converted_scenarios/SUMO/DEU_Lohmar-42_1_I-1-1/DEU_Lohmar-42_1_I-1-1.tll.xml"/>
        <type-files value="/home/zen/commonroad-interactive-benchmarks/install/commonroad-map-tool/crmapconverter/sumo_map/templates/DEU.typ.xml"/>
    </input>

    <output>
        <output-file value="./converted_scenarios/SUMO/DEU_Lohmar-42_1_I-1-1/DEU_Lohmar-42_1_I-1-1.net.xml"/>
    </output>

    <processing>
        <geometry.remove.keep-edges.explicit value="true"/>
        <geometry.avoid-overlap value="true"/>
        <offset.disable-normalization value="true"/>
    </processing>

    <junctions>
        <no-turnarounds value="true"/>
        <junctions.internal-link-detail value="20"/>
    </junctions>

    <report>
        <aggregate-warnings value="5"/>
    </report>

    <random_number>
        <seed value="1234"/>
    </random_number>

</configuration>
--><net xmlns:xsi="http://www.w3.org/2001/XMLSchema-instance" version="1.6" junctionCornerDetail="5" junctionLinkDetail="20" limitTurnSpeed="5.50" xsi:noNamespaceSchemaLocation="http://sumo.dlr.de/xsd/net_file.xsd">

    <location netOffset="0.00,0.00" convBoundary="28.68,-49.50,366.31,47.20" origBoundary="28.68,-55.10,366.31,47.20" projParameter="!"/>

    <type id="highway.bridleway" priority="1" speed="2.78" allow="pedestrian" oneway="1" width="2.00"/>
    <type id="highway.bus_guideway" priority="1" speed="27.78" allow="bus" oneway="1"/>
    <type id="highway.cycleway" priority="1" speed="8.33" allow="bicycle" oneway="0" width="1.00"/>
    <type id="highway.footway" priority="1" speed="2.78" allow="pedestrian" oneway="1" width="2.00"/>
    <type id="highway.ford" priority="1" speed="2.78" allow="army" oneway="0"/>
    <type id="highway.living_street" priority="2" speed="2.78" disallow="tram rail_urban rail rail_electric rail_fast ship" oneway="0"/>
    <type id="highway.motorway" priority="14" speed="39.44" allow="private emergency authority army vip passenger hov taxi bus coach delivery truck trailer motorcycle evehicle custom1 custom2" oneway="1"/>
    <type id="highway.motorway_link" priority="9" speed="22.22" allow="private emergency authority army vip passenger hov taxi bus coach delivery truck trailer motorcycle evehicle custom1 custom2" oneway="1"/>
    <type id="highway.path" priority="1" speed="2.78" allow="pedestrian bicycle" oneway="0" width="2.00"/>
    <type id="highway.pedestrian" priority="1" speed="2.78" allow="pedestrian" oneway="1" width="2.00"/>
    <type id="highway.primary" priority="12" speed="27.78" disallow="pedestrian tram rail_urban rail rail_electric rail_fast ship" oneway="0"/>
    <type id="highway.primary_link" priority="7" speed="22.22" disallow="pedestrian tram rail_urban rail rail_electric rail_fast ship" oneway="0"/>
    <type id="highway.raceway" priority="15" speed="83.33" allow="vip" oneway="0"/>
    <type id="highway.residential" priority="3" speed="13.89" disallow="pedestrian tram rail_urban rail rail_electric rail_fast ship" oneway="0"/>
    <type id="highway.secondary" priority="11" speed="27.78" disallow="pedestrian tram rail_urban rail rail_electric rail_fast ship" oneway="0"/>
    <type id="highway.secondary_link" priority="6" speed="22.22" disallow="pedestrian tram rail_urban rail rail_electric rail_fast ship" oneway="0"/>
    <type id="highway.service" priority="1" speed="5.56" allow="pedestrian delivery bicycle" oneway="0"/>
    <type id="highway.stairs" priority="1" speed="1.39" allow="pedestrian" oneway="1" width="2.00"/>
    <type id="highway.step" priority="1" speed="1.39" allow="pedestrian" oneway="1" width="2.00"/>
    <type id="highway.steps" priority="1" speed="1.39" allow="pedestrian" oneway="1" width="2.00"/>
    <type id="highway.tertiary" priority="10" speed="22.22" disallow="pedestrian tram rail_urban rail rail_electric rail_fast ship" oneway="0"/>
    <type id="highway.tertiary_link" priority="5" speed="22.22" disallow="pedestrian tram rail_urban rail rail_electric rail_fast ship" oneway="0"/>
    <type id="highway.track" priority="1" speed="5.56" allow="pedestrian motorcycle moped bicycle" oneway="0"/>
    <type id="highway.trunk" priority="13" speed="27.78" disallow="pedestrian bicycle tram rail_urban rail rail_electric rail_fast ship" oneway="0"/>
    <type id="highway.trunk_link" priority="8" speed="22.22" disallow="pedestrian bicycle tram rail_urban rail rail_electric rail_fast ship" oneway="0"/>
    <type id="highway.unclassified" priority="4" speed="13.89" disallow="pedestrian tram rail_urban rail rail_electric rail_fast ship" oneway="0"/>
    <type id="highway.unsurfaced" priority="1" speed="8.33" disallow="tram rail_urban rail rail_electric rail_fast ship" oneway="0"/>
    <type id="railway.highspeed" priority="21" speed="69.44" allow="rail_fast" oneway="1"/>
    <type id="railway.light_rail" priority="19" speed="27.78" allow="rail_urban" oneway="1"/>
    <type id="railway.preserved" priority="16" speed="27.78" allow="rail" oneway="1"/>
    <type id="railway.rail" priority="20" speed="44.44" allow="rail" oneway="1"/>
    <type id="railway.subway" priority="18" speed="27.78" allow="rail_urban" oneway="1"/>
    <type id="railway.tram" priority="17" speed="13.89" allow="tram" oneway="1"/>

    <edge id=":29_0" function="internal">
        <lane id=":29_0_0" index="0" disallow="pedestrian tram rail_urban rail rail_electric rail_fast ship" speed="22.60" length="21.49" width="3.50" shape="208.73,4.93 207.70,3.88 205.47,1.93 202.66,-0.10 199.22,-2.12 195.14,-4.07 190.40,-5.90"/>
    </edge>
    <edge id=":29_1" function="internal">
        <lane id=":29_1_0" index="0" disallow="pedestrian tram rail_urban rail rail_electric rail_fast ship" speed="33.87" length="22.55" width="3.50" shape="212.84,-5.29 204.47,-4.84 198.18,-4.83 194.00,-5.14 191.43,-5.60 190.40,-5.90"/>
    </edge>
    <edge id=":29_2" function="internal">
        <lane id=":29_2_0" index="0" disallow="pedestrian tram rail_urban rail rail_electric rail_fast ship" speed="32.95" length="21.20" width="3.50" shape="191.52,-9.21 192.35,-8.97 194.67,-8.57 198.57,-8.31 204.56,-8.34 212.63,-8.78"/>
    </edge>
    <edge id=":29_3" function="internal">
        <lane id=":29_3_0" index="0" disallow="pedestrian tram rail_urban rail rail_electric rail_fast ship" speed="23.45" length="23.19" width="3.50" shape="191.52,-9.21 196.58,-7.26 200.95,-5.16 204.65,-2.97 207.71,-0.76 210.13,1.37 211.27,2.52"/>
    </edge>
    <edge id=":30_0" function="internal">
        <lane id=":30_0_0" index="0" disallow="pedestrian tram rail_urban rail rail_electric rail_fast ship" speed="36.11" length="17.66" width="3.50" shape="299.64,8.71 290.48,7.10 282.25,5.63"/>
    </edge>
    <edge id=":30_1" function="internal">
        <lane id=":30_1_0" index="0" disallow="pedestrian tram rail_urban rail rail_electric rail_fast ship" speed="9.16" length="16.43" width="3.49" shape="299.64,8.71 296.79,8.10 294.94,7.29 293.82,6.54 292.84,5.62 292.01,4.55 291.36,3.37 290.69,1.46 290.33,-0.52 290.20,-2.58"/>
    </edge>
    <edge id=":30_2" function="internal">
        <lane id=":30_2_0" index="0" disallow="pedestrian tram rail_urban rail rail_electric rail_fast ship" speed="7.75" length="11.47" width="3.50" shape="293.70,-2.64 293.80,-1.06 294.05,0.38 294.51,1.73 294.91,2.48 295.42,3.17 296.04,3.76 296.70,4.23 297.96,4.79 300.16,5.25"/>
    </edge>
    <edge id=":30_3" function="internal">
        <lane id=":30_3_0" index="0" disallow="pedestrian tram rail_urban rail rail_electric rail_fast ship" speed="8.13" length="16.85" width="3.50" shape="293.71,-2.64 293.55,-0.43 293.19,1.08 292.52,2.58 291.52,3.86 290.77,4.51 289.38,5.29 287.85,5.75 286.35,5.94 284.25,5.90 282.25,5.63"/>
    </edge>
    <edge id=":30_4" function="internal">
        <lane id=":30_4_0" index="0" disallow="pedestrian tram rail_urban rail rail_electric rail_fast ship" speed="6.56" length="10.51" width="3.49" shape="282.86,2.18 283.40,2.27 283.95,2.34 284.50,2.39 285.05,2.42 285.60,2.42 286.15,2.38 286.70,2.30 287.23,2.18 287.75,2.00 288.24,1.76 288.70,1.45 289.10,1.08 289.45,0.64 289.71,0.16 289.91,-0.36 290.05,-0.89 290.14,-1.43 290.19,-1.99 290.21,-2.58"/>
    </edge>
    <edge id=":30_5" function="internal">
        <lane id=":30_5_0" index="0" disallow="pedestrian tram rail_urban rail rail_electric rail_fast ship" speed="36.11" length="17.57" width="3.50" shape="282.86,2.18 291.09,3.65 300.16,5.25"/>
    </edge>
    <edge id=":31_0" function="internal">
        <lane id=":31_0_0" index="0" disallow="pedestrian tram rail_urban rail rail_electric rail_fast ship" speed="8.02" length="12.01" width="3.50" shape="60.65,-41.60 60.04,-43.87 59.47,-45.30 58.75,-46.59 57.84,-47.68 57.17,-48.23 56.43,-48.66 55.60,-48.96 54.75,-49.14 53.00,-49.16"/>
    </edge>
    <edge id=":31_1" function="internal">
        <lane id=":31_1_0" index="0" disallow="pedestrian tram rail_urban rail rail_electric rail_fast ship" speed="8.15" length="17.09" width="3.50" shape="60.65,-41.60 60.36,-43.13 60.18,-45.16 60.31,-47.25 60.68,-48.75 61.34,-50.16 62.31,-51.44 63.54,-52.45 64.90,-53.17 66.34,-53.63 68.36,-53.96"/>
    </edge>
    <edge id=":31_2" function="internal">
        <lane id=":31_2_0" index="0" disallow="pedestrian tram rail_urban rail rail_electric rail_fast ship" speed="6.60" length="10.72" width="3.50" shape="68.56,-50.45 67.28,-50.24 66.39,-49.94 65.56,-49.48 64.86,-48.86 64.32,-48.08 63.97,-47.21 63.77,-46.29 63.72,-44.87 63.85,-43.46 64.02,-42.54"/>
    </edge>
    <edge id=":31_3" function="internal">
        <lane id=":31_3_0" index="0" disallow="pedestrian tram rail_urban rail rail_electric rail_fast ship" speed="36.11" length="15.61" width="3.50" shape="68.56,-50.46 65.61,-50.21 53.00,-49.16"/>
    </edge>
    <edge id=":31_4" function="internal">
        <lane id=":31_4_0" index="0" disallow="pedestrian tram rail_urban rail rail_electric rail_fast ship" speed="36.11" length="15.67" width="3.50" shape="52.74,-52.65 65.32,-53.70 68.36,-53.96"/>
    </edge>
    <edge id=":31_5" function="internal">
        <lane id=":31_5_0" index="0" disallow="pedestrian tram rail_urban rail rail_electric rail_fast ship" speed="9.39" length="16.86" width="3.50" shape="52.74,-52.65 55.15,-52.63 56.51,-52.38 57.81,-51.93 59.02,-51.28 60.11,-50.43 61.47,-48.88 62.51,-47.10 63.29,-45.19 64.02,-42.54"/>
    </edge>

    <edge id="103" from="31" to="3" priority="3" type="highway.residential" spreadType="center" length="23.90" shape="61.47,-46.68 29.32,-46.06">
        <lane id="103_0" index="0" disallow="pedestrian tram rail_urban rail rail_electric rail_fast ship" speed="36.11" length="23.90" width="3.50" customShape="1" shape="53.00,-49.16 47.71,-48.77 40.71,-47.93 29.32,-46.06"/>
    </edge>
    <edge id="104" from="19" to="31" priority="3" type="highway.residential" spreadType="center" length="24.28" shape="28.68,-49.50 61.39,-50.18">
        <lane id="104_0" index="0" disallow="pedestrian tram rail_urban rail rail_electric rail_fast ship" speed="36.11" length="24.28" width="3.50" customShape="1" shape="28.68,-49.50 40.22,-51.39 47.39,-52.25 52.74,-52.65"/>
    </edge>
    <edge id="106" from="29" to="31" priority="3" type="highway.residential" spreadType="center" length="133.79" shape="204.05,-1.95 60.80,-46.77">
        <lane id="106_0" index="0" disallow="pedestrian tram rail_urban rail rail_electric rail_fast ship" speed="36.11" length="133.79" width="3.50" customShape="1" shape="190.40,-5.90 174.65,-11.26 167.99,-13.86 162.40,-16.43 157.84,-18.89 153.92,-21.39 149.38,-24.74 137.33,-34.67 132.58,-38.21 128.45,-40.85 122.74,-43.88 117.32,-46.38 112.70,-48.15 107.97,-49.59 103.16,-50.66 98.75,-51.29 93.81,-51.60 88.33,-51.58 68.56,-50.46"/>
    </edge>
    <edge id="107" from="31" to="29" priority="3" type="highway.residential" spreadType="center" length="135.14" shape="61.84,-50.10 205.09,-5.29">
        <lane id="107_0" index="0" disallow="pedestrian tram rail_urban rail rail_electric rail_fast ship" speed="36.11" length="135.14" width="3.50" customShape="1" shape="68.36,-53.96 88.23,-55.08 93.92,-55.10 99.12,-54.77 103.80,-54.10 108.87,-52.97 113.84,-51.46 118.68,-49.60 124.30,-47.02 130.22,-43.86 134.57,-41.08 139.50,-37.41 151.53,-27.50 155.90,-24.28 159.61,-21.91 163.96,-19.57 169.35,-17.08 175.84,-14.55 191.53,-9.21"/>
    </edge>
    <edge id="109" from="28" to="29" priority="3" type="highway.residential" spreadType="center" length="70.04" shape="263.48,47.20 203.43,-2.30">
        <lane id="109_0" index="0" disallow="pedestrian tram rail_urban rail rail_electric rail_fast ship" speed="36.11" length="70.04" width="3.50" customShape="1" shape="263.48,47.20 260.76,46.42 255.89,44.68 251.57,42.77 249.19,41.32 241.34,35.28 233.08,28.29 222.99,19.24 215.25,11.96 208.71,4.90"/>
    </edge>
    <edge id="110" from="29" to="15" priority="3" type="highway.residential" spreadType="center" length="70.00" shape="205.64,-5.00 266.23,44.35">
        <lane id="110_0" index="0" disallow="pedestrian tram rail_urban rail rail_electric rail_fast ship" speed="36.11" length="70.00" width="3.50" customShape="1" shape="211.27,2.52 217.73,9.50 225.35,16.66 235.38,25.65 243.54,32.55 251.17,38.44 253.16,39.65 257.18,41.43 261.83,43.09 266.23,44.35"/>
    </edge>
    <edge id="180" from="10" to="30" priority="3" type="highway.residential" spreadType="center" length="62.58" shape="330.18,-41.28 292.50,3.90">
        <lane id="180_0" index="0" disallow="pedestrian tram rail_urban rail rail_electric rail_fast ship" speed="36.11" length="62.58" width="3.50" customShape="1" shape="330.18,-41.28 329.20,-40.94 324.65,-39.66 313.17,-37.21 308.87,-36.05 305.70,-34.86 303.15,-33.57 301.20,-32.27 299.44,-30.76 297.88,-29.03 296.56,-27.11 295.49,-25.04 294.69,-22.84 294.12,-20.54 293.70,-17.68 293.49,-13.75 293.70,-2.56"/>
    </edge>
    <edge id="181" from="30" to="27" priority="3" type="highway.residential" spreadType="center" length="66.93" shape="289.82,1.65 329.04,-44.59">
        <lane id="181_0" index="0" disallow="pedestrian tram rail_urban rail rail_electric rail_fast ship" speed="36.11" length="66.93" width="3.49" customShape="1" shape="290.21,-2.54 290.00,-13.82 290.22,-18.04 290.69,-21.23 291.35,-23.88 292.30,-26.47 293.57,-28.93 295.16,-31.22 297.01,-33.28 299.11,-35.08 301.41,-36.60 304.31,-38.07 307.82,-39.38 312.36,-40.61 323.81,-43.06 328.12,-44.27 329.04,-44.59"/>
    </edge>
    <edge id="261" from="31" to="12" priority="3" type="highway.residential" spreadType="center" length="29.48" shape="62.34,-49.86 88.47,-29.29">
        <lane id="261_0" index="0" disallow="pedestrian tram rail_urban rail rail_electric rail_fast ship" speed="36.11" length="29.48" width="3.50" customShape="1" shape="64.02,-42.54 64.52,-40.75 65.06,-39.57 65.77,-38.47 66.92,-37.16 68.30,-35.99 70.25,-34.72 73.75,-32.93 75.93,-32.04 78.64,-31.25 83.44,-30.31 88.47,-29.29"/>
    </edge>
    <edge id="262" from="26" to="31" priority="3" type="highway.residential" spreadType="center" length="33.25" shape="87.71,-25.88 60.20,-47.10">
        <lane id="262_0" index="0" disallow="pedestrian tram rail_urban rail rail_electric rail_fast ship" speed="36.11" length="33.25" width="3.50" customShape="1" shape="87.71,-25.88 82.80,-26.87 77.81,-27.85 74.75,-28.74 72.26,-29.76 68.49,-31.70 66.18,-33.21 64.45,-34.69 62.94,-36.42 61.97,-37.94 61.22,-39.58 60.65,-41.60"/>
    </edge>
    <edge id="85" from="30" to="29" priority="3" type="highway.residential" spreadType="center" length="70.49" shape="291.09,4.48 204.44,-1.88">
        <lane id="85_0" index="0" disallow="pedestrian tram rail_urban rail rail_electric rail_fast ship" speed="36.11" length="70.49" width="3.50" customShape="1" shape="282.25,5.63 257.83,1.09 247.34,-1.02 235.02,-3.58 228.12,-4.68 222.19,-5.29 217.25,-5.48 212.78,-5.28"/>
    </edge>
    <edge id="86" from="29" to="30" priority="3" type="highway.residential" spreadType="center" length="71.28" shape="204.70,-5.37 291.35,0.99">
        <lane id="86_0" index="0" disallow="pedestrian tram rail_urban rail rail_electric rail_fast ship" speed="36.11" length="71.28" width="3.50" customShape="1" shape="212.63,-8.78 217.25,-8.97 222.44,-8.78 228.58,-8.15 235.66,-7.02 248.06,-4.44 258.47,-2.35 282.89,2.19"/>
    </edge>
    <edge id="88" from="16" to="30" priority="3" type="highway.residential" spreadType="center" length="66.77" shape="366.11,14.74 290.91,4.46">
        <lane id="88_0" index="0" disallow="pedestrian tram rail_urban rail rail_electric rail_fast ship" speed="36.11" length="66.77" width="3.50" customShape="1" shape="366.11,14.74 353.96,14.07 338.21,13.08 322.00,11.58 307.37,9.86 299.64,8.71"/>
    </edge>
    <edge id="89" from="30" to="6" priority="3" type="highway.residential" spreadType="center" length="66.45" shape="291.38,1.00 366.31,11.25">
        <lane id="89_0" index="0" disallow="pedestrian tram rail_urban rail rail_electric rail_fast ship" speed="36.11" length="66.45" width="3.50" customShape="1" shape="300.16,5.25 307.83,6.39 322.36,8.10 338.48,9.59 354.15,10.58 366.31,11.25"/>
    </edge>

    <junction id="10" type="dead_end" x="330.18" y="-41.28" incLanes="" intLanes="" shape="329.62,-42.94 330.75,-39.63" rightOfWay="edgePriority"/>
    <junction id="12" type="dead_end" x="88.47" y="-29.29" incLanes="261_0" intLanes="" shape="88.81,-31.01 88.12,-27.58" rightOfWay="edgePriority"/>
    <junction id="15" type="dead_end" x="266.23" y="44.35" incLanes="110_0" intLanes="" shape="266.71,42.67 265.75,46.03" rightOfWay="edgePriority"/>
    <junction id="16" type="dead_end" x="366.11" y="14.74" incLanes="" intLanes="" shape="366.20,13.00 366.01,16.49" rightOfWay="edgePriority"/>
    <junction id="19" type="dead_end" x="28.68" y="-49.50" incLanes="" intLanes="" shape="28.97,-47.77 28.40,-51.22" rightOfWay="edgePriority"/>
    <junction id="26" type="dead_end" x="87.71" y="-25.88" incLanes="" intLanes="" shape="88.05,-27.59 87.36,-24.16" rightOfWay="edgePriority"/>
    <junction id="27" type="dead_end" x="329.04" y="-44.59" incLanes="181_0" intLanes="" shape="328.47,-46.24 329.61,-42.94" rightOfWay="edgePriority"/>
    <junction id="28" type="dead_end" x="263.48" y="47.20" incLanes="" intLanes="" shape="263.96,45.52 263.00,48.88" rightOfWay="edgePriority"/>
    <junction id="29" type="priority" x="204.57" y="-3.62" incLanes="109_0 85_0 107_0" intLanes=":29_0_0 :29_1_0 :29_2_0 :29_3_0" shape="207.42,6.09 212.56,1.33 210.67,-1.28 210.47,-2.22 210.76,-2.91 211.56,-3.35 212.85,-3.54 212.56,-10.53 208.16,-10.18 204.86,-9.69 202.12,-9.30 199.43,-9.22 196.26,-9.67 192.09,-10.87 189.84,-4.25 194.01,-2.86 197.15,-1.77 199.65,-0.65 201.93,0.81 204.38,2.95">
        <request index="0" response="0010" foes="0010" cont="0"/>
        <request index="1" response="0000" foes="1001" cont="0"/>
        <request index="2" response="0000" foes="0000" cont="0"/>
        <request index="3" response="0010" foes="0010" cont="0"/>
    </junction>
    <junction id="3" type="dead_end" x="29.32" y="-46.06" incLanes="103_0" intLanes="" shape="29.61,-44.33 29.04,-47.78" rightOfWay="edgePriority"/>
    <junction id="30" type="priority" x="291.19" y="2.74" incLanes="88_0 180_0 86_0" intLanes=":30_0_0 :30_1_0 :30_2_0 :30_3_0 :30_4_0 :30_5_0" shape="299.39,10.44 300.41,3.52 297.70,2.51 296.74,1.61 296.05,0.45 295.62,-0.98 295.45,-2.67 288.46,-2.54 287.91,-0.43 287.18,0.21 286.16,0.57 284.83,0.66 283.20,0.47 281.93,7.35">
        <request index="0" response="000000" foes="001000" cont="0"/>
        <request index="1" response="110000" foes="111000" cont="0"/>
        <request index="2" response="100000" foes="100000" cont="0"/>
        <request index="3" response="100011" foes="100011" cont="0"/>
        <request index="4" response="000000" foes="000010" cont="0"/>
        <request index="5" response="000000" foes="001110" cont="0"/>
    </junction>
    <junction id="31" type="priority" x="61.34" y="-48.43" incLanes="262_0 106_0 104_0" intLanes=":31_0_0 :31_1_0 :31_2_0 :31_3_0 :31_4_0 :31_5_0" shape="58.97,-41.14 65.71,-43.00 65.36,-46.07 65.69,-47.16 66.35,-47.97 67.34,-48.49 68.66,-48.72 68.27,-55.70 52.61,-54.39 53.13,-47.42 55.55,-46.85 56.59,-46.00 57.50,-44.76 58.29,-43.14">
        <request index="0" response="001000" foes="001000" cont="0"/>
        <request index="1" response="111000" foes="111000" cont="0"/>
        <request index="2" response="000000" foes="100000" cont="0"/>
        <request index="3" response="000000" foes="100011" cont="0"/>
        <request index="4" response="000000" foes="000010" cont="0"/>
        <request index="5" response="001100" foes="001110" cont="0"/>
    </junction>
    <junction id="6" type="dead_end" x="366.31" y="11.25" incLanes="89_0" intLanes="" shape="366.40,9.50 366.21,13.00" rightOfWay="edgePriority"/>

    <connection from="104" to="107" fromLane="0" toLane="0" contPos="-4.00" shape="53.08,-52.67 65.32,-53.70 68.36,-53.96" via=":31_4_0" dir="s" state="M"/>
    <connection from="104" to="261" fromLane="0" toLane="0" contPos="-4.00" shape="53.08,-52.67 55.15,-52.63 56.51,-52.38 57.81,-51.93 59.02,-51.28 60.11,-50.43 61.47,-48.88 62.51,-47.10 63.29,-45.19 64.02,-42.54" via=":31_5_0" dir="L" state="m"/>
    <connection from="106" to="261" fromLane="0" toLane="0" contPos="-4.00" shape="68.68,-50.47 67.28,-50.24 66.39,-49.94 65.56,-49.48 64.86,-48.86 64.32,-48.08 63.97,-47.21 63.77,-46.29 63.72,-44.87 63.85,-43.46 64.02,-42.54" via=":31_2_0" dir="r" state="M"/>
    <connection from="106" to="103" fromLane="0" toLane="0" contPos="-4.00" shape="68.68,-50.47 65.61,-50.21 53.26,-49.18" via=":31_3_0" dir="s" state="M"/>
    <connection from="107" to="86" fromLane="0" toLane="0" contPos="-4.00" shape="191.53,-9.21 192.35,-8.97 194.67,-8.57 198.57,-8.31 204.56,-8.34 212.63,-8.78" via=":29_2_0" dir="s" state="M"/>
    <connection from="107" to="110" fromLane="0" toLane="0" contPos="-4.00" shape="191.53,-9.21 196.58,-7.26 200.95,-5.16 204.65,-2.97 207.71,-0.76 210.13,1.37 211.27,2.52" via=":29_3_0" dir="L" state="m"/>
    <connection from="109" to="106" fromLane="0" toLane="0" contPos="-4.00" shape="208.73,4.93 207.70,3.88 205.47,1.93 202.66,-0.10 199.22,-2.12 195.14,-4.07 190.40,-5.90" via=":29_0_0" dir="s" state="m"/>
    <connection from="180" to="89" fromLane="0" toLane="0" contPos="-4.00" shape="293.70,-2.56 293.80,-1.06 294.05,0.38 294.51,1.73 294.91,2.48 295.42,3.17 296.04,3.76 296.70,4.23 297.96,4.79 299.36,5.13" via=":30_2_0" dir="r" state="m"/>
    <connection from="180" to="85" fromLane="0" toLane="0" contPos="-4.00" shape="293.70,-2.56 293.55,-0.43 293.19,1.08 292.52,2.58 291.52,3.86 290.77,4.51 289.38,5.29 287.85,5.75 286.35,5.94 284.25,5.90 282.25,5.63" via=":30_3_0" dir="l" state="m"/>
    <connection from="262" to="103" fromLane="0" toLane="0" contPos="-4.00" shape="60.61,-41.76 60.04,-43.87 59.47,-45.30 58.75,-46.59 57.84,-47.68 57.17,-48.23 56.43,-48.66 55.60,-48.96 54.75,-49.14 53.26,-49.18" via=":31_0_0" dir="s" state="m"/>
    <connection from="262" to="107" fromLane="0" toLane="0" contPos="-4.00" shape="60.61,-41.76 60.36,-43.13 60.18,-45.16 60.31,-47.25 60.68,-48.75 61.34,-50.16 62.31,-51.44 63.54,-52.45 64.90,-53.17 66.34,-53.63 68.36,-53.96" via=":31_1_0" dir="l" state="m"/>
    <connection from="85" to="106" fromLane="0" toLane="0" contPos="-4.00" shape="212.84,-5.29 204.47,-4.84 198.18,-4.83 194.00,-5.14 191.43,-5.60 190.40,-5.90" via=":29_1_0" dir="s" state="M"/>
    <connection from="86" to="181" fromLane="0" toLane="0" contPos="-4.00" shape="282.86,2.18 283.40,2.27 283.95,2.34 284.50,2.39 285.05,2.42 285.60,2.42 286.15,2.38 286.70,2.30 287.23,2.18 287.75,2.00 288.24,1.76 288.70,1.45 289.10,1.08 289.45,0.64 289.71,0.16 289.91,-0.36 290.05,-0.89 290.14,-1.43 290.19,-1.99 290.21,-2.54" via=":30_4_0" dir="r" state="M"/>
    <connection from="86" to="89" fromLane="0" toLane="0" contPos="-4.00" shape="282.86,2.18 291.09,3.65 299.36,5.13" via=":30_5_0" dir="s" state="M"/>
    <connection from="88" to="85" fromLane="0" toLane="0" contPos="-4.00" shape="298.75,8.58 290.48,7.10 282.25,5.63" via=":30_0_0" dir="s" state="M"/>
    <connection from="88" to="181" fromLane="0" toLane="0" contPos="-4.00" shape="298.75,8.58 296.79,8.10 294.94,7.29 293.82,6.54 292.84,5.62 292.01,4.55 291.36,3.37 290.69,1.46 290.33,-0.52 290.21,-2.54" via=":30_1_0" dir="l" state="m"/>

    <connection from=":29_0" to="106" fromLane="0" toLane="0" dir="s" state="M"/>
    <connection from=":29_1" to="106" fromLane="0" toLane="0" dir="s" state="M"/>
    <connection from=":29_2" to="86" fromLane="0" toLane="0" dir="s" state="M"/>
    <connection from=":29_3" to="110" fromLane="0" toLane="0" dir="L" state="M"/>
    <connection from=":30_0" to="85" fromLane="0" toLane="0" dir="s" state="M"/>
    <connection from=":30_1" to="181" fromLane="0" toLane="0" dir="l" state="M"/>
    <connection from=":30_2" to="89" fromLane="0" toLane="0" dir="r" state="M"/>
    <connection from=":30_3" to="85" fromLane="0" toLane="0" dir="l" state="M"/>
    <connection from=":30_4" to="181" fromLane="0" toLane="0" dir="r" state="M"/>
    <connection from=":30_5" to="89" fromLane="0" toLane="0" dir="s" state="M"/>
    <connection from=":31_0" to="103" fromLane="0" toLane="0" dir="s" state="M"/>
    <connection from=":31_1" to="107" fromLane="0" toLane="0" dir="l" state="M"/>
    <connection from=":31_2" to="261" fromLane="0" toLane="0" dir="r" state="M"/>
    <connection from=":31_3" to="103" fromLane="0" toLane="0" dir="s" state="M"/>
    <connection from=":31_4" to="107" fromLane="0" toLane="0" dir="s" state="M"/>
    <connection from=":31_5" to="261" fromLane="0" toLane="0" dir="L" state="M"/>

</net>