<routes>
	<vehicle depart="0.1" departLane="0" departPos="5.026899762369885" departSpeed="0.45927674" id="31" type="passenger">
		<route edges=":25_5 107264"/>
	</vehicle>
	<vehicle depart="0.1" departLane="0" departPos="57.76899827662741" departSpeed="0.46781592" id="34" type="passenger">
		<route edges="107265 108605"/>
	</vehicle>
	<vehicle depart="0.1" departLane="0" departPos="47.3186804098636" departSpeed="0.045956283" id="36" type="passenger">
		<route edges="107265 108605"/>
	</vehicle>
	<vehicle depart="0.1" departLane="0" departPos="38.16064037317999" departSpeed="0.78470236" id="38" type="passenger">
		<route edges="107265 108605"/>
	</vehicle>
	<vehicle depart="0.1" departLane="0" departPos="58.187606722613" departSpeed="0.018129206" id="314" type="passenger">
		<route edges="108608 107264"/>
	</vehicle>
	<vehicle depart="0.1" departLane="0" departPos="2.5" departSpeed="0.38506398" id="316" type="passenger">
		<route edges=":25_7 107268"/>
	</vehicle>
	<vehicle depart="0.1" departLane="0" departPos="29.115818255003493" departSpeed="0.86235488" id="324" type="passenger">
		<route edges="107265 108605"/>
	</vehicle>
	<vehicle depart="0.1" departLane="0" departPos="16.073967901965446" departSpeed="10.515785" id="344" type="passenger">
		<route edges=":25_2 108609"/>
	</vehicle>
	<vehicle depart="0.1" departLane="0" departPos="14.819346180530626" departSpeed="0.89446834" id="30" type="truck">
		<route edges=":25_8 108605"/>
	</vehicle>
	<vehicle depart="0.1" departLane="0" departPos="13.857287815621609" departSpeed="4.3051795" id="319" type="truck">
		<route edges=":25_9 107264"/>
	</vehicle>
</routes>
