<routes>
	<vehicle depart="0.1" departLane="0" departPos="20.69053970348636" departSpeed="6.1141871" id="312" type="passenger">
		<route edges=":19_1 126032 126035"/>
	</vehicle>
	<vehicle depart="0.1" departLane="0" departPos="27.808381922019507" departSpeed="2.7615925" id="317" type="passenger">
		<route edges="126091 126032"/>
	</vehicle>
	<vehicle depart="0.1" departLane="0" departPos="17.73825818091468" departSpeed="2.2337148" id="319" type="passenger">
		<route edges="126091 126032"/>
	</vehicle>
	<vehicle depart="0.1" departLane="0" departPos="2.5" departSpeed="1.6996564" id="322" type="passenger">
		<route edges="126091 125293"/>
	</vehicle>
	<vehicle depart="0.1" departLane="0" departPos="17.28357701912195" departSpeed="1.1589753" id="311" type="truck">
		<route edges=":19_1 126032"/>
	</vehicle>
</routes>
