<routes>
	<vehicle depart="0.1" departLane="0" departPos="21.58385563419512" departSpeed="1.6176777" id="314" type="passenger">
		<route edges=":37_1 141382"/>
	</vehicle>
	<vehicle depart="0.1" departLane="0" departPos="12.44554155561396" departSpeed="1.8439267" id="338" type="passenger">
		<route edges=":40_3 141424"/>
	</vehicle>
	<vehicle depart="0.1" departLane="0" departPos="14.927880482197805" departSpeed="0.0" id="343" type="passenger">
		<route edges="141403 141382"/>
	</vehicle>
	<vehicle depart="0.1" departLane="0" departPos="7.428701239966243" departSpeed="4.0725101e-05" id="347" type="passenger">
		<route edges="141403 141382"/>
	</vehicle>
	<vehicle depart="0.1" departLane="0" departPos="2.5" departSpeed="9.8632623" id="352" type="passenger">
		<route edges=":40_0 141383 141418"/>
	</vehicle>
	<vehicle depart="0.1" departLane="0" departPos="7.7016405462782656" departSpeed="9.7926693" id="33" type="motorcycle">
		<route edges=":37_2 141418 141400"/>
	</vehicle>
</routes>
