<!-- generated on Tue Feb  9 22:10:57 2021 by Eclipse SUMO netconvert Version 1.8.0
<configuration xmlns:xsi="http://www.w3.org/2001/XMLSchema-instance" xsi:noNamespaceSchemaLocation="http://sumo.dlr.de/xsd/netconvertConfiguration.xsd">

    <input>
        <node-files value="./converted_scenarios/scenario-factory/BEL_Beringen-3_3_I-1-1/BEL_Beringen-3_3_I-1-1.nod.xml"/>
        <edge-files value="./converted_scenarios/scenario-factory/BEL_Beringen-3_3_I-1-1/BEL_Beringen-3_3_I-1-1.edg.xml"/>
        <connection-files value="./converted_scenarios/scenario-factory/BEL_Beringen-3_3_I-1-1/BEL_Beringen-3_3_I-1-1.con.xml"/>
        <tllogic-files value="./converted_scenarios/scenario-factory/BEL_Beringen-3_3_I-1-1/BEL_Beringen-3_3_I-1-1.tll.xml"/>
        <type-files value="/home/zen/commonroad-interactive-benchmarks/install/commonroad-map-tool/crmapconverter/sumo_map/templates/DEU.typ.xml"/>
    </input>

    <output>
        <output-file value="./converted_scenarios/scenario-factory/BEL_Beringen-3_3_I-1-1/BEL_Beringen-3_3_I-1-1.net.xml"/>
    </output>

    <processing>
        <geometry.remove.keep-edges.explicit value="true"/>
        <geometry.avoid-overlap value="true"/>
        <offset.disable-normalization value="true"/>
    </processing>

    <junctions>
        <no-turnarounds value="true"/>
        <junctions.internal-link-detail value="20"/>
    </junctions>

    <report>
        <aggregate-warnings value="5"/>
    </report>

    <random_number>
        <seed value="1234"/>
    </random_number>

</configuration>
--><net xmlns:xsi="http://www.w3.org/2001/XMLSchema-instance" version="1.6" junctionCornerDetail="5" junctionLinkDetail="20" limitTurnSpeed="5.50" xsi:noNamespaceSchemaLocation="http://sumo.dlr.de/xsd/net_file.xsd">

    <location netOffset="0.00,0.00" convBoundary="-709.37,-725.65,-523.74,-568.98" origBoundary="-709.37,-725.65,-523.74,-568.98" projParameter="!"/>

    <type id="highway.bridleway" priority="1" speed="2.78" allow="pedestrian" oneway="1" width="2.00"/>
    <type id="highway.bus_guideway" priority="1" speed="27.78" allow="bus" oneway="1"/>
    <type id="highway.cycleway" priority="1" speed="8.33" allow="bicycle" oneway="0" width="1.00"/>
    <type id="highway.footway" priority="1" speed="2.78" allow="pedestrian" oneway="1" width="2.00"/>
    <type id="highway.ford" priority="1" speed="2.78" allow="army" oneway="0"/>
    <type id="highway.living_street" priority="2" speed="2.78" disallow="tram rail_urban rail rail_electric rail_fast ship" oneway="0"/>
    <type id="highway.motorway" priority="14" speed="39.44" allow="private emergency authority army vip passenger hov taxi bus coach delivery truck trailer motorcycle evehicle custom1 custom2" oneway="1"/>
    <type id="highway.motorway_link" priority="9" speed="22.22" allow="private emergency authority army vip passenger hov taxi bus coach delivery truck trailer motorcycle evehicle custom1 custom2" oneway="1"/>
    <type id="highway.path" priority="1" speed="2.78" allow="pedestrian bicycle" oneway="0" width="2.00"/>
    <type id="highway.pedestrian" priority="1" speed="2.78" allow="pedestrian" oneway="1" width="2.00"/>
    <type id="highway.primary" priority="12" speed="27.78" disallow="pedestrian tram rail_urban rail rail_electric rail_fast ship" oneway="0"/>
    <type id="highway.primary_link" priority="7" speed="22.22" disallow="pedestrian tram rail_urban rail rail_electric rail_fast ship" oneway="0"/>
    <type id="highway.raceway" priority="15" speed="83.33" allow="vip" oneway="0"/>
    <type id="highway.residential" priority="3" speed="13.89" disallow="pedestrian tram rail_urban rail rail_electric rail_fast ship" oneway="0"/>
    <type id="highway.secondary" priority="11" speed="27.78" disallow="pedestrian tram rail_urban rail rail_electric rail_fast ship" oneway="0"/>
    <type id="highway.secondary_link" priority="6" speed="22.22" disallow="pedestrian tram rail_urban rail rail_electric rail_fast ship" oneway="0"/>
    <type id="highway.service" priority="1" speed="5.56" allow="pedestrian delivery bicycle" oneway="0"/>
    <type id="highway.stairs" priority="1" speed="1.39" allow="pedestrian" oneway="1" width="2.00"/>
    <type id="highway.step" priority="1" speed="1.39" allow="pedestrian" oneway="1" width="2.00"/>
    <type id="highway.steps" priority="1" speed="1.39" allow="pedestrian" oneway="1" width="2.00"/>
    <type id="highway.tertiary" priority="10" speed="22.22" disallow="pedestrian tram rail_urban rail rail_electric rail_fast ship" oneway="0"/>
    <type id="highway.tertiary_link" priority="5" speed="22.22" disallow="pedestrian tram rail_urban rail rail_electric rail_fast ship" oneway="0"/>
    <type id="highway.track" priority="1" speed="5.56" allow="pedestrian motorcycle moped bicycle" oneway="0"/>
    <type id="highway.trunk" priority="13" speed="27.78" disallow="pedestrian bicycle tram rail_urban rail rail_electric rail_fast ship" oneway="0"/>
    <type id="highway.trunk_link" priority="8" speed="22.22" disallow="pedestrian bicycle tram rail_urban rail rail_electric rail_fast ship" oneway="0"/>
    <type id="highway.unclassified" priority="4" speed="13.89" disallow="pedestrian tram rail_urban rail rail_electric rail_fast ship" oneway="0"/>
    <type id="highway.unsurfaced" priority="1" speed="8.33" disallow="tram rail_urban rail rail_electric rail_fast ship" oneway="0"/>
    <type id="railway.highspeed" priority="21" speed="69.44" allow="rail_fast" oneway="1"/>
    <type id="railway.light_rail" priority="19" speed="27.78" allow="rail_urban" oneway="1"/>
    <type id="railway.preserved" priority="16" speed="27.78" allow="rail" oneway="1"/>
    <type id="railway.rail" priority="20" speed="44.44" allow="rail" oneway="1"/>
    <type id="railway.subway" priority="18" speed="27.78" allow="rail_urban" oneway="1"/>
    <type id="railway.tram" priority="17" speed="13.89" allow="tram" oneway="1"/>

    <edge id=":25_0" function="internal">
        <lane id=":25_0_0" index="0" disallow="pedestrian tram rail_urban rail rail_electric rail_fast ship" speed="12.45" length="32.28" width="3.50" shape="-593.61,-644.42 -594.72,-644.42 -598.05,-644.20 -600.18,-643.85 -602.26,-643.31 -604.25,-642.57 -606.13,-641.61 -607.87,-640.43 -609.43,-639.04 -610.80,-637.45 -611.98,-635.70 -612.97,-633.80 -613.78,-631.81 -614.69,-628.64 -615.28,-625.39"/>
    </edge>
    <edge id=":25_1" function="internal">
        <lane id=":25_1_0" index="0" disallow="pedestrian tram rail_urban rail rail_electric rail_fast ship" speed="36.11" length="41.58" width="3.50" shape="-593.61,-644.42 -606.10,-644.49 -635.19,-644.25"/>
    </edge>
    <edge id=":25_2" function="internal">
        <lane id=":25_2_0" index="0" disallow="pedestrian tram rail_urban rail rail_electric rail_fast ship" speed="11.85" length="35.20" width="3.50" shape="-593.61,-644.42 -597.69,-644.67 -600.36,-645.10 -602.97,-645.81 -605.47,-646.84 -606.65,-647.51 -607.77,-648.27 -608.81,-649.13 -609.75,-650.10 -610.60,-651.16 -611.33,-652.29 -611.95,-653.49 -612.46,-654.75 -612.87,-656.04 -613.39,-658.69 -613.59,-661.39 -613.54,-664.09 -613.28,-666.79"/>
    </edge>
    <edge id=":25_3" function="internal">
        <lane id=":25_3_0" index="0" disallow="pedestrian tram rail_urban rail rail_electric rail_fast ship" speed="10.82" length="29.15" width="3.50" shape="-609.81,-666.34 -610.03,-664.00 -610.08,-661.69 -609.91,-659.41 -609.47,-657.19 -609.15,-656.17 -608.74,-655.17 -608.25,-654.22 -607.67,-653.33 -607.01,-652.50 -606.27,-651.75 -605.45,-651.07 -604.57,-650.47 -603.65,-649.95 -601.57,-649.09 -599.38,-648.50 -597.12,-648.14 -593.58,-647.92"/>
    </edge>
    <edge id=":25_4" function="internal">
        <lane id=":25_4_0" index="0" disallow="pedestrian tram rail_urban rail rail_electric rail_fast ship" speed="36.11" length="41.31" width="3.50" shape="-609.81,-666.34 -612.55,-645.86 -615.28,-625.39"/>
    </edge>
    <edge id=":25_5" function="internal">
        <lane id=":25_5_0" index="0" disallow="pedestrian tram rail_urban rail rail_electric rail_fast ship" speed="13.48" length="37.40" width="3.50" shape="-609.81,-666.34 -609.99,-665.10 -610.75,-661.55 -611.50,-659.18 -612.46,-656.87 -613.66,-654.66 -615.12,-652.59 -616.84,-650.70 -618.78,-649.05 -620.90,-647.66 -623.17,-646.54 -625.52,-645.67 -627.93,-645.03 -631.55,-644.46 -635.19,-644.25"/>
    </edge>
    <edge id=":25_6" function="internal">
        <lane id=":25_6_0" index="0" disallow="pedestrian tram rail_urban rail rail_electric rail_fast ship" speed="12.56" length="32.35" width="3.50" shape="-635.24,-647.75 -632.02,-647.93 -628.82,-648.44 -626.74,-648.99 -624.71,-649.73 -622.78,-650.68 -620.97,-651.86 -619.32,-653.26 -617.87,-654.85 -616.63,-656.61 -615.59,-658.51 -614.76,-660.50 -614.11,-662.56 -613.43,-665.72 -613.28,-666.79"/>
    </edge>
    <edge id=":25_7" function="internal">
        <lane id=":25_7_0" index="0" disallow="pedestrian tram rail_urban rail rail_electric rail_fast ship" speed="36.11" length="41.66" width="3.50" shape="-635.24,-647.75 -606.09,-647.99 -593.58,-647.92"/>
    </edge>
    <edge id=":25_8" function="internal">
        <lane id=":25_8_0" index="0" disallow="pedestrian tram rail_urban rail rail_electric rail_fast ship" speed="11.78" length="35.59" width="3.50" shape="-635.24,-647.75 -632.63,-647.70 -629.98,-647.46 -627.34,-646.97 -624.76,-646.18 -623.45,-645.62 -622.21,-644.96 -621.02,-644.18 -619.91,-643.28 -618.89,-642.26 -617.99,-641.15 -617.21,-639.94 -616.55,-638.68 -616.03,-637.37 -615.62,-636.04 -615.31,-634.66 -614.99,-632.00 -614.95,-629.31 -615.28,-625.39"/>
    </edge>
    <edge id=":25_9" function="internal">
        <lane id=":25_9_0" index="0" disallow="pedestrian tram rail_urban rail rail_electric rail_fast ship" speed="10.75" length="29.42" width="3.50" shape="-618.75,-625.86 -618.46,-629.24 -618.49,-631.51 -618.77,-633.75 -619.02,-634.86 -619.35,-635.94 -619.77,-636.99 -620.29,-638.00 -620.91,-638.95 -621.62,-639.83 -622.42,-640.62 -623.31,-641.33 -624.25,-641.95 -625.25,-642.49 -626.29,-642.93 -628.46,-643.60 -630.68,-644.01 -632.94,-644.21 -635.19,-644.25"/>
    </edge>
    <edge id=":25_10" function="internal">
        <lane id=":25_10_0" index="0" disallow="pedestrian tram rail_urban rail rail_electric rail_fast ship" speed="36.11" length="41.29" width="3.50" shape="-618.75,-625.86 -616.01,-646.32 -613.28,-666.79"/>
    </edge>
    <edge id=":25_11" function="internal">
        <lane id=":25_11_0" index="0" disallow="pedestrian tram rail_urban rail rail_electric rail_fast ship" speed="13.37" length="37.39" width="3.50" shape="-618.75,-625.86 -618.08,-629.54 -617.04,-633.13 -616.11,-635.44 -614.95,-637.64 -613.56,-639.71 -611.92,-641.59 -610.06,-643.25 -608.00,-644.64 -605.78,-645.77 -603.45,-646.64 -601.03,-647.26 -598.57,-647.66 -594.84,-647.92 -593.58,-647.92"/>
    </edge>
    <edge id=":26_0" function="internal">
        <lane id=":26_0_0" index="0" disallow="pedestrian tram rail_urban rail rail_electric rail_fast ship" speed="36.11" length="35.80" width="3.50" shape="-609.65,-571.41 -612.35,-572.65 -618.05,-574.80 -627.79,-578.01 -643.58,-582.74"/>
    </edge>
    <edge id=":26_1" function="internal">
        <lane id=":26_1_0" index="0" disallow="pedestrian tram rail_urban rail rail_electric rail_fast ship" speed="14.11" length="33.69" width="3.50" shape="-609.65,-571.41 -610.74,-572.01 -612.75,-573.29 -614.66,-574.78 -616.42,-576.46 -618.00,-578.33 -619.35,-580.37 -620.47,-582.54 -621.35,-584.81 -622.00,-587.14 -622.43,-589.51 -622.72,-593.05 -622.65,-596.59 -622.30,-600.09"/>
    </edge>
    <edge id=":26_2" function="internal">
        <lane id=":26_2_0" index="0" disallow="pedestrian tram rail_urban rail rail_electric rail_fast ship" speed="13.82" length="31.86" width="3.50" shape="-618.83,-599.61 -619.04,-597.76 -619.15,-595.96 -619.15,-594.22 -619.06,-592.52 -618.86,-590.87 -618.56,-589.28 -618.16,-587.73 -617.66,-586.24 -617.06,-584.79 -616.36,-583.40 -615.55,-582.05 -614.65,-580.76 -613.64,-579.52 -612.54,-578.32 -611.33,-577.18 -610.02,-576.08 -608.61,-575.04 -607.10,-574.05 -605.49,-573.11"/>
    </edge>
    <edge id=":26_3" function="internal">
        <lane id=":26_3_0" index="0" disallow="pedestrian tram rail_urban rail rail_electric rail_fast ship" speed="11.75" length="35.66" width="3.50" shape="-618.83,-599.61 -619.59,-595.56 -620.34,-592.92 -621.34,-590.37 -622.66,-587.97 -623.45,-586.85 -624.34,-585.80 -625.32,-584.85 -626.39,-584.00 -627.55,-583.26 -628.78,-582.65 -630.06,-582.17 -631.39,-581.81 -632.74,-581.58 -635.47,-581.42 -638.21,-581.61 -640.91,-582.07 -643.58,-582.74"/>
    </edge>
    <edge id=":26_4" function="internal">
        <lane id=":26_4_0" index="0" disallow="pedestrian tram rail_urban rail rail_electric rail_fast ship" speed="10.73" length="29.51" width="3.50" shape="-642.61,-586.10 -640.30,-585.52 -637.99,-585.13 -635.70,-584.97 -633.42,-585.11 -632.36,-585.30 -631.31,-585.58 -630.31,-585.96 -629.35,-586.44 -628.45,-587.02 -627.62,-587.68 -626.85,-588.44 -626.15,-589.28 -625.53,-590.15 -624.43,-592.17 -623.59,-594.31 -622.95,-596.56 -622.30,-600.09"/>
    </edge>
    <edge id=":26_5" function="internal">
        <lane id=":26_5_0" index="0" disallow="pedestrian tram rail_urban rail rail_electric rail_fast ship" speed="36.11" length="27.44" width="3.50" shape="-642.55,-586.08 -616.36,-577.90"/>
    </edge>

    <edge id="105807" from="25" to="13" priority="3" type="highway.residential" spreadType="center" length="70.00" shape="-614.29,-644.34 -705.18,-643.40">
        <lane id="105807_0" index="0" disallow="pedestrian tram rail_urban rail rail_electric rail_fast ship" speed="36.11" length="70.00" width="3.50" customShape="1" shape="-635.19,-644.25 -680.42,-643.51 -704.54,-643.39 -705.18,-643.40"/>
    </edge>
    <edge id="105808" from="18" to="25" priority="3" type="highway.residential" spreadType="center" length="70.00" shape="-705.23,-646.90 -614.33,-647.84">
        <lane id="105808_0" index="0" disallow="pedestrian tram rail_urban rail rail_electric rail_fast ship" speed="36.11" length="70.00" width="3.50" customShape="1" shape="-705.23,-646.90 -704.51,-646.89 -680.43,-647.01 -635.24,-647.75"/>
    </edge>
    <edge id="105810" from="19" to="25" priority="3" type="highway.residential" spreadType="center" length="70.00" shape="-523.78,-647.06 -614.32,-644.34">
        <lane id="105810_0" index="0" disallow="pedestrian tram rail_urban rail rail_electric rail_fast ship" speed="36.11" length="70.00" width="3.50" customShape="1" shape="-523.78,-647.06 -526.59,-646.48 -532.14,-645.78 -542.79,-644.91 -554.47,-644.37 -567.70,-644.18 -593.63,-644.42"/>
    </edge>
    <edge id="105811" from="25" to="11" priority="3" type="highway.residential" spreadType="center" length="70.00" shape="-614.43,-647.84 -523.74,-650.63">
        <lane id="105811_0" index="0" disallow="pedestrian tram rail_urban rail rail_electric rail_fast ship" speed="36.11" length="70.00" width="3.50" customShape="1" shape="-593.58,-647.92 -567.93,-647.68 -554.88,-647.86 -543.36,-648.39 -532.87,-649.22 -527.48,-649.88 -523.74,-650.63"/>
    </edge>
    <edge id="105825" from="22" to="26" priority="3" type="highway.residential" spreadType="center" length="5.23" shape="-605.02,-568.98 -628.53,-586.66">
        <lane id="105825_0" index="0" disallow="pedestrian tram rail_urban rail rail_electric rail_fast ship" speed="36.11" length="5.23" width="3.50" customShape="1" shape="-605.02,-568.98 -609.45,-571.30 -609.56,-571.36 -609.65,-571.41"/>
    </edge>
    <edge id="105926" from="21" to="25" priority="3" type="highway.residential" spreadType="center" length="59.34" shape="-602.17,-725.19 -612.61,-645.82">
        <lane id="105926_0" index="0" disallow="pedestrian tram rail_urban rail rail_electric rail_fast ship" speed="36.11" length="59.34" width="3.50" customShape="1" shape="-602.17,-725.19 -605.98,-695.77 -609.81,-666.34"/>
    </edge>
    <edge id="105927" from="25" to="12" priority="3" type="highway.residential" spreadType="center" length="59.35" shape="-616.08,-646.28 -605.64,-725.65">
        <lane id="105927_0" index="0" disallow="pedestrian tram rail_urban rail rail_electric rail_fast ship" speed="36.11" length="59.35" width="3.50" customShape="1" shape="-613.28,-666.79 -609.46,-696.22 -605.64,-725.65"/>
    </edge>
    <edge id="106027" from="26" to="17" priority="3" type="highway.residential" spreadType="center" length="70.00" shape="-627.78,-586.28 -709.37,-606.58">
        <lane id="106027_0" index="0" disallow="pedestrian tram rail_urban rail rail_electric rail_fast ship" speed="36.11" length="70.00" width="3.50" customShape="1" shape="-643.58,-582.74 -650.81,-584.97 -666.10,-590.24 -683.73,-596.49 -698.83,-602.27 -709.37,-606.58"/>
    </edge>
    <edge id="106028" from="20" to="26" priority="3" type="highway.residential" spreadType="center" length="70.06" shape="-708.39,-609.96 -626.94,-589.68">
        <lane id="106028_0" index="0" disallow="pedestrian tram rail_urban rail rail_electric rail_fast ship" speed="36.11" length="70.06" width="3.50" customShape="1" shape="-708.39,-609.96 -697.49,-605.50 -682.48,-599.76 -664.95,-593.55 -649.76,-588.31 -642.55,-586.08"/>
    </edge>
    <edge id="106030" from="25" to="26" priority="3" type="highway.residential" spreadType="center" length="26.02" shape="-612.64,-645.71 -625.70,-587.56">
        <lane id="106030_0" index="0" disallow="pedestrian tram rail_urban rail rail_electric rail_fast ship" speed="36.11" length="26.02" width="3.50" customShape="1" shape="-615.28,-625.39 -617.06,-612.49 -618.83,-599.61"/>
    </edge>
    <edge id="106031" from="26" to="25" priority="3" type="highway.residential" spreadType="center" length="26.01" shape="-629.11,-588.32 -616.05,-646.47">
        <lane id="106031_0" index="0" disallow="pedestrian tram rail_urban rail rail_electric rail_fast ship" speed="36.11" length="26.01" width="3.50" customShape="1" shape="-622.30,-600.09 -620.53,-612.97 -618.75,-625.86"/>
    </edge>
    <edge id="106558" from="26" to="27" priority="3" type="highway.residential" spreadType="center" length="0.21" shape="-626.40,-589.43 -608.04,-574.52">
        <lane id="106558_0" index="0" disallow="pedestrian tram rail_urban rail rail_electric rail_fast ship" speed="36.11" length="0.21" width="3.50" customShape="1" shape="-605.49,-573.11 -605.31,-573.01"/>
    </edge>
    <edge id="106567" from="26" to="27" priority="3" type="highway.residential" spreadType="center" length="8.98">
        <lane id="106567_0" index="0" disallow="pedestrian tram rail_urban rail rail_electric rail_fast ship" speed="36.11" length="8.98" width="3.50" customShape="1" shape="-616.36,-577.90 -610.88,-575.82 -608.04,-574.52"/>
    </edge>

    <junction id="11" type="dead_end" x="-523.74" y="-650.63" incLanes="105811_0" intLanes="" shape="-524.08,-652.34 -523.39,-648.91" rightOfWay="edgePriority"/>
    <junction id="12" type="dead_end" x="-605.64" y="-725.65" incLanes="105927_0" intLanes="" shape="-607.37,-725.87 -603.90,-725.42" rightOfWay="edgePriority"/>
    <junction id="13" type="dead_end" x="-705.18" y="-643.40" incLanes="105807_0" intLanes="" shape="-705.20,-641.65 -705.16,-645.15" rightOfWay="edgePriority"/>
    <junction id="17" type="dead_end" x="-709.37" y="-606.58" incLanes="106027_0" intLanes="" shape="-710.03,-604.96 -708.70,-608.20" rightOfWay="edgePriority"/>
    <junction id="18" type="dead_end" x="-705.23" y="-646.90" incLanes="" intLanes="" shape="-705.26,-645.15 -705.21,-648.65" rightOfWay="edgePriority"/>
    <junction id="19" type="dead_end" x="-523.78" y="-647.06" incLanes="" intLanes="" shape="-524.13,-648.77 -523.43,-645.34" rightOfWay="edgePriority"/>
    <junction id="20" type="dead_end" x="-708.39" y="-609.96" incLanes="" intLanes="" shape="-709.06,-608.35 -707.73,-611.58" rightOfWay="edgePriority"/>
    <junction id="21" type="dead_end" x="-602.17" y="-725.19" incLanes="" intLanes="" shape="-603.90,-725.41 -600.43,-724.96" rightOfWay="edgePriority"/>
    <junction id="22" type="dead_end" x="-605.02" y="-568.98" incLanes="" intLanes="" shape="-604.21,-570.53 -605.83,-567.43" rightOfWay="edgePriority"/>
    <junction id="25" type="priority" x="-614.34" y="-646.09" incLanes="105810_0 105926_0 105808_0 106031_0" intLanes=":25_0_0 :25_1_0 :25_2_0 :25_3_0 :25_4_0 :25_5_0 :25_6_0 :25_7_0 :25_8_0 :25_9_0 :25_10_0 :25_11_0" shape="-593.63,-642.67 -593.56,-649.67 -598.58,-650.17 -602.56,-651.57 -605.50,-653.86 -607.40,-657.05 -608.25,-661.13 -608.07,-666.11 -615.01,-667.01 -616.20,-661.74 -618.26,-657.41 -621.19,-654.02 -625.01,-651.58 -629.70,-650.07 -635.27,-649.50 -635.16,-642.50 -630.04,-642.12 -625.98,-640.80 -623.00,-638.54 -621.09,-635.34 -620.25,-631.19 -620.48,-626.10 -613.55,-625.15 -612.32,-630.55 -610.26,-634.96 -607.35,-638.38 -603.61,-640.80 -599.04,-642.23">
        <request index="0" response="000000000000" foes="000100010000" cont="0"/>
        <request index="1" response="000000000000" foes="111100110000" cont="0"/>
        <request index="2" response="000011000000" foes="110011110000" cont="0"/>
        <request index="3" response="000010000000" foes="100010000000" cont="0"/>
        <request index="4" response="000110000111" foes="100110000111" cont="0"/>
        <request index="5" response="011110000110" foes="011110000110" cont="0"/>
        <request index="6" response="000000000000" foes="010000000100" cont="0"/>
        <request index="7" response="000000000000" foes="110000111100" cont="0"/>
        <request index="8" response="000000000011" foes="110000110011" cont="0"/>
        <request index="9" response="000000000010" foes="000000100010" cont="0"/>
        <request index="10" response="000111000110" foes="000111100110" cont="0"/>
        <request index="11" response="000110011110" foes="000110011110" cont="0"/>
    </junction>
    <junction id="26" type="priority" x="-627.40" y="-587.99" incLanes="105825_0 106030_0 106028_0" intLanes=":26_0_0 :26_1_0 :26_2_0 :26_3_0 :26_4_0 :26_5_0" shape="-610.48,-569.87 -608.83,-572.95 -605.39,-571.05 -600.11,-572.15 -616.86,-576.22 -615.86,-579.58 -617.67,-582.42 -618.05,-585.24 -618.09,-589.01 -617.77,-593.72 -617.10,-599.37 -624.03,-600.33 -625.20,-595.15 -627.09,-591.21 -629.73,-588.49 -633.10,-587.02 -637.20,-586.77 -642.03,-587.76 -644.09,-581.07 -636.81,-579.01 -631.32,-577.71 -626.79,-576.65 -622.37,-575.34 -617.22,-573.24">
        <request index="0" response="000000" foes="001000" cont="0"/>
        <request index="1" response="110000" foes="111000" cont="0"/>
        <request index="2" response="100000" foes="100000" cont="0"/>
        <request index="3" response="100011" foes="100011" cont="0"/>
        <request index="4" response="000000" foes="000010" cont="0"/>
        <request index="5" response="000000" foes="001110" cont="0"/>
    </junction>
    <junction id="27" type="dead_end" x="-608.04" y="-574.52" incLanes="106558_0 106567_0" intLanes="" shape="-607.20,-576.05 -608.89,-572.99 -607.31,-576.11 -608.78,-572.93"/>

    <connection from="105808" to="105927" fromLane="0" toLane="0" contPos="-4.00" shape="-635.24,-647.75 -632.02,-647.93 -628.82,-648.44 -626.74,-648.99 -624.71,-649.73 -622.78,-650.68 -620.97,-651.86 -619.32,-653.26 -617.87,-654.85 -616.63,-656.61 -615.59,-658.51 -614.76,-660.50 -614.11,-662.56 -613.43,-665.72 -613.28,-666.79" via=":25_6_0" dir="r" state="M"/>
    <connection from="105808" to="105811" fromLane="0" toLane="0" contPos="-4.00" shape="-635.24,-647.75 -606.09,-647.99 -593.58,-647.92" via=":25_7_0" dir="s" state="M"/>
    <connection from="105808" to="106030" fromLane="0" toLane="0" contPos="-4.00" shape="-635.24,-647.75 -632.63,-647.70 -629.98,-647.46 -627.34,-646.97 -624.76,-646.18 -623.45,-645.62 -622.21,-644.96 -621.02,-644.18 -619.91,-643.28 -618.89,-642.26 -617.99,-641.15 -617.21,-639.94 -616.55,-638.68 -616.03,-637.37 -615.62,-636.04 -615.31,-634.66 -614.99,-632.00 -614.95,-629.31 -615.28,-625.39" via=":25_8_0" dir="l" state="m"/>
    <connection from="105810" to="106030" fromLane="0" toLane="0" contPos="-4.00" shape="-593.63,-644.42 -594.72,-644.42 -598.05,-644.20 -600.18,-643.85 -602.26,-643.31 -604.25,-642.57 -606.13,-641.61 -607.87,-640.43 -609.43,-639.04 -610.80,-637.45 -611.98,-635.70 -612.97,-633.80 -613.78,-631.81 -614.69,-628.64 -615.28,-625.39" via=":25_0_0" dir="r" state="M"/>
    <connection from="105810" to="105807" fromLane="0" toLane="0" contPos="-4.00" shape="-593.63,-644.42 -606.10,-644.49 -635.19,-644.25" via=":25_1_0" dir="s" state="M"/>
    <connection from="105810" to="105927" fromLane="0" toLane="0" contPos="-4.00" shape="-593.63,-644.42 -597.69,-644.67 -600.36,-645.10 -602.97,-645.81 -605.47,-646.84 -606.65,-647.51 -607.77,-648.27 -608.81,-649.13 -609.75,-650.10 -610.60,-651.16 -611.33,-652.29 -611.95,-653.49 -612.46,-654.75 -612.87,-656.04 -613.39,-658.69 -613.59,-661.39 -613.54,-664.09 -613.28,-666.79" via=":25_2_0" dir="l" state="m"/>
    <connection from="105825" to="106027" fromLane="0" toLane="0" contPos="-4.00" shape="-609.65,-571.41 -612.35,-572.65 -618.05,-574.80 -627.79,-578.01 -643.58,-582.74" via=":26_0_0" dir="s" state="M"/>
    <connection from="105825" to="106031" fromLane="0" toLane="0" contPos="-4.00" shape="-609.65,-571.41 -610.74,-572.01 -612.75,-573.29 -614.66,-574.78 -616.42,-576.46 -618.00,-578.33 -619.35,-580.37 -620.47,-582.54 -621.35,-584.81 -622.00,-587.14 -622.43,-589.51 -622.72,-593.05 -622.65,-596.59 -622.30,-600.09" via=":26_1_0" dir="l" state="m"/>
    <connection from="105926" to="105811" fromLane="0" toLane="0" contPos="-4.00" shape="-609.81,-666.34 -610.03,-664.00 -610.08,-661.69 -609.91,-659.41 -609.47,-657.19 -609.15,-656.17 -608.74,-655.17 -608.25,-654.22 -607.67,-653.33 -607.01,-652.50 -606.27,-651.75 -605.45,-651.07 -604.57,-650.47 -603.65,-649.95 -601.57,-649.09 -599.38,-648.50 -597.12,-648.14 -593.58,-647.92" via=":25_3_0" dir="r" state="m"/>
    <connection from="105926" to="106030" fromLane="0" toLane="0" contPos="-4.00" shape="-609.81,-666.34 -612.55,-645.86 -615.28,-625.39" via=":25_4_0" dir="s" state="m"/>
    <connection from="105926" to="105807" fromLane="0" toLane="0" contPos="-4.00" shape="-609.81,-666.34 -609.99,-665.10 -610.75,-661.55 -611.50,-659.18 -612.46,-656.87 -613.66,-654.66 -615.12,-652.59 -616.84,-650.70 -618.78,-649.05 -620.90,-647.66 -623.17,-646.54 -625.52,-645.67 -627.93,-645.03 -631.55,-644.46 -635.19,-644.25" via=":25_5_0" dir="l" state="m"/>
    <connection from="106028" to="106031" fromLane="0" toLane="0" contPos="-4.00" shape="-642.61,-586.10 -640.30,-585.52 -637.99,-585.13 -635.70,-584.97 -633.42,-585.11 -632.36,-585.30 -631.31,-585.58 -630.31,-585.96 -629.35,-586.44 -628.45,-587.02 -627.62,-587.68 -626.85,-588.44 -626.15,-589.28 -625.53,-590.15 -624.43,-592.17 -623.59,-594.31 -622.95,-596.56 -622.30,-600.09" via=":26_4_0" dir="r" state="M"/>
    <connection from="106028" to="106567" fromLane="0" toLane="0" contPos="-4.00" via=":26_5_0" dir="s" state="M"/>
    <connection from="106030" to="106558" fromLane="0" toLane="0" contPos="-4.00" via=":26_2_0" dir="R" state="m"/>
    <connection from="106030" to="106027" fromLane="0" toLane="0" contPos="-4.00" shape="-618.83,-599.61 -619.59,-595.56 -620.34,-592.92 -621.34,-590.37 -622.66,-587.97 -623.45,-586.85 -624.34,-585.80 -625.32,-584.85 -626.39,-584.00 -627.55,-583.26 -628.78,-582.65 -630.06,-582.17 -631.39,-581.81 -632.74,-581.58 -635.47,-581.42 -638.21,-581.61 -640.91,-582.07 -643.58,-582.74" via=":26_3_0" dir="l" state="m"/>
    <connection from="106031" to="105807" fromLane="0" toLane="0" contPos="-4.00" shape="-618.75,-625.86 -618.46,-629.24 -618.49,-631.51 -618.77,-633.75 -619.02,-634.86 -619.35,-635.94 -619.77,-636.99 -620.29,-638.00 -620.91,-638.95 -621.62,-639.83 -622.42,-640.62 -623.31,-641.33 -624.25,-641.95 -625.25,-642.49 -626.29,-642.93 -628.46,-643.60 -630.68,-644.01 -632.94,-644.21 -635.19,-644.25" via=":25_9_0" dir="r" state="m"/>
    <connection from="106031" to="105927" fromLane="0" toLane="0" contPos="-4.00" shape="-618.75,-625.86 -616.01,-646.32 -613.28,-666.79" via=":25_10_0" dir="s" state="m"/>
    <connection from="106031" to="105811" fromLane="0" toLane="0" contPos="-4.00" shape="-618.75,-625.86 -618.08,-629.54 -617.04,-633.13 -616.11,-635.44 -614.95,-637.64 -613.56,-639.71 -611.92,-641.59 -610.06,-643.25 -608.00,-644.64 -605.78,-645.77 -603.45,-646.64 -601.03,-647.26 -598.57,-647.66 -594.84,-647.92 -593.58,-647.92" via=":25_11_0" dir="l" state="m"/>

    <connection from=":25_0" to="106030" fromLane="0" toLane="0" dir="r" state="M"/>
    <connection from=":25_1" to="105807" fromLane="0" toLane="0" dir="s" state="M"/>
    <connection from=":25_2" to="105927" fromLane="0" toLane="0" dir="l" state="M"/>
    <connection from=":25_3" to="105811" fromLane="0" toLane="0" dir="r" state="M"/>
    <connection from=":25_4" to="106030" fromLane="0" toLane="0" dir="s" state="M"/>
    <connection from=":25_5" to="105807" fromLane="0" toLane="0" dir="l" state="M"/>
    <connection from=":25_6" to="105927" fromLane="0" toLane="0" dir="r" state="M"/>
    <connection from=":25_7" to="105811" fromLane="0" toLane="0" dir="s" state="M"/>
    <connection from=":25_8" to="106030" fromLane="0" toLane="0" dir="l" state="M"/>
    <connection from=":25_9" to="105807" fromLane="0" toLane="0" dir="r" state="M"/>
    <connection from=":25_10" to="105927" fromLane="0" toLane="0" dir="s" state="M"/>
    <connection from=":25_11" to="105811" fromLane="0" toLane="0" dir="l" state="M"/>
    <connection from=":26_0" to="106027" fromLane="0" toLane="0" dir="s" state="M"/>
    <connection from=":26_1" to="106031" fromLane="0" toLane="0" dir="l" state="M"/>
    <connection from=":26_2" to="106558" fromLane="0" toLane="0" dir="R" state="M"/>
    <connection from=":26_3" to="106027" fromLane="0" toLane="0" dir="l" state="M"/>
    <connection from=":26_4" to="106031" fromLane="0" toLane="0" dir="r" state="M"/>
    <connection from=":26_5" to="106567" fromLane="0" toLane="0" dir="s" state="M"/>

</net>