<routes>
	<vehicle depart="0.1" departLane="0" departPos="8.00165829016187" departSpeed="6.2753203" id="35" type="bicycle">
		<route edges="105807"/>
	</vehicle>
	<vehicle depart="0.1" departLane="0" departPos="59.24034451926718" departSpeed="0.0" id="30" type="passenger">
		<route edges="105926 105807"/>
	</vehicle>
	<vehicle depart="0.1" departLane="0" departPos="15.09625124634367" departSpeed="0.87011662" id="31" type="passenger">
		<route edges=":25_6 105927"/>
	</vehicle>
	<vehicle depart="0.1" departLane="0" departPos="21.37804532616593" departSpeed="1.0879071" id="38" type="passenger">
		<route edges=":25_11 105811"/>
	</vehicle>
	<vehicle depart="0.1" departLane="0" departPos="18.228594731925845" departSpeed="9.0103849" id="310" type="passenger">
		<route edges=":25_0 106030 106027"/>
	</vehicle>
	<vehicle depart="0.1" departLane="0" departPos="2.5" departSpeed="0.95618399" id="311" type="passenger">
		<route edges=":25_6 105927"/>
	</vehicle>
	<vehicle depart="0.1" departLane="0" departPos="11.522684843423812" departSpeed="4.6644147" id="317" type="passenger">
		<route edges=":25_2 105927"/>
	</vehicle>
	<vehicle depart="0.1" departLane="0" departPos="44.37712374959908" departSpeed="1.5113471" id="318" type="passenger">
		<route edges="105808 105811"/>
	</vehicle>
	<vehicle depart="0.1" departLane="0" departPos="33.118976040290136" departSpeed="1.0763356" id="319" type="passenger">
		<route edges="105808 105811"/>
	</vehicle>
	<vehicle depart="0.1" departLane="0" departPos="51.63580909502211" departSpeed="1.3491961" id="323" type="passenger">
		<route edges="105808 105811"/>
	</vehicle>
</routes>
