<!-- generated on 2020-12-18 15:44:09.861243 by ipykernel_launcher.py v1_2_0+5214-53edc58fcd
-->
<nodes>
	<node id="1" type="from" x="-430.0" y="1.75"/>
	<node id="2" type="to" x="750.0" y="1.75"/>
</nodes>
