<routes>
	<vehicle depart="0.1" departLane="0" departPos="439.508" departSpeed="0.0" id="42" type="passenger">
		<route edges="2"/>
	</vehicle>
</routes>
