<routes>
	<vehicle depart="0.1" departLane="0" departPos="10.420992869091728" departSpeed="6.6401435" id="329" type="bus">
		<route edges="2408"/>
	</vehicle>
	<vehicle depart="0.1" departLane="0" departPos="14.318939614174132" departSpeed="2.2085373" id="31" type="passenger">
		<route edges=":20_5 1792"/>
	</vehicle>
	<vehicle depart="0.1" departLane="0" departPos="20.83899483694002" departSpeed="8.9516763" id="331" type="passenger">
		<route edges=":20_8 1750"/>
	</vehicle>
	<vehicle depart="0.1" departLane="0" departPos="23.304346164872634" departSpeed="3.7715286" id="342" type="passenger">
		<route edges="3874 2053 2408"/>
	</vehicle>
	<vehicle depart="0.1" departLane="0" departPos="13.91786421056262" departSpeed="3.0822224" id="343" type="passenger">
		<route edges=":20_6 2408"/>
	</vehicle>
	<vehicle depart="0.1" departLane="0" departPos="7.936486299999984" departSpeed="3.5606153" id="346" type="passenger">
		<route edges="3874 2053"/>
	</vehicle>
	<vehicle depart="0.1" departLane="1" departPos="10.307425902279967" departSpeed="0.0" id="349" type="passenger">
		<route edges="1790 1750"/>
	</vehicle>
	<vehicle depart="0.1" departLane="0" departPos="5.491283800806474" departSpeed="7.3815942" id="350" type="passenger">
		<route edges="2053 1750"/>
	</vehicle>
	<vehicle depart="0.1" departLane="0" departPos="7.270523700832477" departSpeed="2.3411699" id="351" type="passenger">
		<route edges="1790 2051 3702"/>
	</vehicle>
</routes>
