<routes>
	<vehicle depart="0.1" departLane="0" departPos="24.823087371541128" departSpeed="9.1295546" id="329" type="bus">
		<route edges=":36_5 53311 53180"/>
	</vehicle>
	<vehicle depart="0.1" departLane="0" departPos="28.915847710662327" departSpeed="0.70300085" id="32" type="passenger">
		<route edges="53310 53182"/>
	</vehicle>
	<vehicle depart="0.1" departLane="0" departPos="7.67749177633574" departSpeed="2.6181231" id="34" type="passenger">
		<route edges=":36_3 53182"/>
	</vehicle>
	<vehicle depart="0.1" departLane="0" departPos="50.16486551088873" departSpeed="2.4772548" id="38" type="passenger">
		<route edges="53310 53182"/>
	</vehicle>
	<vehicle depart="0.1" departLane="0" departPos="40.573518625163814" departSpeed="0.26929636" id="314" type="passenger">
		<route edges="53310 53182"/>
	</vehicle>
	<vehicle depart="0.1" departLane="0" departPos="21.413842409264102" departSpeed="0.60513681" id="319" type="passenger">
		<route edges="53310 53182"/>
	</vehicle>
	<vehicle depart="0.1" departLane="0" departPos="16.568531877047914" departSpeed="14.468981" id="325" type="passenger">
		<route edges="53311 53180 53201 53529"/>
	</vehicle>
	<vehicle depart="0.1" departLane="0" departPos="2.5" departSpeed="9.4124796" id="331" type="passenger">
		<route edges=":36_4 53236"/>
	</vehicle>
	<vehicle depart="0.1" departLane="0" departPos="41.44756081444741" departSpeed="3.241085" id="337" type="passenger">
		<route edges="53183 53311"/>
	</vehicle>
	<vehicle depart="0.1" departLane="0" departPos="22.486883971101097" departSpeed="3.057216" id="340" type="motorcycle">
		<route edges="53183 53311"/>
	</vehicle>
</routes>
