<routes>
	<vehicle depart="0.1" departLane="0" departPos="10.28624929902065" departSpeed="0.62364128" id="314" type="passenger">
		<route edges="31241 31743"/>
	</vehicle>
	<vehicle depart="0.1" departLane="0" departPos="11.042217860312139" departSpeed="0.002675999" id="324" type="passenger">
		<route edges=":33_3 31240"/>
	</vehicle>
	<vehicle depart="0.1" departLane="0" departPos="2.5" departSpeed="0.12090649" id="328" type="passenger">
		<route edges=":33_4 31739"/>
	</vehicle>
	<vehicle depart="0.1" departLane="0" departPos="62.478099200664786" departSpeed="1.0286871" id="331" type="passenger">
		<route edges="31742 31739"/>
	</vehicle>
	<vehicle depart="0.1" departLane="0" departPos="53.010915642718615" departSpeed="1.1807315" id="334" type="passenger">
		<route edges="31742 31739"/>
	</vehicle>
	<vehicle depart="0.1" departLane="0" departPos="43.83438543385615" departSpeed="0.62326184" id="339" type="passenger">
		<route edges="31742 31739"/>
	</vehicle>
	<vehicle depart="0.1" departLane="0" departPos="25.657678619799015" departSpeed="12.325597" id="342" type="passenger">
		<route edges=":33_11 31240 31237"/>
	</vehicle>
	<vehicle depart="0.1" departLane="0" departPos="67.6366422764816" departSpeed="9.1196783" id="346" type="passenger">
		<route edges="31740 31630"/>
	</vehicle>
	<vehicle depart="0.1" departLane="0" departPos="47.041753385129994" departSpeed="9.3270407" id="351" type="passenger">
		<route edges="31740 31630"/>
	</vehicle>
	<vehicle depart="0.1" departLane="0" departPos="15.624632012976114" departSpeed="0.079698669" id="30" type="truck">
		<route edges=":33_6 31743"/>
	</vehicle>
</routes>
