<!-- generated on Tue Feb  9 22:05:44 2021 by Eclipse SUMO netconvert Version 1.8.0
<configuration xmlns:xsi="http://www.w3.org/2001/XMLSchema-instance" xsi:noNamespaceSchemaLocation="http://sumo.dlr.de/xsd/netconvertConfiguration.xsd">

    <input>
        <node-files value="./converted_scenarios/scenario-factory/DEU_Ibbenbueren-10_2_I-1-1/DEU_Ibbenbueren-10_2_I-1-1.nod.xml"/>
        <edge-files value="./converted_scenarios/scenario-factory/DEU_Ibbenbueren-10_2_I-1-1/DEU_Ibbenbueren-10_2_I-1-1.edg.xml"/>
        <connection-files value="./converted_scenarios/scenario-factory/DEU_Ibbenbueren-10_2_I-1-1/DEU_Ibbenbueren-10_2_I-1-1.con.xml"/>
        <tllogic-files value="./converted_scenarios/scenario-factory/DEU_Ibbenbueren-10_2_I-1-1/DEU_Ibbenbueren-10_2_I-1-1.tll.xml"/>
        <type-files value="/home/zen/commonroad-interactive-benchmarks/install/commonroad-map-tool/crmapconverter/sumo_map/templates/DEU.typ.xml"/>
    </input>

    <output>
        <output-file value="./converted_scenarios/scenario-factory/DEU_Ibbenbueren-10_2_I-1-1/DEU_Ibbenbueren-10_2_I-1-1.net.xml"/>
    </output>

    <processing>
        <geometry.remove.keep-edges.explicit value="true"/>
        <geometry.avoid-overlap value="true"/>
        <offset.disable-normalization value="true"/>
    </processing>

    <junctions>
        <no-turnarounds value="true"/>
        <junctions.internal-link-detail value="20"/>
    </junctions>

    <report>
        <aggregate-warnings value="5"/>
    </report>

    <random_number>
        <seed value="1234"/>
    </random_number>

</configuration>
--><net xmlns:xsi="http://www.w3.org/2001/XMLSchema-instance" version="1.6" junctionCornerDetail="5" junctionLinkDetail="20" limitTurnSpeed="5.50" xsi:noNamespaceSchemaLocation="http://sumo.dlr.de/xsd/net_file.xsd">

    <location netOffset="0.00,0.00" convBoundary="567.13,854.87,769.19,1084.93" origBoundary="567.13,854.87,769.19,1084.93" projParameter="!"/>

    <type id="highway.bridleway" priority="1" speed="2.78" allow="pedestrian" oneway="1" width="2.00"/>
    <type id="highway.bus_guideway" priority="1" speed="27.78" allow="bus" oneway="1"/>
    <type id="highway.cycleway" priority="1" speed="8.33" allow="bicycle" oneway="0" width="1.00"/>
    <type id="highway.footway" priority="1" speed="2.78" allow="pedestrian" oneway="1" width="2.00"/>
    <type id="highway.ford" priority="1" speed="2.78" allow="army" oneway="0"/>
    <type id="highway.living_street" priority="2" speed="2.78" disallow="tram rail_urban rail rail_electric rail_fast ship" oneway="0"/>
    <type id="highway.motorway" priority="14" speed="39.44" allow="private emergency authority army vip passenger hov taxi bus coach delivery truck trailer motorcycle evehicle custom1 custom2" oneway="1"/>
    <type id="highway.motorway_link" priority="9" speed="22.22" allow="private emergency authority army vip passenger hov taxi bus coach delivery truck trailer motorcycle evehicle custom1 custom2" oneway="1"/>
    <type id="highway.path" priority="1" speed="2.78" allow="pedestrian bicycle" oneway="0" width="2.00"/>
    <type id="highway.pedestrian" priority="1" speed="2.78" allow="pedestrian" oneway="1" width="2.00"/>
    <type id="highway.primary" priority="12" speed="27.78" disallow="pedestrian tram rail_urban rail rail_electric rail_fast ship" oneway="0"/>
    <type id="highway.primary_link" priority="7" speed="22.22" disallow="pedestrian tram rail_urban rail rail_electric rail_fast ship" oneway="0"/>
    <type id="highway.raceway" priority="15" speed="83.33" allow="vip" oneway="0"/>
    <type id="highway.residential" priority="3" speed="13.89" disallow="pedestrian tram rail_urban rail rail_electric rail_fast ship" oneway="0"/>
    <type id="highway.secondary" priority="11" speed="27.78" disallow="pedestrian tram rail_urban rail rail_electric rail_fast ship" oneway="0"/>
    <type id="highway.secondary_link" priority="6" speed="22.22" disallow="pedestrian tram rail_urban rail rail_electric rail_fast ship" oneway="0"/>
    <type id="highway.service" priority="1" speed="5.56" allow="pedestrian delivery bicycle" oneway="0"/>
    <type id="highway.stairs" priority="1" speed="1.39" allow="pedestrian" oneway="1" width="2.00"/>
    <type id="highway.step" priority="1" speed="1.39" allow="pedestrian" oneway="1" width="2.00"/>
    <type id="highway.steps" priority="1" speed="1.39" allow="pedestrian" oneway="1" width="2.00"/>
    <type id="highway.tertiary" priority="10" speed="22.22" disallow="pedestrian tram rail_urban rail rail_electric rail_fast ship" oneway="0"/>
    <type id="highway.tertiary_link" priority="5" speed="22.22" disallow="pedestrian tram rail_urban rail rail_electric rail_fast ship" oneway="0"/>
    <type id="highway.track" priority="1" speed="5.56" allow="pedestrian motorcycle moped bicycle" oneway="0"/>
    <type id="highway.trunk" priority="13" speed="27.78" disallow="pedestrian bicycle tram rail_urban rail rail_electric rail_fast ship" oneway="0"/>
    <type id="highway.trunk_link" priority="8" speed="22.22" disallow="pedestrian bicycle tram rail_urban rail rail_electric rail_fast ship" oneway="0"/>
    <type id="highway.unclassified" priority="4" speed="13.89" disallow="pedestrian tram rail_urban rail rail_electric rail_fast ship" oneway="0"/>
    <type id="highway.unsurfaced" priority="1" speed="8.33" disallow="tram rail_urban rail rail_electric rail_fast ship" oneway="0"/>
    <type id="railway.highspeed" priority="21" speed="69.44" allow="rail_fast" oneway="1"/>
    <type id="railway.light_rail" priority="19" speed="27.78" allow="rail_urban" oneway="1"/>
    <type id="railway.preserved" priority="16" speed="27.78" allow="rail" oneway="1"/>
    <type id="railway.rail" priority="20" speed="44.44" allow="rail" oneway="1"/>
    <type id="railway.subway" priority="18" speed="27.78" allow="rail_urban" oneway="1"/>
    <type id="railway.tram" priority="17" speed="13.89" allow="tram" oneway="1"/>

    <edge id=":33_0" function="internal">
        <lane id=":33_0_0" index="0" disallow="pedestrian tram rail_urban rail rail_electric rail_fast ship" speed="11.98" length="28.05" width="3.50" shape="655.96,966.07 654.57,962.95 653.05,960.12 651.27,957.44 649.91,955.78 648.40,954.27 646.71,952.94 644.86,951.87 642.86,951.10 640.77,950.66 638.63,950.55 636.50,950.75 635.44,950.95"/>
    </edge>
    <edge id=":33_1" function="internal">
        <lane id=":33_1_0" index="0" disallow="pedestrian tram rail_urban rail rail_electric rail_fast ship" speed="36.11" length="41.19" width="3.50" shape="655.96,966.07 655.45,963.83 654.33,954.43 651.95,929.31 651.59,925.13"/>
    </edge>
    <edge id=":33_2" function="internal">
        <lane id=":33_2_0" index="0" disallow="pedestrian tram rail_urban rail rail_electric rail_fast ship" speed="11.86" length="39.24" width="3.50" shape="655.96,966.07 654.92,963.27 654.19,960.58 653.76,957.82 653.70,956.43 653.74,955.03 653.92,953.65 654.23,952.29 654.70,950.98 655.31,949.72 656.05,948.55 656.92,947.46 657.90,946.46 658.97,945.57 660.10,944.76 662.53,943.39 665.10,942.30 667.75,941.44 671.83,940.49 674.57,940.02"/>
    </edge>
    <edge id=":33_3" function="internal">
        <lane id=":33_3_0" index="0" disallow="pedestrian tram rail_urban rail rail_electric rail_fast ship" speed="10.83" length="32.57" width="3.50" shape="675.07,943.49 672.66,943.89 669.06,944.73 666.77,945.46 664.57,946.37 662.50,947.51 661.58,948.15 660.71,948.86 659.92,949.63 659.23,950.47 658.63,951.37 658.14,952.32 657.77,953.33 657.50,954.38 657.35,955.47 657.30,956.58 657.34,957.69 657.67,960.01 658.29,962.30 659.14,964.65"/>
    </edge>
    <edge id=":33_4" function="internal">
        <lane id=":33_4_0" index="0" disallow="pedestrian tram rail_urban rail rail_electric rail_fast ship" speed="36.11" length="40.33" width="3.50" shape="675.07,943.49 662.83,945.46 648.60,948.16 635.44,950.95"/>
    </edge>
    <edge id=":33_5" function="internal">
        <lane id=":33_5_0" index="0" disallow="pedestrian tram rail_urban rail rail_electric rail_fast ship" speed="12.02" length="34.55" width="3.50" shape="675.07,943.49 671.26,943.84 668.65,943.83 666.02,943.55 663.45,942.94 662.14,942.47 660.89,941.90 659.69,941.22 658.56,940.42 657.51,939.53 656.54,938.54 655.67,937.47 654.89,936.32 653.66,933.96 652.76,931.48 652.12,928.93 651.59,925.13"/>
    </edge>
    <edge id=":33_6" function="internal">
        <lane id=":33_6_0" index="0" disallow="pedestrian tram rail_urban rail rail_electric rail_fast ship" speed="11.00" length="28.75" width="3.50" shape="655.07,924.82 655.53,928.11 656.07,930.25 656.83,932.33 657.85,934.29 658.48,935.21 659.17,936.06 659.95,936.85 660.79,937.57 661.70,938.20 662.66,938.75 663.67,939.21 664.71,939.58 666.86,940.09 669.06,940.32 671.28,940.33 674.57,940.02"/>
    </edge>
    <edge id=":33_7" function="internal">
        <lane id=":33_7_0" index="0" disallow="pedestrian tram rail_urban rail rail_electric rail_fast ship" speed="36.11" length="40.04" width="3.50" shape="655.07,924.82 655.44,928.95 657.76,953.73 658.83,962.92 659.14,964.65"/>
    </edge>
    <edge id=":33_8" function="internal">
        <lane id=":33_8_0" index="0" disallow="pedestrian tram rail_urban rail rail_electric rail_fast ship" speed="13.25" length="36.46" width="3.50" shape="655.07,924.82 655.22,928.59 655.08,931.10 654.73,933.59 654.12,936.03 653.24,938.39 652.07,940.61 650.61,942.66 648.89,944.49 646.95,946.09 644.84,947.46 642.60,948.61 639.08,949.97 635.44,950.95"/>
    </edge>
    <edge id=":33_9" function="internal">
        <lane id=":33_9_0" index="0" disallow="pedestrian tram rail_urban rail rail_electric rail_fast ship" speed="12.31" length="31.37" width="3.50" shape="634.68,947.54 637.91,946.67 641.01,945.48 642.92,944.49 644.73,943.32 646.37,941.97 647.82,940.44 649.04,938.73 650.02,936.86 650.77,934.87 651.29,932.79 651.60,930.64 651.72,928.46 651.59,925.13"/>
    </edge>
    <edge id=":33_10" function="internal">
        <lane id=":33_10_0" index="0" disallow="pedestrian tram rail_urban rail rail_electric rail_fast ship" speed="36.11" length="40.60" width="3.50" shape="634.68,947.54 647.91,944.72 662.23,942.01 674.57,940.02"/>
    </edge>
    <edge id=":33_11" function="internal">
        <lane id=":33_11_0" index="0" disallow="pedestrian tram rail_urban rail rail_electric rail_fast ship" speed="12.96" length="32.88" width="3.50" shape="634.68,947.54 635.95,947.30 638.47,947.05 641.06,947.14 643.62,947.63 646.07,948.52 648.34,949.77 650.39,951.32 652.21,953.07 653.83,955.00 655.89,958.04 657.63,961.26 659.14,964.65"/>
    </edge>
    <edge id=":34_0" function="internal">
        <lane id=":34_0_0" index="0" disallow="pedestrian tram rail_urban rail rail_electric rail_fast ship" speed="36.11" length="38.04" width="3.50" shape="691.58,1057.18 690.35,1053.23 685.22,1037.60 679.43,1021.14"/>
    </edge>
    <edge id=":34_1" function="internal">
        <lane id=":34_1_0" index="0" disallow="pedestrian tram rail_urban rail rail_electric rail_fast ship" speed="12.89" length="34.92" width="3.50" shape="691.58,1057.18 690.67,1053.52 690.33,1051.05 690.25,1048.56 690.46,1046.08 691.00,1043.64 691.87,1041.31 693.06,1039.12 694.54,1037.12 696.25,1035.30 698.14,1033.68 700.18,1032.24 703.41,1030.37 705.66,1029.29"/>
    </edge>
    <edge id=":34_2" function="internal">
        <lane id=":34_2_0" index="0" disallow="pedestrian tram rail_urban rail rail_electric rail_fast ship" speed="11.94" length="29.79" width="3.50" shape="707.08,1032.49 705.11,1033.44 702.23,1035.09 700.48,1036.33 698.85,1037.71 697.40,1039.24 696.15,1040.91 695.15,1042.72 694.42,1044.64 693.96,1046.65 693.78,1048.73 693.84,1050.84 694.13,1052.94 694.93,1056.15"/>
    </edge>
    <edge id=":34_3" function="internal">
        <lane id=":34_3_0" index="0" disallow="pedestrian tram rail_urban rail rail_electric rail_fast ship" speed="11.98" length="34.76" width="3.50" shape="707.09,1032.49 703.49,1033.88 700.96,1034.59 698.35,1035.04 695.69,1035.16 694.29,1035.08 692.93,1034.88 691.58,1034.55 690.26,1034.10 688.99,1033.52 687.78,1032.83 686.65,1032.03 685.58,1031.12 683.76,1029.16 682.22,1026.98 680.93,1024.67 679.43,1021.14"/>
    </edge>
    <edge id=":34_4" function="internal">
        <lane id=":34_4_0" index="0" disallow="pedestrian tram rail_urban rail rail_electric rail_fast ship" speed="10.96" length="28.93" width="3.50" shape="682.71,1019.92 684.01,1022.99 685.10,1024.94 686.38,1026.75 687.90,1028.38 688.75,1029.09 689.66,1029.73 690.63,1030.29 691.64,1030.74 692.70,1031.10 693.78,1031.36 694.88,1031.52 695.99,1031.59 698.21,1031.48 700.41,1031.10 702.55,1030.50 705.66,1029.29"/>
    </edge>
    <edge id=":34_5" function="internal">
        <lane id=":34_5_0" index="0" disallow="pedestrian tram rail_urban rail rail_electric rail_fast ship" speed="36.11" length="38.24" width="3.50" shape="682.71,1019.92 688.53,1036.47 693.68,1052.17 694.93,1056.15"/>
    </edge>
    <edge id=":35_0" function="internal">
        <lane id=":35_0_0" index="0" disallow="pedestrian tram rail_urban rail rail_electric rail_fast ship" speed="36.11" length="37.51" width="3.49" shape="675.74,1011.00 672.44,1002.17 668.13,991.54 664.30,982.99 661.04,976.52"/>
    </edge>
    <edge id=":35_1" function="internal">
        <lane id=":35_1_0" index="0" disallow="pedestrian tram rail_urban rail rail_electric rail_fast ship" speed="12.27" length="34.17" width="3.50" shape="675.74,1011.01 674.58,1007.21 674.06,1004.63 673.81,1002.02 673.88,999.40 674.05,998.10 674.32,996.81 674.69,995.55 675.17,994.33 675.75,993.16 676.44,992.03 677.21,990.97 678.99,989.04 681.01,987.37 683.22,985.95 685.54,984.73 687.96,983.70"/>
    </edge>
    <edge id=":35_2" function="internal">
        <lane id=":35_2_0" index="0" disallow="pedestrian tram rail_urban rail rail_electric rail_fast ship" speed="11.27" length="28.66" width="3.50" shape="689.22,986.96 687.12,987.86 685.12,988.90 683.25,990.11 681.56,991.51 680.08,993.12 679.47,993.95 678.92,994.86 678.45,995.80 678.07,996.79 677.77,997.80 677.55,998.85 677.41,999.88 677.36,1002.09 677.57,1004.30 678.01,1006.49 679.03,1009.81"/>
    </edge>
    <edge id=":35_3" function="internal">
        <lane id=":35_3_0" index="0" disallow="pedestrian tram rail_urban rail rail_electric rail_fast ship" speed="12.56" length="33.51" width="3.49" shape="689.22,986.97 685.65,988.13 683.15,988.68 680.59,988.97 677.99,988.97 675.39,988.62 672.85,987.89 670.45,986.79 668.24,985.35 666.27,983.66 664.53,981.77 662.99,979.72 661.04,976.52"/>
    </edge>
    <edge id=":35_4" function="internal">
        <lane id=":35_4_0" index="0" disallow="pedestrian tram rail_urban rail rail_electric rail_fast ship" speed="11.60" length="28.41" width="3.50" shape="664.12,974.86 665.82,977.66 667.14,979.41 668.62,981.01 670.27,982.44 672.10,983.63 674.09,984.55 676.19,985.15 678.35,985.44 680.54,985.44 682.71,985.19 684.84,984.72 687.96,983.70"/>
    </edge>
    <edge id=":35_5" function="internal">
        <lane id=":35_5_0" index="0" disallow="pedestrian tram rail_urban rail rail_electric rail_fast ship" speed="36.11" length="38.03" width="3.50" shape="664.12,974.86 667.44,981.46 671.33,990.12 675.69,1000.88 679.03,1009.81"/>
    </edge>

    <edge id="31234" from="34" to="25" priority="3" type="highway.residential" spreadType="center" length="29.04" shape="695.28,1035.67 703.52,1083.89">
        <lane id="31234_0" index="0" disallow="pedestrian tram rail_urban rail rail_electric rail_fast ship" speed="36.11" length="29.04" width="3.50" customShape="1" shape="694.93,1056.15 699.22,1070.00 703.52,1083.89"/>
    </edge>
    <edge id="31235" from="32" to="34" priority="3" type="highway.residential" spreadType="center" length="29.08" shape="700.17,1084.93 691.83,1036.26">
        <lane id="31235_0" index="0" disallow="pedestrian tram rail_urban rail rail_electric rail_fast ship" speed="36.11" length="29.08" width="3.50" customShape="1" shape="700.17,1084.93 695.87,1071.04 691.57,1057.15"/>
    </edge>
    <edge id="31237" from="35" to="34" priority="3" type="highway.residential" spreadType="center" length="10.78" shape="677.79,989.79 695.20,1035.40">
        <lane id="31237_0" index="0" disallow="pedestrian tram rail_urban rail rail_electric rail_fast ship" speed="36.11" length="10.78" width="3.50" customShape="1" shape="679.03,1009.81 680.87,1014.85 682.72,1019.94"/>
    </edge>
    <edge id="31238" from="34" to="35" priority="3" type="highway.residential" spreadType="center" length="10.81" shape="691.93,1036.65 674.53,991.04">
        <lane id="31238_0" index="0" disallow="pedestrian tram rail_urban rail rail_electric rail_fast ship" speed="36.11" length="10.81" width="3.50" customShape="1" shape="679.43,1021.14 677.58,1016.04 675.74,1010.98"/>
    </edge>
    <edge id="31240" from="33" to="35" priority="3" type="highway.residential" spreadType="center" length="11.44" shape="656.77,944.58 677.79,989.79">
        <lane id="31240_0" index="0" disallow="pedestrian tram rail_urban rail rail_electric rail_fast ship" speed="36.11" length="11.44" width="3.50" customShape="1" shape="659.14,964.65 660.80,968.37 664.16,974.92"/>
    </edge>
    <edge id="31241" from="35" to="33" priority="3" type="highway.residential" spreadType="center" length="11.62" shape="674.63,991.26 653.60,946.05">
        <lane id="31241_0" index="0" disallow="pedestrian tram rail_urban rail rail_electric rail_fast ship" speed="36.11" length="11.62" width="3.49" customShape="1" shape="661.04,976.52 657.63,969.85 655.96,966.07"/>
    </edge>
    <edge id="31510" from="34" to="24" priority="3" type="highway.residential" spreadType="center" length="70.00" shape="692.76,1034.47 767.71,997.49">
        <lane id="31510_0" index="0" disallow="pedestrian tram rail_urban rail rail_electric rail_fast ship" speed="36.11" length="70.00" width="3.50" customShape="1" shape="705.66,1029.29 749.62,1009.72 752.91,1008.03 756.50,1005.79 760.81,1002.73 767.71,997.49"/>
    </edge>
    <edge id="31511" from="30" to="34" priority="3" type="highway.residential" spreadType="center" length="70.00" shape="769.19,1000.79 694.30,1037.61">
        <lane id="31511_0" index="0" disallow="pedestrian tram rail_urban rail rail_electric rail_fast ship" speed="36.11" length="70.00" width="3.50" customShape="1" shape="769.19,1000.79 768.29,1001.44 761.26,1006.71 756.93,1009.66 753.27,1011.79 749.96,1013.41 707.07,1032.50"/>
    </edge>
    <edge id="31630" from="33" to="23" priority="3" type="highway.residential" spreadType="center" length="70.00" shape="653.43,945.38 651.96,855.18">
        <lane id="31630_0" index="0" disallow="pedestrian tram rail_urban rail rail_electric rail_fast ship" speed="36.11" length="70.00" width="3.50" customShape="1" shape="651.59,925.13 651.46,923.62 650.86,914.08 650.63,903.52 650.71,887.93 651.23,870.33 651.96,855.18"/>
    </edge>
    <edge id="31631" from="31" to="33" priority="3" type="highway.residential" spreadType="center" length="70.01" shape="655.47,854.87 656.93,945.32">
        <lane id="31631_0" index="0" disallow="pedestrian tram rail_urban rail rail_electric rail_fast ship" speed="36.11" length="70.01" width="3.50" customShape="1" shape="655.47,854.87 654.73,870.32 654.21,887.86 654.13,903.39 654.35,913.87 654.95,923.34 655.07,924.83"/>
    </edge>
    <edge id="31739" from="33" to="22" priority="3" type="highway.residential" spreadType="center" length="70.00" shape="655.64,947.00 567.90,969.24">
        <lane id="31739_0" index="0" disallow="pedestrian tram rail_urban rail rail_electric rail_fast ship" speed="36.11" length="70.00" width="3.50" customShape="1" shape="635.44,950.95 633.97,951.28 615.35,955.71 599.76,959.78 581.37,965.06 569.80,968.58 567.90,969.24"/>
    </edge>
    <edge id="31740" from="29" to="33" priority="3" type="highway.residential" spreadType="center" length="70.00" shape="567.13,965.80 654.78,943.61">
        <lane id="31740_0" index="0" disallow="pedestrian tram rail_urban rail rail_electric rail_fast ship" speed="36.11" length="70.00" width="3.50" customShape="1" shape="567.13,965.80 568.89,965.20 580.50,961.66 598.92,956.38 614.55,952.30 633.20,947.87 634.68,947.54"/>
    </edge>
    <edge id="31742" from="28" to="33" priority="3" type="highway.residential" spreadType="center" length="70.02" shape="744.64,935.96 655.36,947.05">
        <lane id="31742_0" index="0" disallow="pedestrian tram rail_urban rail rail_electric rail_fast ship" speed="36.11" length="70.02" width="3.50" customShape="1" shape="744.64,935.96 735.46,936.55 712.96,938.68 694.49,940.82 675.05,943.49"/>
    </edge>
    <edge id="31743" from="33" to="21" priority="3" type="highway.residential" spreadType="center" length="70.01" shape="654.93,943.58 744.15,932.49">
        <lane id="31743_0" index="0" disallow="pedestrian tram rail_urban rail rail_electric rail_fast ship" speed="36.11" length="70.01" width="3.50" customShape="1" shape="674.57,940.02 694.06,937.35 712.59,935.19 735.18,933.07 744.15,932.49"/>
    </edge>
    <edge id="32126" from="14" to="35" priority="3" type="highway.residential" spreadType="center" length="17.85" shape="705.86,980.53 676.74,992.13">
        <lane id="32126_0" index="0" disallow="pedestrian tram rail_urban rail rail_electric rail_fast ship" speed="36.11" length="17.85" width="3.50" customShape="1" shape="705.86,980.53 697.54,983.75 689.21,986.97"/>
    </edge>
    <edge id="32127" from="35" to="6" priority="3" type="highway.residential" spreadType="center" length="17.84" shape="675.45,988.89 704.60,977.27">
        <lane id="32127_0" index="0" disallow="pedestrian tram rail_urban rail rail_electric rail_fast ship" speed="36.11" length="17.84" width="3.50" customShape="1" shape="687.96,983.70 696.28,980.48 704.60,977.27"/>
    </edge>

    <junction id="14" type="dead_end" x="705.86" y="980.53" incLanes="" intLanes="" shape="705.23,978.90 706.49,982.16" rightOfWay="edgePriority"/>
    <junction id="21" type="dead_end" x="744.15" y="932.49" incLanes="31743_0" intLanes="" shape="744.04,930.74 744.26,934.23" rightOfWay="edgePriority"/>
    <junction id="22" type="dead_end" x="567.90" y="969.24" incLanes="31739_0" intLanes="" shape="568.47,970.89 567.33,967.58" rightOfWay="edgePriority"/>
    <junction id="23" type="dead_end" x="651.96" y="855.18" incLanes="31630_0" intLanes="" shape="650.21,855.09 653.70,855.26" rightOfWay="edgePriority"/>
    <junction id="24" type="dead_end" x="767.71" y="997.49" incLanes="31510_0" intLanes="" shape="766.66,996.10 768.77,998.89" rightOfWay="edgePriority"/>
    <junction id="25" type="dead_end" x="703.52" y="1083.89" incLanes="31234_0" intLanes="" shape="705.19,1083.38 701.84,1084.41" rightOfWay="edgePriority"/>
    <junction id="28" type="dead_end" x="744.64" y="935.96" incLanes="" intLanes="" shape="744.53,934.22 744.76,937.71" rightOfWay="edgePriority"/>
    <junction id="29" type="dead_end" x="567.13" y="965.80" incLanes="" intLanes="" shape="567.70,967.46 566.56,964.15" rightOfWay="edgePriority"/>
    <junction id="30" type="dead_end" x="769.19" y="1000.79" incLanes="" intLanes="" shape="768.16,999.38 770.22,1002.20" rightOfWay="edgePriority"/>
    <junction id="31" type="dead_end" x="655.47" y="854.87" incLanes="" intLanes="" shape="653.73,854.79 657.22,854.96" rightOfWay="edgePriority"/>
    <junction id="32" type="dead_end" x="700.17" y="1084.93" incLanes="" intLanes="" shape="701.84,1084.41 698.50,1085.45" rightOfWay="edgePriority"/>
    <junction id="33" type="priority" x="655.18" y="945.31" incLanes="31241_0 31742_0 31631_0 31740_0" intLanes=":33_0_0 :33_1_0 :33_2_0 :33_3_0 :33_4_0 :33_5_0 :33_6_0 :33_7_0 :33_8_0 :33_9_0 :33_10_0 :33_11_0" shape="654.36,966.78 660.74,963.94 659.05,958.50 659.23,954.14 661.11,950.74 664.53,948.20 669.31,946.40 675.29,945.22 674.34,938.29 669.36,938.53 665.20,937.76 661.87,936.00 659.36,933.23 657.68,929.45 656.82,924.68 649.84,925.28 649.81,930.51 648.76,935.02 646.68,938.80 643.58,941.87 639.45,944.21 634.30,945.83 635.82,952.66 639.45,952.36 642.86,953.12 646.05,954.94 649.04,957.83 651.81,961.77">
        <request index="0" response="000000010000" foes="000100010000" cont="0"/>
        <request index="1" response="111000110000" foes="111100110000" cont="0"/>
        <request index="2" response="110011110000" foes="110011110000" cont="0"/>
        <request index="3" response="000000000000" foes="100010000000" cont="0"/>
        <request index="4" response="000000000000" foes="100110000111" cont="0"/>
        <request index="5" response="011000000000" foes="011110000110" cont="0"/>
        <request index="6" response="010000000000" foes="010000000100" cont="0"/>
        <request index="7" response="110000111000" foes="110000111100" cont="0"/>
        <request index="8" response="110000110011" foes="110000110011" cont="0"/>
        <request index="9" response="000000000000" foes="000000100010" cont="0"/>
        <request index="10" response="000000000000" foes="000111100110" cont="0"/>
        <request index="11" response="000000011000" foes="000110011110" cont="0"/>
    </junction>
    <junction id="34" type="priority" x="693.56" y="1036.02" incLanes="31235_0 31511_0 31237_0" intLanes=":34_0_0 :34_1_0 :34_2_0 :34_3_0 :34_4_0 :34_5_0" shape="689.91,1057.70 696.60,1055.63 695.66,1050.99 695.84,1046.77 697.15,1042.97 699.57,1039.59 703.12,1036.63 707.80,1034.09 704.95,1027.70 700.18,1029.33 695.95,1029.76 692.25,1028.97 689.08,1026.97 686.46,1023.76 684.36,1019.34 677.78,1021.74">
        <request index="0" response="000000" foes="001000" cont="0"/>
        <request index="1" response="110000" foes="111000" cont="0"/>
        <request index="2" response="100000" foes="100000" cont="0"/>
        <request index="3" response="100011" foes="100011" cont="0"/>
        <request index="4" response="000000" foes="000010" cont="0"/>
        <request index="5" response="000000" foes="001110" cont="0"/>
    </junction>
    <junction id="35" type="priority" x="676.18" y="990.47" incLanes="31238_0 32126_0 31240_0" intLanes=":35_0_0 :35_1_0 :35_2_0 :35_3_0 :35_4_0 :35_5_0" shape="674.10,1011.60 680.68,1009.21 679.42,1004.48 679.28,1000.27 680.25,996.57 682.34,993.40 685.54,990.74 689.85,988.60 687.33,982.07 682.66,983.42 678.41,983.71 674.60,982.92 671.21,981.06 668.25,978.13 665.71,974.13 659.49,977.31 663.08,984.40 665.63,989.68 667.59,994.11 669.37,998.62 671.40,1004.13">
        <request index="0" response="000000" foes="001000" cont="0"/>
        <request index="1" response="110000" foes="111000" cont="0"/>
        <request index="2" response="100000" foes="100000" cont="0"/>
        <request index="3" response="100011" foes="100011" cont="0"/>
        <request index="4" response="000000" foes="000010" cont="0"/>
        <request index="5" response="000000" foes="001110" cont="0"/>
    </junction>
    <junction id="6" type="dead_end" x="704.60" y="977.27" incLanes="32127_0" intLanes="" shape="703.97,975.64 705.23,978.90" rightOfWay="edgePriority"/>

    <connection from="31235" to="31238" fromLane="0" toLane="0" contPos="-4.00" shape="691.57,1057.15 690.35,1053.23 685.22,1037.60 679.43,1021.14" via=":34_0_0" dir="s" state="M"/>
    <connection from="31235" to="31510" fromLane="0" toLane="0" contPos="-4.00" shape="691.57,1057.15 690.67,1053.52 690.33,1051.05 690.25,1048.56 690.46,1046.08 691.00,1043.64 691.87,1041.31 693.06,1039.12 694.54,1037.12 696.25,1035.30 698.14,1033.68 700.18,1032.24 703.41,1030.37 705.66,1029.29" via=":34_1_0" dir="l" state="m"/>
    <connection from="31237" to="31510" fromLane="0" toLane="0" contPos="-4.00" shape="682.71,1019.92 684.01,1022.99 685.10,1024.94 686.38,1026.75 687.90,1028.38 688.75,1029.09 689.66,1029.73 690.63,1030.29 691.64,1030.74 692.70,1031.10 693.78,1031.36 694.88,1031.52 695.99,1031.59 698.21,1031.48 700.41,1031.10 702.55,1030.50 705.66,1029.29" via=":34_4_0" dir="r" state="M"/>
    <connection from="31237" to="31234" fromLane="0" toLane="0" contPos="-4.00" shape="682.71,1019.92 688.53,1036.47 693.68,1052.17 694.93,1056.15" via=":34_5_0" dir="s" state="M"/>
    <connection from="31238" to="31241" fromLane="0" toLane="0" contPos="-4.00" shape="675.74,1010.98 672.44,1002.17 668.13,991.54 664.30,982.99 661.04,976.52" via=":35_0_0" dir="s" state="M"/>
    <connection from="31238" to="32127" fromLane="0" toLane="0" contPos="-4.00" shape="675.74,1010.98 674.58,1007.21 674.06,1004.63 673.81,1002.02 673.88,999.40 674.05,998.10 674.32,996.81 674.69,995.55 675.17,994.33 675.75,993.16 676.44,992.03 677.21,990.97 678.99,989.04 681.01,987.37 683.22,985.95 685.54,984.73 687.96,983.70" via=":35_1_0" dir="l" state="m"/>
    <connection from="31240" to="32127" fromLane="0" toLane="0" contPos="-4.00" shape="664.12,974.86 665.82,977.66 667.14,979.41 668.62,981.01 670.27,982.44 672.10,983.63 674.09,984.55 676.19,985.15 678.35,985.44 680.54,985.44 682.71,985.19 684.84,984.72 687.96,983.70" via=":35_4_0" dir="r" state="M"/>
    <connection from="31240" to="31237" fromLane="0" toLane="0" contPos="-4.00" shape="664.12,974.86 667.44,981.46 671.33,990.12 675.69,1000.88 679.03,1009.81" via=":35_5_0" dir="s" state="M"/>
    <connection from="31241" to="31739" fromLane="0" toLane="0" contPos="-4.00" shape="655.88,965.90 654.57,962.95 653.05,960.12 651.27,957.44 649.91,955.78 648.40,954.27 646.71,952.94 644.86,951.87 642.86,951.10 640.77,950.66 638.63,950.55 636.50,950.75 635.44,950.95" via=":33_0_0" dir="r" state="m"/>
    <connection from="31241" to="31630" fromLane="0" toLane="0" contPos="-4.00" shape="655.88,965.90 655.45,963.83 654.33,954.43 651.95,929.31 651.59,925.13" via=":33_1_0" dir="s" state="m"/>
    <connection from="31241" to="31743" fromLane="0" toLane="0" contPos="-4.00" shape="655.88,965.90 654.92,963.27 654.19,960.58 653.76,957.82 653.70,956.43 653.74,955.03 653.92,953.65 654.23,952.29 654.70,950.98 655.31,949.72 656.05,948.55 656.92,947.46 657.90,946.46 658.97,945.57 660.10,944.76 662.53,943.39 665.10,942.30 667.75,941.44 671.83,940.49 674.57,940.02" via=":33_2_0" dir="l" state="m"/>