<!-- generated on Tue Feb  9 22:21:51 2021 by Eclipse SUMO netconvert Version 1.8.0
<configuration xmlns:xsi="http://www.w3.org/2001/XMLSchema-instance" xsi:noNamespaceSchemaLocation="http://sumo.dlr.de/xsd/netconvertConfiguration.xsd">

    <input>
        <node-files value="./converted_scenarios/scenario-factory/DEU_Guetersloh-36_1_I-1-1/DEU_Guetersloh-36_1_I-1-1.nod.xml"/>
        <edge-files value="./converted_scenarios/scenario-factory/DEU_Guetersloh-36_1_I-1-1/DEU_Guetersloh-36_1_I-1-1.edg.xml"/>
        <connection-files value="./converted_scenarios/scenario-factory/DEU_Guetersloh-36_1_I-1-1/DEU_Guetersloh-36_1_I-1-1.con.xml"/>
        <tllogic-files value="./converted_scenarios/scenario-factory/DEU_Guetersloh-36_1_I-1-1/DEU_Guetersloh-36_1_I-1-1.tll.xml"/>
        <type-files value="/home/zen/commonroad-interactive-benchmarks/install/commonroad-map-tool/crmapconverter/sumo_map/templates/DEU.typ.xml"/>
    </input>

    <output>
        <output-file value="./converted_scenarios/scenario-factory/DEU_Guetersloh-36_1_I-1-1/DEU_Guetersloh-36_1_I-1-1.net.xml"/>
    </output>

    <processing>
        <geometry.remove.keep-edges.explicit value="true"/>
        <geometry.avoid-overlap value="true"/>
        <offset.disable-normalization value="true"/>
    </processing>

    <junctions>
        <no-turnarounds value="true"/>
        <junctions.internal-link-detail value="20"/>
    </junctions>

    <report>
        <aggregate-warnings value="5"/>
    </report>

    <random_number>
        <seed value="1234"/>
    </random_number>

</configuration>
--><net xmlns:xsi="http://www.w3.org/2001/XMLSchema-instance" version="1.6" junctionCornerDetail="5" junctionLinkDetail="20" limitTurnSpeed="5.50" xsi:noNamespaceSchemaLocation="http://sumo.dlr.de/xsd/net_file.xsd">

    <location netOffset="0.00,0.00" convBoundary="179.73,-167.10,329.83,-1.34" origBoundary="179.73,-167.10,332.69,-1.34" projParameter="!"/>

    <type id="highway.bridleway" priority="1" speed="2.78" allow="pedestrian" oneway="1" width="2.00"/>
    <type id="highway.bus_guideway" priority="1" speed="27.78" allow="bus" oneway="1"/>
    <type id="highway.cycleway" priority="1" speed="8.33" allow="bicycle" oneway="0" width="1.00"/>
    <type id="highway.footway" priority="1" speed="2.78" allow="pedestrian" oneway="1" width="2.00"/>
    <type id="highway.ford" priority="1" speed="2.78" allow="army" oneway="0"/>
    <type id="highway.living_street" priority="2" speed="2.78" disallow="tram rail_urban rail rail_electric rail_fast ship" oneway="0"/>
    <type id="highway.motorway" priority="14" speed="39.44" allow="private emergency authority army vip passenger hov taxi bus coach delivery truck trailer motorcycle evehicle custom1 custom2" oneway="1"/>
    <type id="highway.motorway_link" priority="9" speed="22.22" allow="private emergency authority army vip passenger hov taxi bus coach delivery truck trailer motorcycle evehicle custom1 custom2" oneway="1"/>
    <type id="highway.path" priority="1" speed="2.78" allow="pedestrian bicycle" oneway="0" width="2.00"/>
    <type id="highway.pedestrian" priority="1" speed="2.78" allow="pedestrian" oneway="1" width="2.00"/>
    <type id="highway.primary" priority="12" speed="27.78" disallow="pedestrian tram rail_urban rail rail_electric rail_fast ship" oneway="0"/>
    <type id="highway.primary_link" priority="7" speed="22.22" disallow="pedestrian tram rail_urban rail rail_electric rail_fast ship" oneway="0"/>
    <type id="highway.raceway" priority="15" speed="83.33" allow="vip" oneway="0"/>
    <type id="highway.residential" priority="3" speed="13.89" disallow="pedestrian tram rail_urban rail rail_electric rail_fast ship" oneway="0"/>
    <type id="highway.secondary" priority="11" speed="27.78" disallow="pedestrian tram rail_urban rail rail_electric rail_fast ship" oneway="0"/>
    <type id="highway.secondary_link" priority="6" speed="22.22" disallow="pedestrian tram rail_urban rail rail_electric rail_fast ship" oneway="0"/>
    <type id="highway.service" priority="1" speed="5.56" allow="pedestrian delivery bicycle" oneway="0"/>
    <type id="highway.stairs" priority="1" speed="1.39" allow="pedestrian" oneway="1" width="2.00"/>
    <type id="highway.step" priority="1" speed="1.39" allow="pedestrian" oneway="1" width="2.00"/>
    <type id="highway.steps" priority="1" speed="1.39" allow="pedestrian" oneway="1" width="2.00"/>
    <type id="highway.tertiary" priority="10" speed="22.22" disallow="pedestrian tram rail_urban rail rail_electric rail_fast ship" oneway="0"/>
    <type id="highway.tertiary_link" priority="5" speed="22.22" disallow="pedestrian tram rail_urban rail rail_electric rail_fast ship" oneway="0"/>
    <type id="highway.track" priority="1" speed="5.56" allow="pedestrian motorcycle moped bicycle" oneway="0"/>
    <type id="highway.trunk" priority="13" speed="27.78" disallow="pedestrian bicycle tram rail_urban rail rail_electric rail_fast ship" oneway="0"/>
    <type id="highway.trunk_link" priority="8" speed="22.22" disallow="pedestrian bicycle tram rail_urban rail rail_electric rail_fast ship" oneway="0"/>
    <type id="highway.unclassified" priority="4" speed="13.89" disallow="pedestrian tram rail_urban rail rail_electric rail_fast ship" oneway="0"/>
    <type id="highway.unsurfaced" priority="1" speed="8.33" disallow="tram rail_urban rail rail_electric rail_fast ship" oneway="0"/>
    <type id="railway.highspeed" priority="21" speed="69.44" allow="rail_fast" oneway="1"/>
    <type id="railway.light_rail" priority="19" speed="27.78" allow="rail_urban" oneway="1"/>
    <type id="railway.preserved" priority="16" speed="27.78" allow="rail" oneway="1"/>
    <type id="railway.rail" priority="20" speed="44.44" allow="rail" oneway="1"/>
    <type id="railway.subway" priority="18" speed="27.78" allow="rail_urban" oneway="1"/>
    <type id="railway.tram" priority="17" speed="13.89" allow="tram" oneway="1"/>

    <edge id=":18_0" function="internal">
        <lane id=":18_0_0" index="0" disallow="pedestrian tram rail_urban rail rail_electric rail_fast ship" speed="36.11" length="0.10" width="3.50" shape="319.63,-130.30 319.63,-130.30"/>
    </edge>
    <edge id=":20_0" function="internal">
        <lane id=":20_0_0" index="0" disallow="pedestrian tram rail_urban rail rail_electric rail_fast ship" speed="36.11" length="3.68" width="3.50" shape="319.69,-126.29 316.42,-127.97"/>
    </edge>
    <edge id=":21_0" function="internal">
        <lane id=":21_0_0" index="0" disallow="pedestrian tram rail_urban rail rail_electric rail_fast ship" speed="36.11" length="3.70" width="3.50" shape="330.58,-103.98 329.03,-100.62"/>
    </edge>
    <edge id=":23_0" function="internal">
        <lane id=":23_0_0" index="0" disallow="pedestrian tram rail_urban rail rail_electric rail_fast ship" speed="36.11" length="3.71" width="3.50" shape="325.86,-102.10 327.41,-105.47"/>
    </edge>
    <edge id=":33_0" function="internal">
        <lane id=":33_0_0" index="0" disallow="pedestrian tram rail_urban rail rail_electric rail_fast ship" speed="36.11" length="2.99" width="3.50" shape="213.02,-37.62 210.34,-38.95"/>
    </edge>
    <edge id=":38_0" function="internal">
        <lane id=":38_0_0" index="0" disallow="pedestrian tram rail_urban rail rail_electric rail_fast ship" speed="36.11" length="30.15" width="3.50" shape="322.79,-87.61 322.04,-85.81 321.51,-83.96 321.17,-82.06 320.95,-79.07 321.02,-76.04 321.65,-68.70 321.88,-64.38 321.78,-61.05 321.34,-57.79"/>
    </edge>
    <edge id=":38_1" function="internal">
        <lane id=":38_1_0" index="0" disallow="pedestrian tram rail_urban rail rail_electric rail_fast ship" speed="12.21" length="34.43" width="3.50" shape="322.79,-87.61 320.87,-84.10 319.36,-81.92 317.64,-79.91 315.67,-78.14 314.60,-77.37 313.47,-76.69 312.28,-76.11 311.04,-75.63 309.77,-75.26 308.47,-75.01 307.16,-74.87 304.51,-74.88 301.90,-75.26 299.33,-75.92 296.84,-76.81 294.42,-77.88"/>
    </edge>
    <edge id=":38_2" function="internal">
        <lane id=":38_2_0" index="0" disallow="pedestrian tram rail_urban rail rail_electric rail_fast ship" speed="11.21" length="28.86" width="3.50" shape="295.93,-81.04 298.05,-80.10 300.20,-79.32 302.38,-78.76 304.57,-78.45 306.78,-78.43 307.81,-78.55 308.86,-78.75 309.88,-79.04 310.86,-79.42 311.82,-79.89 312.73,-80.44 313.59,-81.05 315.24,-82.53 316.68,-84.22 317.96,-86.06 319.63,-89.13"/>
    </edge>
    <edge id=":38_3" function="internal">
        <lane id=":38_3_0" index="0" disallow="pedestrian tram rail_urban rail rail_electric rail_fast ship" speed="13.65" length="36.28" width="3.50" shape="295.93,-81.04 296.96,-80.54 302.88,-77.48 307.71,-74.69 311.48,-72.22 314.22,-70.17 316.80,-67.88 318.42,-66.14 319.83,-64.20 320.46,-63.07 320.97,-61.87 321.32,-60.56 321.45,-59.18 321.34,-57.79"/>
    </edge>
    <edge id=":38_4" function="internal">
        <lane id=":38_4_0" index="0" disallow="pedestrian tram rail_urban rail rail_electric rail_fast ship" speed="12.74" length="31.59" width="3.50" shape="317.92,-58.63 317.98,-59.41 317.82,-60.43 317.49,-61.40 317.02,-62.31 316.46,-63.17 315.15,-64.75 313.68,-66.18 311.29,-68.13 308.78,-69.91 305.30,-72.10 300.83,-74.62 295.35,-77.43 294.42,-77.88"/>
    </edge>
    <edge id=":38_5" function="internal">
        <lane id=":38_5_0" index="0" disallow="pedestrian tram rail_urban rail rail_electric rail_fast ship" speed="36.11" length="30.85" width="3.50" shape="317.93,-58.63 318.33,-61.57 318.43,-64.78 318.22,-69.06 317.63,-76.54 317.57,-79.75 317.82,-82.95 318.20,-85.06 318.80,-87.12 319.63,-89.13"/>
    </edge>
    <edge id=":39_0" function="internal">
        <lane id=":39_0_0" index="0" disallow="pedestrian tram rail_urban rail rail_electric rail_fast ship" speed="9.18" length="18.66" width="3.50" shape="202.10,-40.01 201.12,-39.78 200.14,-39.45 199.19,-39.03 198.26,-38.53 197.40,-37.96 195.69,-36.58 194.17,-35.00 192.79,-33.27 190.92,-30.40 189.30,-27.34"/>
    </edge>
    <edge id=":39_1" function="internal">
        <lane id=":39_1_0" index="0" disallow="pedestrian tram rail_urban rail rail_electric rail_fast ship" speed="11.51" length="26.91" width="3.49" shape="203.52,-43.01 203.15,-43.25 200.31,-45.55 198.54,-47.29 196.93,-49.21 195.53,-51.32 194.39,-53.60 193.58,-56.05 193.14,-58.58 193.07,-61.15 193.34,-63.68 193.89,-66.10"/>
    </edge>
    <edge id=":39_2" function="internal">
        <lane id=":39_2_0" index="0" disallow="pedestrian tram rail_urban rail rail_electric rail_fast ship" speed="10.39" length="21.87" width="3.50" shape="197.23,-65.05 196.79,-63.08 196.57,-60.94 196.66,-58.79 197.07,-56.68 197.79,-54.65 198.79,-52.74 200.02,-50.98 201.43,-49.36 202.99,-47.87 205.06,-46.23"/>
    </edge>
    <edge id=":39_3" function="internal">
        <lane id=":39_3_0" index="0" disallow="pedestrian tram rail_urban rail rail_electric rail_fast ship" speed="36.11" length="38.68" width="3.50" shape="197.23,-65.05 196.25,-61.11 195.34,-55.94 193.62,-42.42 192.68,-37.27 191.61,-33.21 190.57,-30.24 189.30,-27.34"/>
    </edge>
    <edge id=":39_4" function="internal">
        <lane id=":39_4_0" index="0" disallow="pedestrian tram rail_urban rail rail_electric rail_fast ship" speed="36.11" length="38.16" width="3.49" shape="186.15,-28.88 187.36,-31.63 188.34,-34.44 189.36,-38.34 190.27,-43.34 191.95,-56.76 192.87,-61.98 193.89,-66.10"/>
    </edge>
    <edge id=":39_5" function="internal">
        <lane id=":39_5_0" index="0" disallow="pedestrian tram rail_urban rail rail_electric rail_fast ship" speed="10.47" length="24.43" width="3.50" shape="186.15,-28.88 188.00,-32.34 190.14,-35.60 191.78,-37.63 193.60,-39.48 195.64,-41.10 196.74,-41.79 197.90,-42.39 199.10,-42.90 200.34,-43.29 201.61,-43.57 202.90,-43.74 203.89,-43.78"/>
    </edge>
    <edge id=":40_0" function="internal">
        <lane id=":40_0_0" index="0" disallow="pedestrian tram rail_urban rail rail_electric rail_fast ship" speed="11.22" length="28.43" width="3.50" shape="287.36,-141.99 284.33,-143.27 282.24,-143.90 280.09,-144.32 277.91,-144.46 276.81,-144.41 275.73,-144.28 274.65,-144.05 273.60,-143.74 272.59,-143.33 271.61,-142.84 270.67,-142.27 268.95,-140.93 267.41,-139.37 266.06,-137.65 264.86,-135.81 263.83,-133.92"/>
    </edge>
    <edge id=":40_1" function="internal">
        <lane id=":40_1_0" index="0" disallow="pedestrian tram rail_urban rail rail_electric rail_fast ship" speed="36.11" length="38.24" width="3.50" shape="287.36,-141.99 277.15,-146.99 253.14,-159.05"/>
    </edge>
    <edge id=":40_2" function="internal">
        <lane id=":40_2_0" index="0" disallow="pedestrian tram rail_urban rail rail_electric rail_fast ship" speed="36.11" length="38.13" width="3.50" shape="254.74,-162.17 278.70,-150.13 288.86,-145.15"/>
    </edge>
    <edge id=":40_3" function="internal">
        <lane id=":40_3_0" index="0" disallow="pedestrian tram rail_urban rail rail_electric rail_fast ship" speed="12.16" length="33.90" width="3.50" shape="254.74,-162.17 256.94,-160.94 259.07,-159.54 261.08,-157.91 262.91,-156.04 264.48,-153.94 265.17,-152.75 265.74,-151.52 266.20,-150.25 266.55,-148.95 266.79,-147.62 266.91,-146.28 266.93,-144.92 266.69,-142.33 266.14,-139.80 265.34,-137.35 263.83,-133.92"/>
    </edge>
    <edge id=":40_4" function="internal">
        <lane id=":40_4_0" index="0" disallow="pedestrian tram rail_urban rail rail_electric rail_fast ship" speed="11.15" length="28.34" width="3.50" shape="260.70,-135.49 262.01,-138.46 262.69,-140.54 263.16,-142.67 263.36,-144.84 263.35,-145.93 263.24,-147.02 263.05,-148.10 262.77,-149.15 262.40,-150.18 261.94,-151.16 261.39,-152.11 260.09,-153.86 258.57,-155.42 256.87,-156.79 255.05,-158.00 253.14,-159.05"/>
    </edge>
    <edge id=":40_5" function="internal">
        <lane id=":40_5_0" index="0" disallow="pedestrian tram rail_urban rail rail_electric rail_fast ship" speed="12.22" length="33.93" width="3.50" shape="260.70,-135.49 261.90,-137.69 263.29,-139.83 264.89,-141.85 266.73,-143.72 268.80,-145.33 269.97,-146.04 271.18,-146.64 272.44,-147.14 273.74,-147.53 275.06,-147.81 276.39,-147.97 277.76,-148.03 280.36,-147.86 282.92,-147.36 285.40,-146.61 288.86,-145.15"/>
    </edge>
    <edge id=":41_0" function="internal">
        <lane id=":41_0_0" index="0" disallow="pedestrian tram rail_urban rail rail_electric rail_fast ship" speed="30.02" length="37.16" width="3.50" shape="263.01,-93.10 252.56,-98.08 242.05,-102.82 235.31,-105.59 231.46,-106.92 229.61,-107.38 228.83,-107.46"/>
    </edge>
    <edge id=":41_1" function="internal">
        <lane id=":41_1_0" index="0" disallow="pedestrian tram rail_urban rail rail_electric rail_fast ship" speed="12.10" length="34.13" width="3.50" shape="263.01,-93.10 259.53,-95.01 257.37,-96.50 255.38,-98.20 253.61,-100.14 252.84,-101.20 252.16,-102.32 251.58,-103.49 251.10,-104.71 250.73,-105.97 250.48,-107.26 250.33,-108.56 250.30,-109.88 250.52,-112.49 251.06,-115.05 251.87,-117.55 253.46,-121.15"/>
    </edge>
    <edge id=":41_2" function="internal">
        <lane id=":41_2_0" index="0" disallow="pedestrian tram rail_urban rail rail_electric rail_fast ship" speed="11.09" length="28.49" width="3.50" shape="256.59,-119.58 255.20,-116.44 254.51,-114.33 254.05,-112.17 253.87,-109.99 253.91,-108.96 254.02,-107.91 254.22,-106.88 254.52,-105.88 254.90,-104.90 255.36,-103.96 255.92,-103.06 256.52,-102.22 258.00,-100.60 259.67,-99.17 261.50,-97.91 264.53,-96.25"/>
    </edge>
    <edge id=":41_3" function="internal">
        <lane id=":41_3_0" index="0" disallow="pedestrian tram rail_urban rail rail_electric rail_fast ship" speed="14.95" length="31.90" width="3.50" shape="256.59,-119.58 255.98,-118.47 254.60,-116.48 252.94,-114.67 251.08,-113.10 249.06,-111.78 246.92,-110.68 243.63,-109.43 240.25,-108.55 236.84,-107.97 233.42,-107.63 228.83,-107.46"/>
    </edge>
    <edge id=":41_4" function="internal">
        <lane id=":41_4_0" index="0" disallow="pedestrian tram rail_urban rail rail_electric rail_fast ship" speed="14.04" length="28.16" width="3.50" shape="228.70,-110.96 233.01,-111.11 236.10,-111.40 239.18,-111.90 242.20,-112.65 245.12,-113.71 246.98,-114.62 248.74,-115.73 250.35,-117.03 251.77,-118.54 252.96,-120.24 253.46,-121.15"/>
    </edge>
    <edge id=":41_5" function="internal">
        <lane id=":41_5_0" index="0" disallow="pedestrian tram rail_urban rail rail_electric rail_fast ship" speed="30.85" length="38.85" width="3.50" shape="228.70,-110.96 229.93,-110.86 232.02,-110.37 236.09,-109.00 243.06,-106.18 253.84,-101.34 264.53,-96.25"/>
    </edge>

    <edge id="84587" from="39" to="30" priority="3" type="highway.residential" spreadType="center" length="13.69" shape="200.05,-43.74 182.74,-15.33">
        <lane id="84587_0" index="0" disallow="pedestrian tram rail_urban rail rail_electric rail_fast ship" speed="36.11" length="13.69" width="3.50" customShape="1" shape="189.30,-27.34 187.15,-23.14 182.74,-15.33"/>
    </edge>
    <edge id="84588" from="35" to="39" priority="3" type="highway.residential" spreadType="center" length="13.47" shape="179.73,-17.11 197.06,-45.56">
        <lane id="84588_0" index="0" disallow="pedestrian tram rail_urban rail rail_electric rail_fast ship" speed="36.11" length="13.47" width="3.50" customShape="1" shape="179.73,-17.11 184.06,-24.77 186.18,-28.93"/>
    </edge>
    <edge id="84590" from="41" to="39" priority="3" type="highway.residential" spreadType="center" length="56.08" shape="250.60,-107.02 199.87,-43.48">
        <lane id="84590_0" index="0" disallow="pedestrian tram rail_urban rail rail_electric rail_fast ship" speed="36.11" length="56.08" width="3.50" customShape="1" shape="228.83,-107.46 227.41,-107.41 224.97,-107.07 222.61,-106.41 220.37,-105.40 218.33,-104.04 216.52,-102.38 214.91,-100.53 211.92,-96.63 208.90,-92.15 206.16,-87.49 203.72,-82.67 201.37,-77.27 199.32,-71.74 197.22,-65.05"/>
    </edge>
    <edge id="84591" from="39" to="41" priority="3" type="highway.residential" spreadType="center" length="60.36" shape="197.14,-45.66 247.87,-109.20">
        <lane id="84591_0" index="0" disallow="pedestrian tram rail_urban rail rail_electric rail_fast ship" speed="36.11" length="60.36" width="3.49" customShape="1" shape="193.89,-66.10 196.07,-73.05 198.25,-78.89 200.76,-84.60 203.38,-89.69 206.32,-94.61 209.57,-99.33 212.81,-103.46 214.67,-105.45 216.79,-107.23 219.18,-108.71 221.76,-109.81 224.46,-110.53 227.19,-110.90 228.70,-110.96"/>
    </edge>
    <edge id="84593" from="38" to="41" priority="3" type="highway.residential" spreadType="center" length="34.93" shape="311.19,-73.76 248.36,-106.55">
        <lane id="84593_0" index="0" disallow="pedestrian tram rail_urban rail rail_electric rail_fast ship" speed="36.11" length="34.93" width="3.50" customShape="1" shape="294.42,-77.88 278.70,-85.50 262.98,-93.11"/>
    </edge>
    <edge id="84594" from="41" to="38" priority="3" type="highway.residential" spreadType="center" length="34.91" shape="249.98,-109.66 312.81,-76.86">
        <lane id="84594_0" index="0" disallow="pedestrian tram rail_urban rail rail_electric rail_fast ship" speed="36.11" length="34.91" width="3.50" customShape="1" shape="264.53,-96.25 280.23,-88.65 295.95,-81.03"/>
    </edge>
    <edge id="84599" from="40" to="41" priority="3" type="highway.residential" spreadType="center" length="16.08" shape="269.67,-145.52 250.74,-107.25">
        <lane id="84599_0" index="0" disallow="pedestrian tram rail_urban rail rail_electric rail_fast ship" speed="36.11" length="16.08" width="3.50" customShape="1" shape="263.83,-133.92 260.20,-126.73 256.58,-119.57"/>
    </edge>
    <edge id="84600" from="41" to="40" priority="3" type="highway.residential" spreadType="center" length="16.07" shape="247.61,-108.80 266.54,-147.07">
        <lane id="84600_0" index="0" disallow="pedestrian tram rail_urban rail rail_electric rail_fast ship" speed="36.11" length="16.07" width="3.50" customShape="1" shape="253.46,-121.15 257.07,-128.31 260.70,-135.50"/>
    </edge>
    <edge id="84602" from="20" to="40" priority="3" type="highway.residential" spreadType="center" length="32.29" shape="318.07,-127.17 267.48,-144.66">
        <lane id="84602_0" index="0" disallow="pedestrian tram rail_urban rail rail_electric rail_fast ship" speed="36.11" length="32.29" width="3.50" customShape="1" shape="316.42,-127.97 302.74,-134.57 287.34,-142.00"/>
    </edge>
    <edge id="84603" from="40" to="18" priority="3" type="highway.residential" spreadType="center" length="34.17" shape="268.62,-147.97 319.63,-130.30">
        <lane id="84603_0" index="0" disallow="pedestrian tram rail_urban rail rail_electric rail_fast ship" speed="36.11" length="34.17" width="3.50" customShape="1" shape="288.86,-145.15 304.26,-137.72 319.63,-130.30"/>
    </edge>
    <edge id="84605" from="38" to="23" priority="3" type="highway.residential" spreadType="center" length="14.39" shape="310.45,-76.11 326.67,-103.77">
        <lane id="84605_0" index="0" disallow="pedestrian tram rail_urban rail rail_electric rail_fast ship" speed="36.11" length="14.39" width="3.50" customShape="1" shape="319.63,-89.13 323.15,-96.45 325.86,-102.10"/>
    </edge>
    <edge id="84606" from="21" to="38" priority="3" type="highway.residential" spreadType="center" length="14.43" shape="329.83,-102.28 313.46,-74.34">
        <lane id="84606_0" index="0" disallow="pedestrian tram rail_urban rail rail_electric rail_fast ship" speed="36.11" length="14.43" width="3.50" customShape="1" shape="329.03,-100.62 326.30,-94.93 322.79,-87.61"/>
    </edge>
    <edge id="84677" from="33" to="39" priority="3" type="highway.residential" spreadType="center" length="7.89">
        <lane id="84677_0" index="0" disallow="pedestrian tram rail_urban rail rail_electric rail_fast ship" speed="36.11" length="7.89" width="3.50" customShape="1" shape="210.34,-38.95 203.24,-42.40"/>
    </edge>
    <edge id="84685" from="29" to="38" priority="3" type="highway.residential" spreadType="center" length="61.81" shape="291.65,-2.83 310.32,-75.78">
        <lane id="84685_0" index="0" disallow="pedestrian tram rail_urban rail rail_electric rail_fast ship" speed="36.11" length="61.81" width="3.49" customShape="1" shape="291.65,-2.83 305.64,-33.32 307.65,-37.35 311.18,-43.40 314.20,-48.60 315.95,-52.19 317.17,-55.48 317.96,-58.62"/>
    </edge>
    <edge id="84686" from="38" to="22" priority="3" type="highway.residential" spreadType="center" length="62.50" shape="313.71,-74.91 294.82,-1.34">
        <lane id="84686_0" index="0" disallow="pedestrian tram rail_urban rail rail_electric rail_fast ship" speed="36.11" length="62.50" width="3.50" customShape="1" shape="321.34,-57.79 320.56,-54.61 319.30,-51.13 317.49,-47.35 314.44,-42.04 310.90,-36.00 308.90,-32.03 294.82,-1.34"/>
    </edge>
    <edge id="84753" from="28" to="40" priority="3" type="highway.residential" spreadType="center" length="10.84" shape="245.10,-167.10 269.28,-147.59">
        <lane id="84753_0" index="0" disallow="pedestrian tram rail_urban rail rail_electric rail_fast ship" speed="36.11" length="10.84" width="3.50" customShape="1" shape="245.10,-167.10 249.92,-164.63 254.75,-162.16"/>
    </edge>
    <edge id="84754" from="40" to="19" priority="3" type="highway.residential" spreadType="center" length="10.82" shape="267.08,-144.87 243.51,-163.98">
        <lane id="84754_0" index="0" disallow="pedestrian tram rail_urban rail rail_electric rail_fast ship" speed="36.11" length="10.82" width="3.50" customShape="1" shape="253.14,-159.05 248.32,-161.52 243.51,-163.98"/>
    </edge>
    <edge id="85063" from="34" to="33" priority="3" type="highway.residential" spreadType="center" length="18.99">
        <lane id="85063_0" index="0" disallow="pedestrian tram rail_urban rail rail_electric rail_fast ship" speed="36.11" length="18.99" width="3.50" customShape="1" shape="223.27,-23.86 223.63,-24.81 223.84,-25.81 223.87,-26.84 223.73,-27.85 223.42,-28.83 222.98,-29.75 222.43,-30.62 221.79,-31.42 221.10,-32.18 219.57,-33.55 217.93,-34.77 215.32,-36.40 213.02,-37.62"/>
    </edge>
    <edge id="85066" from="39" to="37" priority="3" type="highway.residential" spreadType="center" length="35.27">
        <lane id="85066_0" index="0" disallow="pedestrian tram rail_urban rail rail_electric rail_fast ship" speed="36.11" length="35.27" width="3.50" customShape="1" shape="204.71,-45.50 213.08,-41.50 213.20,-41.45 214.28,-40.92 217.45,-39.20 220.50,-37.22 222.46,-35.67 224.25,-33.91 225.09,-32.89 225.84,-31.79 226.48,-30.59 226.97,-29.30 227.28,-27.92 227.39,-26.50 227.27,-25.08 226.95,-23.71 226.47,-22.45"/>
    </edge>
    <edge id="85225" from="18" to="21" priority="3" type="highway.residential" spreadType="center" length="32.35">
        <lane id="85225_0" index="0" disallow="pedestrian tram rail_urban rail rail_electric rail_fast ship" speed="36.11" length="32.35" width="3.50" customShape="1" shape="319.63,-130.30 323.10,-128.41 325.28,-126.94 327.30,-125.25 329.10,-123.34 329.89,-122.29 330.61,-121.19 331.23,-120.02 331.74,-118.81 332.15,-117.56 332.44,-116.28 332.63,-114.98 332.69,-112.35 332.37,-109.74 331.75,-107.18 330.89,-104.70 330.58,-103.98"/>
    </edge>
    <edge id="85228" from="23" to="20" priority="3" type="highway.residential" spreadType="center" length="25.00">
        <lane id="85228_0" index="0" disallow="pedestrian tram rail_urban rail rail_electric rail_fast ship" speed="36.11" length="25.00" width="3.50" customShape="1" shape="327.41,-105.47 327.60,-105.89 328.34,-108.03 328.86,-110.19 329.12,-112.36 329.07,-114.54 328.92,-115.56 328.68,-116.58 328.35,-117.58 327.94,-118.55 327.44,-119.48 326.86,-120.38 326.23,-121.21 324.71,-122.82 323.00,-124.24 321.14,-125.50 319.69,-126.29"/>
    </edge>

    <junction id="18" type="priority" x="319.63" y="-130.30" incLanes="84603_0" intLanes=":18_0_0" shape="318.87,-128.72 320.55,-131.79 320.31,-131.92 318.79,-128.77" rightOfWay="edgePriority">
        <request index="0" response="0" foes="0" cont="0"/>
    </junction>
    <junction id="19" type="dead_end" x="243.51" y="-163.98" incLanes="84754_0" intLanes="" shape="242.71,-162.42 244.31,-165.54" rightOfWay="edgePriority"/>
    <junction id="20" type="priority" x="318.07" y="-127.17" incLanes="85228_0" intLanes=":20_0_0" shape="318.86,-124.75 320.53,-127.83 317.18,-129.54 315.65,-126.39" rightOfWay="edgePriority">
        <request index="0" response="0" foes="0" cont="0"/>
    </junction>
    <junction id="21" type="priority" x="329.83" y="-102.28" incLanes="85225_0" intLanes=":21_0_0" shape="332.18,-103.28 328.97,-104.68 327.46,-101.37 330.61,-99.86" rightOfWay="edgePriority">
        <request index="0" response="0" foes="0" cont="0"/>
    </junction>
    <junction id="22" type="dead_end" x="294.82" y="-1.34" incLanes="84686_0" intLanes="" shape="296.41,-0.61 293.23,-2.07" rightOfWay="edgePriority"/>
    <junction id="23" type="priority" x="326.67" y="-103.77" incLanes="84605_0" intLanes=":23_0_0" shape="329.02,-104.77 325.81,-106.18 324.28,-102.85 327.44,-101.34" rightOfWay="edgePriority">
        <request index="0" response="0" foes="0" cont="0"/>
    </junction>
    <junction id="28" type="dead_end" x="245.10" y="-167.10" incLanes="" intLanes="" shape="244.31,-165.54 245.90,-168.66" rightOfWay="edgePriority"/>
    <junction id="29" type="dead_end" x="291.65" y="-2.83" incLanes="" intLanes="" shape="293.24,-2.11 290.07,-3.56" rightOfWay="edgePriority"/>
    <junction id="30" type="dead_end" x="182.74" y="-15.33" incLanes="84587_0" intLanes="" shape="184.26,-14.47 181.22,-16.19" rightOfWay="edgePriority"/>
    <junction id="33" type="priority" x="211.68" y="-38.29" incLanes="85063_0" intLanes=":33_0_0" shape="212.26,-36.05 213.79,-39.19 211.09,-40.53 209.58,-37.37" rightOfWay="edgePriority">
        <request index="0" response="0" foes="0" cont="0"/>
    </junction>
    <junction id="34" type="dead_end" x="223.27" y="-23.86" incLanes="" intLanes="" shape="224.91,-23.24 221.63,-24.47" rightOfWay="edgePriority"/>
    <junction id="35" type="dead_end" x="179.73" y="-17.11" incLanes="" intLanes="" shape="181.25,-16.24 178.20,-17.97" rightOfWay="edgePriority"/>
    <junction id="37" type="dead_end" x="226.47" y="-22.45" incLanes="85066_0" intLanes="" shape="228.11,-21.83 224.84,-23.07" rightOfWay="edgePriority"/>
    <junction id="38" type="priority" x="312.00" y="-75.31" incLanes="84606_0 84594_0 84685_0" intLanes=":38_0_0 :38_1_0 :38_2_0 :38_3_0 :38_4_0 :38_5_0" shape="324.36,-86.86 318.06,-89.88 315.56,-85.71 312.63,-82.72 309.29,-80.92 305.52,-80.30 301.33,-80.86 296.71,-82.61 293.66,-76.31 300.96,-72.60 306.84,-69.22 311.32,-66.17 314.38,-63.46 316.03,-61.08 316.26,-59.04 323.04,-57.37 323.92,-63.61 323.53,-68.43 322.63,-72.50 321.96,-76.48 322.29,-81.05">
        <request index="0" response="000000" foes="001000" cont="0"/>
        <request index="1" response="110000" foes="111000" cont="0"/>
        <request index="2" response="100000" foes="100000" cont="0"/>
        <request index="3" response="100011" foes="100011" cont="0"/>
        <request index="4" response="000000" foes="000010" cont="0"/>
        <request index="5" response="000000" foes="001110" cont="0"/>
    </junction>
    <junction id="39" type="priority" x="198.51" y="-44.57" incLanes="84677_0 84590_0 84588_0" intLanes=":39_0_0 :39_1_0 :39_2_0 :39_3_0 :39_4_0 :39_5_0" shape="202.46,-40.78 205.46,-47.08 202.37,-48.95 200.08,-51.24 198.59,-53.94 197.89,-57.06 197.99,-60.59 198.89,-64.53 192.22,-66.62 190.29,-58.81 189.65,-52.80 189.52,-47.73 189.14,-42.75 187.77,-37.04 184.62,-29.73 190.85,-26.55 193.32,-31.14 195.57,-34.84 197.61,-37.65 199.44,-39.58 201.06,-40.63">
        <request index="0" response="001000" foes="001000" cont="0"/>
        <request index="1" response="111000" foes="111000" cont="0"/>
        <request index="2" response="000000" foes="100000" cont="0"/>
        <request index="3" response="000000" foes="100011" cont="0"/>
        <request index="4" response="000000" foes="000010" cont="0"/>
        <request index="5" response="001100" foes="001110" cont="0"/>
    </junction>