<routes>
	<vehicle depart="0.1" departLane="1" departPos="100.97428688242903" departSpeed="12.235901" id="1" type="passenger">
		<route edges="26 28 24"/>
	</vehicle>
	<vehicle depart="0.1" departLane="0" departPos="0" departSpeed="10.967219" id="2" type="passenger">
		<route edges="26 26 28 24"/>
	</vehicle>
	<vehicle depart="0.1" departLane="0" departPos="0" departSpeed="13.406205" id="3" type="passenger">
		<route edges="26 27 24"/>
	</vehicle>
</routes>
