<!-- generated on Tue Feb  9 22:01:40 2021 by Eclipse SUMO netconvert Version 1.8.0
<configuration xmlns:xsi="http://www.w3.org/2001/XMLSchema-instance" xsi:noNamespaceSchemaLocation="http://sumo.dlr.de/xsd/netconvertConfiguration.xsd">

    <input>
        <node-files value="./converted_scenarios/scenario-factory/BEL_Putte-3_3_I-1-1/BEL_Putte-3_3_I-1-1.nod.xml"/>
        <edge-files value="./converted_scenarios/scenario-factory/BEL_Putte-3_3_I-1-1/BEL_Putte-3_3_I-1-1.edg.xml"/>
        <connection-files value="./converted_scenarios/scenario-factory/BEL_Putte-3_3_I-1-1/BEL_Putte-3_3_I-1-1.con.xml"/>
        <tllogic-files value="./converted_scenarios/scenario-factory/BEL_Putte-3_3_I-1-1/BEL_Putte-3_3_I-1-1.tll.xml"/>
        <type-files value="/home/zen/commonroad-interactive-benchmarks/install/commonroad-map-tool/crmapconverter/sumo_map/templates/DEU.typ.xml"/>
    </input>

    <output>
        <output-file value="./converted_scenarios/scenario-factory/BEL_Putte-3_3_I-1-1/BEL_Putte-3_3_I-1-1.net.xml"/>
    </output>

    <processing>
        <geometry.remove.keep-edges.explicit value="true"/>
        <geometry.avoid-overlap value="true"/>
        <offset.disable-normalization value="true"/>
    </processing>

    <junctions>
        <no-turnarounds value="true"/>
        <junctions.internal-link-detail value="20"/>
    </junctions>

    <report>
        <aggregate-warnings value="5"/>
    </report>

    <random_number>
        <seed value="1234"/>
    </random_number>

</configuration>
--><net xmlns:xsi="http://www.w3.org/2001/XMLSchema-instance" version="1.6" junctionCornerDetail="5" junctionLinkDetail="20" limitTurnSpeed="5.50" xsi:noNamespaceSchemaLocation="http://sumo.dlr.de/xsd/net_file.xsd">

    <location netOffset="0.00,0.00" convBoundary="660.86,-694.48,795.87,-521.67" origBoundary="660.86,-694.48,795.87,-521.67" projParameter="!"/>

    <type id="highway.bridleway" priority="1" speed="2.78" allow="pedestrian" oneway="1" width="2.00"/>
    <type id="highway.bus_guideway" priority="1" speed="27.78" allow="bus" oneway="1"/>
    <type id="highway.cycleway" priority="1" speed="8.33" allow="bicycle" oneway="0" width="1.00"/>
    <type id="highway.footway" priority="1" speed="2.78" allow="pedestrian" oneway="1" width="2.00"/>
    <type id="highway.ford" priority="1" speed="2.78" allow="army" oneway="0"/>
    <type id="highway.living_street" priority="2" speed="2.78" disallow="tram rail_urban rail rail_electric rail_fast ship" oneway="0"/>
    <type id="highway.motorway" priority="14" speed="39.44" allow="private emergency authority army vip passenger hov taxi bus coach delivery truck trailer motorcycle evehicle custom1 custom2" oneway="1"/>
    <type id="highway.motorway_link" priority="9" speed="22.22" allow="private emergency authority army vip passenger hov taxi bus coach delivery truck trailer motorcycle evehicle custom1 custom2" oneway="1"/>
    <type id="highway.path" priority="1" speed="2.78" allow="pedestrian bicycle" oneway="0" width="2.00"/>
    <type id="highway.pedestrian" priority="1" speed="2.78" allow="pedestrian" oneway="1" width="2.00"/>
    <type id="highway.primary" priority="12" speed="27.78" disallow="pedestrian tram rail_urban rail rail_electric rail_fast ship" oneway="0"/>
    <type id="highway.primary_link" priority="7" speed="22.22" disallow="pedestrian tram rail_urban rail rail_electric rail_fast ship" oneway="0"/>
    <type id="highway.raceway" priority="15" speed="83.33" allow="vip" oneway="0"/>
    <type id="highway.residential" priority="3" speed="13.89" disallow="pedestrian tram rail_urban rail rail_electric rail_fast ship" oneway="0"/>
    <type id="highway.secondary" priority="11" speed="27.78" disallow="pedestrian tram rail_urban rail rail_electric rail_fast ship" oneway="0"/>
    <type id="highway.secondary_link" priority="6" speed="22.22" disallow="pedestrian tram rail_urban rail rail_electric rail_fast ship" oneway="0"/>
    <type id="highway.service" priority="1" speed="5.56" allow="pedestrian delivery bicycle" oneway="0"/>
    <type id="highway.stairs" priority="1" speed="1.39" allow="pedestrian" oneway="1" width="2.00"/>
    <type id="highway.step" priority="1" speed="1.39" allow="pedestrian" oneway="1" width="2.00"/>
    <type id="highway.steps" priority="1" speed="1.39" allow="pedestrian" oneway="1" width="2.00"/>
    <type id="highway.tertiary" priority="10" speed="22.22" disallow="pedestrian tram rail_urban rail rail_electric rail_fast ship" oneway="0"/>
    <type id="highway.tertiary_link" priority="5" speed="22.22" disallow="pedestrian tram rail_urban rail rail_electric rail_fast ship" oneway="0"/>
    <type id="highway.track" priority="1" speed="5.56" allow="pedestrian motorcycle moped bicycle" oneway="0"/>
    <type id="highway.trunk" priority="13" speed="27.78" disallow="pedestrian bicycle tram rail_urban rail rail_electric rail_fast ship" oneway="0"/>
    <type id="highway.trunk_link" priority="8" speed="22.22" disallow="pedestrian bicycle tram rail_urban rail rail_electric rail_fast ship" oneway="0"/>
    <type id="highway.unclassified" priority="4" speed="13.89" disallow="pedestrian tram rail_urban rail rail_electric rail_fast ship" oneway="0"/>
    <type id="highway.unsurfaced" priority="1" speed="8.33" disallow="tram rail_urban rail rail_electric rail_fast ship" oneway="0"/>
    <type id="railway.highspeed" priority="21" speed="69.44" allow="rail_fast" oneway="1"/>
    <type id="railway.light_rail" priority="19" speed="27.78" allow="rail_urban" oneway="1"/>
    <type id="railway.preserved" priority="16" speed="27.78" allow="rail" oneway="1"/>
    <type id="railway.rail" priority="20" speed="44.44" allow="rail" oneway="1"/>
    <type id="railway.subway" priority="18" speed="27.78" allow="rail_urban" oneway="1"/>
    <type id="railway.tram" priority="17" speed="13.89" allow="tram" oneway="1"/>

    <edge id=":11_0" function="internal">
        <lane id=":11_0_0" index="0" disallow="pedestrian tram rail_urban rail rail_electric rail_fast ship" speed="36.11" length="3.00" width="3.50" shape="714.82,-583.88 713.19,-581.36"/>
    </edge>
    <edge id=":19_0" function="internal">
        <lane id=":19_0_0" index="0" disallow="pedestrian tram rail_urban rail rail_electric rail_fast ship" speed="36.11" length="2.59" width="3.49" shape="750.95,-631.67 750.85,-631.50 750.76,-631.35 750.68,-631.21 750.61,-631.09 750.54,-630.98 750.48,-630.87 750.43,-630.78 750.37,-630.68 750.32,-630.59 750.27,-630.50 750.23,-630.41 750.18,-630.32 750.13,-630.22 750.07,-630.11 750.02,-629.99 749.95,-629.86 749.88,-629.72 749.81,-629.56 749.72,-629.39"/>
    </edge>
    <edge id=":21_0" function="internal">
        <lane id=":21_0_0" index="0" disallow="pedestrian tram rail_urban rail rail_electric rail_fast ship" speed="36.11" length="3.01" width="3.38" shape="710.25,-583.27 711.89,-585.79"/>
    </edge>
    <edge id=":29_0" function="internal">
        <lane id=":29_0_0" index="0" disallow="pedestrian tram rail_urban rail rail_electric rail_fast ship" speed="36.11" length="23.52" width="3.50" shape="755.24,-597.04 750.68,-597.57 743.64,-598.88 736.10,-600.33 732.05,-600.87"/>
    </edge>
    <edge id=":29_1" function="internal">
        <lane id=":29_1_0" index="0" disallow="pedestrian tram rail_urban rail rail_electric rail_fast ship" speed="9.28" length="19.52" width="3.50" shape="755.52,-600.53 754.18,-600.65 751.53,-601.04 748.90,-601.67 747.55,-602.14 746.23,-602.74 744.94,-603.51 743.76,-604.51 742.74,-605.75 741.99,-607.22 741.59,-608.83 741.56,-610.78"/>
    </edge>
    <edge id=":29_2" function="internal">
        <lane id=":29_2_0" index="0" disallow="pedestrian tram rail_urban rail rail_electric rail_fast ship" speed="7.98" length="14.13" width="3.49" shape="745.06,-610.59 745.07,-609.15 745.38,-608.14 745.95,-607.26 746.72,-606.53 747.60,-605.95 748.56,-605.49 749.55,-605.12 750.57,-604.82 752.64,-604.39 754.74,-604.11 755.79,-604.02"/>
    </edge>
    <edge id=":29_3" function="internal">
        <lane id=":29_3_0" index="0" disallow="pedestrian tram rail_urban rail rail_electric rail_fast ship" speed="9.09" length="18.77" width="3.50" shape="745.06,-610.59 744.83,-608.69 744.47,-607.20 743.93,-605.77 743.16,-604.44 742.17,-603.28 740.97,-602.33 739.60,-601.63 738.15,-601.15 736.64,-600.87 735.11,-600.75 733.58,-600.76 732.05,-600.87"/>
    </edge>
    <edge id=":29_4" function="internal">
        <lane id=":29_4_0" index="0" disallow="pedestrian tram rail_urban rail rail_electric rail_fast ship" speed="7.68" length="13.04" width="3.50" shape="732.38,-604.35 733.59,-604.26 734.76,-604.25 735.89,-604.33 736.98,-604.52 737.98,-604.83 738.87,-605.26 739.63,-605.84 740.26,-606.55 740.76,-607.38 741.14,-608.34 741.39,-609.39 741.56,-610.78"/>
    </edge>
    <edge id=":29_5" function="internal">
        <lane id=":29_5_0" index="0" disallow="pedestrian tram rail_urban rail rail_electric rail_fast ship" speed="36.11" length="23.42" width="3.49" shape="732.38,-604.35 736.97,-604.06 744.10,-604.11 751.73,-604.21 755.79,-604.02"/>
    </edge>
    <edge id=":30_0" function="internal">
        <lane id=":30_0_0" index="0" disallow="pedestrian tram rail_urban rail rail_electric rail_fast ship" speed="10.12" length="15.75" width="3.48" shape="731.83,-600.89 729.41,-601.02 728.28,-600.98 727.16,-600.85 726.12,-600.63 725.17,-600.28 724.34,-599.82 723.67,-599.25 723.15,-598.55 720.53,-592.83"/>
    </edge>
    <edge id=":30_1" function="internal">
        <lane id=":30_1_0" index="0" disallow="pedestrian tram rail_urban rail rail_electric rail_fast ship" speed="36.11" length="18.06" width="3.50" shape="731.83,-600.89 728.22,-601.05 721.59,-600.70 717.50,-600.58 713.79,-600.85"/>
    </edge>
    <edge id=":30_2" function="internal">
        <lane id=":30_2_0" index="0" disallow="pedestrian tram rail_urban rail rail_electric rail_fast ship" speed="36.11" length="18.06" width="3.50" shape="714.45,-607.82 719.18,-607.15 729.12,-604.82 732.16,-604.37"/>
    </edge>
    <edge id=":30_3" function="internal">
        <lane id=":30_3_0" index="0" disallow="pedestrian tram rail_urban rail rail_electric rail_fast ship" speed="7.93" length="18.19" width="3.48" shape="714.12,-604.34 717.24,-603.94 719.14,-603.49 720.95,-602.74 722.42,-601.46 723.05,-599.65 720.53,-592.83"/>
    </edge>
    <edge id=":30_4" function="internal">
        <lane id=":30_4_0" index="0" disallow="pedestrian tram rail_urban rail rail_electric rail_fast ship" speed="6.49" length="11.73" width="3.50" shape="717.39,-594.38 719.82,-599.01 719.33,-599.64 718.51,-600.01 717.46,-600.32 716.23,-600.56 713.79,-600.85"/>
    </edge>
    <edge id=":30_5" function="internal">
        <lane id=":30_5_0" index="0" disallow="pedestrian tram rail_urban rail rail_electric rail_fast ship" speed="11.39" length="20.00" width="3.50" shape="717.39,-594.38 720.06,-600.23 720.92,-601.46 722.01,-602.50 723.28,-603.30 724.68,-603.87 726.14,-604.24 727.63,-604.44 729.14,-604.52 732.16,-604.37"/>
    </edge>
    <edge id=":31_0" function="internal">
        <lane id=":31_0_0" index="0" disallow="pedestrian tram rail_urban rail rail_electric rail_fast ship" speed="36.11" length="5.87" width="3.50" shape="773.38,-595.66 767.52,-596.07"/>
    </edge>
    <edge id=":31_1" function="internal">
        <lane id=":31_1_0" index="0" disallow="pedestrian tram rail_urban rail rail_electric rail_fast ship" speed="36.11" length="6.01" width="3.50" shape="773.78,-599.01 767.80,-599.56"/>
    </edge>
    <edge id=":33_0" function="internal">
        <lane id=":33_0_0" index="0" disallow="pedestrian tram rail_urban rail rail_electric rail_fast ship" speed="36.11" length="3.08" width="3.50" shape="689.11,-610.88 692.17,-610.53"/>
    </edge>
    <edge id=":33_1" function="internal">
        <lane id=":33_1_0" index="0" disallow="pedestrian tram rail_urban rail rail_electric rail_fast ship" speed="36.11" length="3.16" width="3.50" shape="688.61,-607.48 691.74,-607.06"/>
    </edge>
    <edge id=":9_0" function="internal">
        <lane id=":9_0_0" index="0" disallow="pedestrian tram rail_urban rail rail_electric rail_fast ship" speed="36.11" length="2.62" width="3.50" shape="746.64,-631.04 746.72,-631.21 746.80,-631.37 746.87,-631.51 746.93,-631.64 746.99,-631.76 747.05,-631.87 747.10,-631.97 747.15,-632.07 747.19,-632.16 747.24,-632.25 747.29,-632.34 747.35,-632.44 747.40,-632.54 747.46,-632.64 747.53,-632.76 747.60,-632.88 747.68,-633.02 747.78,-633.17 747.88,-633.34"/>
    </edge>

    <edge id="7570" from="31" to="29" priority="3" type="highway.residential" spreadType="center" length="12.32" shape="771.81,-597.48 742.82,-601.09">
        <lane id="7570_0" index="0" disallow="pedestrian tram rail_urban rail rail_electric rail_fast ship" speed="36.11" length="12.33" width="3.50" customShape="1" shape="767.52,-596.07 767.00,-596.11 762.57,-596.46 762.44,-596.47 762.31,-596.48 758.90,-596.75 755.50,-597.02 755.37,-597.03 755.23,-597.04"/>
        <lane id="7570_1" index="1" disallow="pedestrian tram rail_urban rail rail_electric rail_fast ship" speed="36.11" length="12.32" width="3.50" customShape="1" shape="767.80,-599.56 767.27,-599.60 762.85,-599.95 762.72,-599.96 762.59,-599.97 759.18,-600.24 755.77,-600.51 755.65,-600.52 755.52,-600.53"/>
    </edge>
    <edge id="7629" from="29" to="30" priority="3" type="highway.residential" spreadType="center" length="0.24" shape="743.90,-602.76 722.89,-599.91">
        <lane id="7629_0" index="0" disallow="pedestrian tram rail_urban rail rail_electric rail_fast ship" speed="36.11" length="0.24" width="3.50" customShape="1" shape="732.05,-600.87 731.81,-600.89"/>
    </edge>
    <edge id="7630" from="30" to="29" priority="3" type="highway.residential" spreadType="center" length="0.26" shape="722.42,-603.36 743.43,-606.22">
        <lane id="7630_0" index="0" disallow="pedestrian tram rail_urban rail rail_electric rail_fast ship" speed="36.11" length="0.26" width="3.50" customShape="1" shape="732.16,-604.37 732.28,-604.36 732.42,-604.35"/>
    </edge>
    <edge id="7644" from="33" to="30" priority="3" type="highway.residential" spreadType="center" length="22.44" shape="690.45,-608.98 723.57,-605.07">
        <lane id="7644_0" index="0" disallow="pedestrian tram rail_urban rail rail_electric rail_fast ship" speed="36.11" length="22.44" width="3.50" customShape="1" shape="692.17,-610.53 692.65,-610.47 704.01,-609.03 714.45,-607.82"/>
        <lane id="7644_1" index="1" disallow="pedestrian tram rail_urban rail rail_electric rail_fast ship" speed="36.11" length="22.55" width="3.50" customShape="1" shape="691.74,-607.06 692.23,-607.00 703.64,-605.55 714.12,-604.34"/>
    </edge>
    <edge id="7676" from="11" to="12" priority="3" type="highway.residential" spreadType="center" length="68.50">
        <lane id="7676_0" index="0" disallow="pedestrian tram rail_urban rail rail_electric rail_fast ship" speed="36.11" length="68.50" width="3.50" customShape="1" shape="713.19,-581.36 705.26,-569.17 698.68,-558.51 692.72,-548.06 687.80,-538.75 682.95,-528.85 679.79,-521.67"/>
    </edge>
    <edge id="7677" from="22" to="21" priority="3" type="highway.residential" spreadType="center" length="68.49">
        <lane id="7677_0" index="0" disallow="pedestrian tram rail_urban rail rail_electric rail_fast ship" speed="36.11" length="68.49" width="3.50" customShape="1" shape="676.82,-523.60 679.84,-530.47 684.73,-540.44 689.68,-549.81 695.68,-560.32 702.30,-571.05 710.25,-583.27"/>
    </edge>
    <edge id="7683" from="21" to="30" priority="3" type="highway.residential" spreadType="center" length="10.20" shape="711.07,-584.53 721.40,-602.61">
        <lane id="7683_0" index="0" disallow="pedestrian tram rail_urban rail rail_electric rail_fast ship" speed="36.11" length="10.20" width="3.38" customShape="1" shape="711.89,-585.79 713.84,-588.80 716.61,-593.06 716.68,-593.17 716.75,-593.28 717.39,-594.38"/>
    </edge>
    <edge id="7687" from="19" to="29" priority="3" type="highway.residential" spreadType="center" length="19.48" shape="750.29,-630.55 745.36,-604.06">
        <lane id="7687_0" index="0" disallow="pedestrian tram rail_urban rail rail_electric rail_fast ship" speed="36.11" length="19.48" width="3.49" customShape="1" shape="749.72,-629.39 748.93,-627.73 747.81,-624.80 746.65,-620.79 745.82,-616.69 745.14,-611.50 745.06,-610.59"/>
    </edge>
    <edge id="7693" from="20" to="19" priority="3" type="highway.residential" spreadType="center" length="68.70">
        <lane id="7693_0" index="0" disallow="pedestrian tram rail_urban rail rail_electric rail_fast ship" speed="36.11" length="68.70" width="3.50" customShape="1" shape="781.74,-692.81 775.14,-676.27 770.83,-665.44 766.72,-657.30 764.38,-652.81 757.75,-642.02 752.37,-634.04 750.95,-631.67"/>
    </edge>
    <edge id="7694" from="9" to="10" priority="3" type="highway.residential" spreadType="center" length="68.69">
        <lane id="7694_0" index="0" disallow="pedestrian tram rail_urban rail rail_electric rail_fast ship" speed="36.11" length="68.69" width="3.50" customShape="1" shape="747.88,-633.34 749.34,-635.81 754.72,-643.77 761.29,-654.45 763.59,-658.87 767.65,-666.91 771.92,-677.64 778.64,-694.48"/>
    </edge>
    <edge id="7947" from="32" to="31" priority="3" type="highway.residential" spreadType="center" length="22.06">
        <lane id="7947_0" index="0" disallow="pedestrian tram rail_urban rail rail_electric rail_fast ship" speed="36.11" length="22.06" width="3.50" customShape="1" shape="795.57,-595.60 790.40,-596.22 777.11,-598.62 773.78,-599.01"/>
    </edge>
    <edge id="7948" from="32" to="31" priority="3" type="highway.residential" spreadType="center" length="22.20">
        <lane id="7948_0" index="0" disallow="pedestrian tram rail_urban rail rail_electric rail_fast ship" speed="36.11" length="22.20" width="3.50" customShape="1" shape="795.57,-595.60 790.48,-595.81 776.24,-595.54 773.38,-595.66"/>
    </edge>
    <edge id="8287" from="30" to="11" priority="3" type="highway.residential" spreadType="center" length="10.62" shape="724.38,-600.92 714.00,-582.62">
        <lane id="8287_0" index="0" disallow="pedestrian tram rail_urban rail rail_electric rail_fast ship" speed="36.11" length="10.62" width="3.48" customShape="1" shape="720.53,-592.83 719.71,-591.42 719.62,-591.27 719.55,-591.16 716.78,-586.89 714.82,-583.88"/>
    </edge>
    <edge id="8320" from="30" to="24" priority="3" type="highway.residential" spreadType="center" length="53.53" shape="722.60,-599.92 660.86,-608.70">
        <lane id="8320_0" index="0" disallow="pedestrian tram rail_urban rail rail_electric rail_fast ship" speed="36.11" length="53.53" width="3.50" customShape="1" shape="713.79,-600.85 703.24,-602.07 691.81,-603.53 690.81,-603.65 689.79,-603.77 684.54,-604.54 674.20,-606.55 666.00,-608.05 660.86,-608.70"/>
    </edge>
    <edge id="8351" from="29" to="26" priority="3" type="highway.residential" spreadType="center" length="40.42" shape="743.85,-606.23 795.87,-599.09">
        <lane id="8351_0" index="0" disallow="pedestrian tram rail_urban rail rail_electric rail_fast ship" speed="36.11" length="40.42" width="3.49" customShape="1" shape="755.79,-604.02 755.92,-604.01 756.05,-604.00 759.46,-603.73 762.87,-603.46 763.00,-603.45 763.12,-603.44 767.55,-603.09 771.97,-602.74 772.10,-602.73 772.26,-602.71 777.50,-602.09 790.80,-599.69 795.87,-599.09"/>
    </edge>
    <edge id="8386" from="29" to="9" priority="3" type="highway.residential" spreadType="center" length="21.01" shape="741.93,-604.71 747.21,-632.21">
        <lane id="8386_0" index="0" disallow="pedestrian tram rail_urban rail rail_electric rail_fast ship" speed="36.11" length="21.01" width="3.50" customShape="1" shape="741.56,-610.78 741.66,-611.87 742.38,-617.34 743.28,-621.70 744.52,-626.00 745.74,-629.16 746.64,-631.04"/>
    </edge>
    <edge id="8393" from="34" to="33" priority="3" type="highway.residential" spreadType="center" length="27.93">
        <lane id="8393_0" index="0" disallow="pedestrian tram rail_urban rail rail_electric rail_fast ship" speed="36.11" length="27.93" width="3.50" customShape="1" shape="661.22,-612.18 667.82,-611.74 683.57,-611.31 689.11,-610.88"/>
    </edge>
    <edge id="8394" from="34" to="33" priority="3" type="highway.residential" spreadType="center" length="27.80">
        <lane id="8394_0" index="0" disallow="pedestrian tram rail_urban rail rail_electric rail_fast ship" speed="36.11" length="27.80" width="3.50" customShape="1" shape="661.22,-612.18 666.44,-611.52 674.71,-610.01 685.04,-608.01 688.61,-607.48"/>
    </edge>

    <junction id="10" type="dead_end" x="778.64" y="-694.48" incLanes="7694_0" intLanes="" shape="777.02,-695.13 780.27,-693.83" rightOfWay="edgePriority"/>
    <junction id="11" type="priority" x="714.00" y="-582.62" incLanes="8287_0" intLanes=":11_0_0" shape="716.28,-582.93 713.36,-584.83 711.72,-582.32 714.65,-580.41" rightOfWay="edgePriority">
        <request index="0" response="0" foes="0" cont="0"/>
    </junction>
    <junction id="12" type="dead_end" x="679.79" y="-521.67" incLanes="7676_0" intLanes="" shape="681.39,-520.96 678.19,-522.37" rightOfWay="edgePriority"/>
    <junction id="19" type="priority" x="750.29" y="-630.55" incLanes="7693_0" intLanes=":19_0_0" shape="752.45,-630.77 749.45,-632.56 748.93,-631.69 748.76,-631.38 748.60,-631.06 748.41,-630.67 748.15,-630.14 751.30,-628.63 751.69,-629.44 751.84,-629.72 751.99,-630.00 752.19,-630.33" rightOfWay="edgePriority">
        <request index="0" response="0" foes="0" cont="0"/>
    </junction>
    <junction id="20" type="dead_end" x="781.74" y="-692.81" incLanes="" intLanes="" shape="780.12,-693.46 783.37,-692.17" rightOfWay="edgePriority"/>
    <junction id="21" type="priority" x="711.07" y="-584.53" incLanes="7677_0" intLanes=":21_0_0" shape="713.31,-584.87 710.47,-586.71 708.79,-584.23 711.72,-582.32" rightOfWay="edgePriority">
        <request index="0" response="0" foes="0" cont="0"/>
    </junction>
    <junction id="22" type="dead_end" x="676.82" y="-523.60" incLanes="" intLanes="" shape="678.42,-522.90 675.22,-524.31" rightOfWay="edgePriority"/>
    <junction id="24" type="dead_end" x="660.86" y="-608.70" incLanes="8320_0" intLanes="" shape="660.64,-606.96 661.08,-610.43" rightOfWay="edgePriority"/>
    <junction id="26" type="dead_end" x="795.87" y="-599.09" incLanes="8351_0" intLanes="" shape="796.07,-600.82 795.66,-597.35" rightOfWay="edgePriority"/>
    <junction id="29" type="priority" x="743.67" y="-604.49" incLanes="7570_0 7570_1 7687_0 7630_0" intLanes=":29_0_0 :29_1_0 :29_2_0 :29_3_0 :29_4_0 :29_5_0" shape="755.11,-595.29 755.93,-605.76 753.04,-606.10 750.70,-606.61 748.90,-607.31 747.66,-608.19 746.96,-609.25 746.80,-610.49 739.81,-610.88 738.79,-607.91 737.76,-606.93 736.39,-606.30 734.67,-606.02 732.61,-606.08 731.86,-599.13">
        <request index="0" response="000000" foes="001000" cont="0"/>
        <request index="1" response="110000" foes="111000" cont="0"/>
        <request index="2" response="100000" foes="100000" cont="0"/>
        <request index="3" response="100011" foes="100011" cont="0"/>
        <request index="4" response="000000" foes="000010" cont="0"/>
        <request index="5" response="000000" foes="001110" cont="0"/>
    </junction>
    <junction id="30" type="priority" x="722.79" y="-601.65" incLanes="7629_0 7644_0 7644_1 7683_0" intLanes=":30_0_0 :30_1_0 :30_2_0 :30_3_0 :30_4_0 :30_5_0" shape="731.63,-599.15 732.33,-606.11 728.52,-606.61 725.74,-607.18 723.47,-607.79 721.20,-608.41 718.42,-609.01 714.62,-609.57 713.62,-599.11 715.78,-598.45 716.33,-597.87 716.52,-597.12 716.37,-596.20 715.86,-595.12 722.10,-592.06 723.60,-594.38 725.14,-596.24 726.71,-597.65 728.32,-598.61 729.96,-599.11">
        <request index="0" response="000000" foes="001000" cont="0"/>
        <request index="1" response="000000" foes="111000" cont="0"/>
        <request index="2" response="000000" foes="100000" cont="0"/>
        <request index="3" response="000011" foes="100011" cont="0"/>
        <request index="4" response="000010" foes="000010" cont="0"/>
        <request index="5" response="001110" foes="001110" cont="0"/>
    </junction>
    <junction id="31" type="priority" x="771.81" y="-597.48" incLanes="7948_0 7947_0" intLanes=":31_0_0 :31_1_0" shape="773.17,-593.92 773.98,-600.75 767.94,-601.30 767.39,-594.32">
        <request index="0" response="00" foes="00" cont="0"/>
        <request index="1" response="00" foes="00" cont="0"/>
    </junction>
    <junction id="32" type="dead_end" x="795.57" y="-595.60" incLanes="" intLanes="" shape="795.64,-597.35 795.50,-593.85 795.78,-597.34 795.37,-593.87"/>
    <junction id="33" type="priority" x="690.45" y="-608.98" incLanes="8393_0 8394_0" intLanes=":33_0_0 :33_1_0" shape="691.53,-605.32 692.38,-612.27 689.37,-612.61 688.36,-605.75">
        <request index="0" response="00" foes="00" cont="0"/>
        <request index="1" response="00" foes="00" cont="0"/>
    </junction>
    <junction id="34" type="dead_end" x="661.22" y="-612.18" incLanes="" intLanes="" shape="661.10,-610.43 661.33,-613.93 661.00,-610.44 661.43,-613.92"/>
    <junction id="9" type="priority" x="747.21" y="-632.21" incLanes="8386_0" intLanes=":9_0_0" shape="749.38,-632.44 746.37,-634.23 745.85,-633.35 745.68,-633.04 745.51,-632.72 745.32,-632.33 745.06,-631.80 748.21,-630.28 748.61,-631.10 748.76,-631.38 748.92,-631.66 749.11,-631.99" rightOfWay="edgePriority">
        <request index="0" response="0" foes="0" cont="0"/>
    </junction>

    <connection from="7570" to="7629" fromLane="0" toLane="0" contPos="-4.00" shape="755.23,-597.04 750.68,-597.57 743.64,-598.88 736.10,-600.33 732.05,-600.87" via=":29_0_0" dir="s" state="M"/>
    <connection from="7570" to="8386" fromLane="1" toLane="0" contPos="-4.00" shape="755.52,-600.53 754.18,-600.65 751.53,-601.04 748.90,-601.67 747.55,-602.14 746.23,-602.74 744.94,-603.51 743.76,-604.51 742.74,-605.75 741.99,-607.22 741.59,-608.83 741.54,-610.46" via=":29_1_0" dir="l" state="m"/>
    <connection from="7629" to="8287" fromLane="0" toLane="0" contPos="-4.00" shape="731.83,-600.89 729.41,-601.02 728.28,-600.98 727.16,-600.85 726.12,-600.63 725.17,-600.28 724.34,-599.82 723.67,-599.25 723.15,-598.55 722.74,-597.65" via=":30_0_0" dir="r" state="M"/>
    <connection from="7629" to="8320" fromLane="0" toLane="0" contPos="-4.00" shape="731.83,-600.89 728.22,-601.05 721.59,-600.70 717.50,-600.58 714.93,-600.73" via=":30_1_0" dir="s" state="M"/>
    <connection from="7630" to="8386" fromLane="0" toLane="0" contPos="-4.00" shape="732.38,-604.35 733.59,-604.26 734.76,-604.25 735.89,-604.33 736.98,-604.52 737.98,-604.83 738.87,-605.26 739.63,-605.84 740.26,-606.55 740.76,-607.38 741.14,-608.34 741.39,-609.39 741.54,-610.46" via=":29_4_0" dir="r" state="M"/>
    <connection from="7630" to="8351" fromLane="0" toLane="0" contPos="-4.00" shape="732.38,-604.35 736.97,-604.06 744.10,-604.11 751.73,-604.21 755.79,-604.02" via=":29_5_0" dir="s" state="M"/>
    <connection from="7644" to="7630" fromLane="0" toLane="0" contPos="-4.00" shape="715.66,-607.69 719.18,-607.15 729.12,-604.82 732.16,-604.37" via=":30_2_0" dir="s" state="M"/>
    <connection from="7644" to="8287" fromLane="1" toLane="0" contPos="-4.00" shape="715.27,-604.21 717.24,-603.94 719.14,-603.49 720.95,-602.74 722.42,-601.46 723.05,-599.65 722.74,-597.65" via=":30_3_0" dir="l" state="m"/>
    <connection from="7677" to="7683" fromLane="0" toLane="0" contPos="-4.00" via=":21_0_0" dir="s" state="M"/>
    <connection from="7683" to="8320" fromLane="0" toLane="0" contPos="-4.00" shape="719.44,-598.60 719.82,-599.01 719.33,-599.64 718.51,-600.01 717.46,-600.32 716.23,-600.56 714.93,-600.73" via=":30_4_0" dir="r" state="m"/>
    <connection from="7683" to="7630" fromLane="0" toLane="0" contPos="-4.00" shape="719.44,-598.60 720.06,-600.23 720.92,-601.46 722.01,-602.50 723.28,-603.30 724.68,-603.87 726.14,-604.24 727.63,-604.44 729.14,-604.52 732.16,-604.37" via=":30_5_0" dir="l" state="m"/>
    <connection from="7687" to="8351" fromLane="0" toLane="0" contPos="-4.00" shape="745.03,-610.21 745.07,-609.15 745.38,-608.14 745.95,-607.26 746.72,-606.53 747.60,-605.95 748.56,-605.49 749.55,-605.12 750.57,-604.82 752.64,-604.39 754.74,-604.11 755.79,-604.02" via=":29_2_0" dir="r" state="m"/>
    <connection from="7687" to="7629" fromLane="0" toLane="0" contPos="-4.00" shape="745.03,-610.21 744.83,-608.69 744.47,-607.20 743.93,-605.77 743.16,-604.44 742.17,-603.28 740.97,-602.33 739.60,-601.63 738.15,-601.15 736.64,-600.87 735.11,-600.75 733.58,-600.76 732.05,-600.87" via=":29_3_0" dir="l" state="m"/>
    <connection from="7693" to="7687" fromLane="0" toLane="0" contPos="-4.00" via=":19_0_0" dir="s" state="M"/>
    <connection from="7947" to="7570" fromLane="0" toLane="1" contPos="-4.00" via=":31_1_0" dir="s" state="M"/>
    <connection from="7948" to="7570" fromLane="0" toLane="0" contPos="-4.00" via=":31_0_0" dir="s" state="M"/>
    <connection from="8287" to="7676" fromLane="0" toLane="0" contPos="-4.00" via=":11_0_0" dir="s" state="M"/>
    <connection from="8386" to="7694" fromLane="0" toLane="0" contPos="-4.00" via=":9_0_0" dir="s" state="M"/>
    <connection from="8393" to="7644" fromLane="0" toLane="0" contPos="-4.00" via=":33_0_0" dir="s" state="M"/>
    <connection from="8394" to="7644" fromLane="0" toLane="1" contPos="-4.00" via=":33_1_0" dir="s" state="M"/>

    <connection from=":11_0" to="7676" fromLane="0" toLane="0" dir="s" state="M"/>
    <connection from=":19_0" to="7687" fromLane="0" toLane="0" dir="s" state="M"/>
    <connection from=":21_0" to="7683" fromLane="0" toLane="0" dir="s" state="M"/>
    <connection from=":29_0" to="7629" fromLane="0" toLane="0" dir="s" state="M"/>
    <connection from=":29_1" to="8386" fromLane="0" toLane="0" dir="l" state="M"/>
    <connection from=":29_2" to="8351" fromLane="0" toLane="0" dir="r" state="M"/>
    <connection from=":29_3" to="7629" fromLane="0" toLane="0" dir="l" state="M"/>