<routes>
	<vehicle depart="0.1" departLane="0" departPos="13.612229369229496" departSpeed="0.26398807" id="31" type="passenger">
		<route edges="7687 8351"/>
	</vehicle>
	<vehicle depart="0.1" departLane="0" departPos="2.5" departSpeed="1.4137273" id="310" type="passenger">
		<route edges="8386 7694"/>
	</vehicle>
	<vehicle depart="0.1" departLane="0" departPos="2.5" departSpeed="1.3272965" id="311" type="passenger">
		<route edges=":29_1 8386"/>
	</vehicle>
	<vehicle depart="0.1" departLane="0" departPos="6.4881262399082935" departSpeed="0.0018987895" id="331" type="passenger">
		<route edges="7570 7629"/>
	</vehicle>
	<vehicle depart="0.1" departLane="0" departPos="22.887492321806416" departSpeed="0.016758878" id="333" type="passenger">
		<route edges="7948 7570"/>
	</vehicle>
	<vehicle depart="0.1" departLane="0" departPos="9.659311807801156" departSpeed="10.409514" id="340" type="passenger">
		<route edges=":29_5 8351"/>
	</vehicle>
	<vehicle depart="0.1" departLane="0" departPos="4.689326395611566" departSpeed="8.2259125" id="341" type="passenger">
		<route edges=":30_3 8287 7676"/>
	</vehicle>
	<vehicle depart="0.1" departLane="1" departPos="11.609469170951837" departSpeed="2.0016997" id="344" type="passenger">
		<route edges="7570 8386"/>
	</vehicle>
	<vehicle depart="0.1" departLane="0" departPos="20.65377452852737" departSpeed="2.3782647" id="346" type="passenger">
		<route edges="7947 7570 8386"/>
	</vehicle>
	<vehicle depart="0.1" departLane="0" departPos="16.490131101339752" departSpeed="0.0" id="326" type="truck">
		<route edges="7570 7629"/>
	</vehicle>
</routes>
