<!-- generated on Tue Feb  9 22:11:41 2021 by Eclipse SUMO netconvert Version 1.8.0
<configuration xmlns:xsi="http://www.w3.org/2001/XMLSchema-instance" xsi:noNamespaceSchemaLocation="http://sumo.dlr.de/xsd/netconvertConfiguration.xsd">

    <input>
        <node-files value="./converted_scenarios/scenario-factory/DEU_Meckenheim-1_2_I-1-1/DEU_Meckenheim-1_2_I-1-1.nod.xml"/>
        <edge-files value="./converted_scenarios/scenario-factory/DEU_Meckenheim-1_2_I-1-1/DEU_Meckenheim-1_2_I-1-1.edg.xml"/>
        <connection-files value="./converted_scenarios/scenario-factory/DEU_Meckenheim-1_2_I-1-1/DEU_Meckenheim-1_2_I-1-1.con.xml"/>
        <tllogic-files value="./converted_scenarios/scenario-factory/DEU_Meckenheim-1_2_I-1-1/DEU_Meckenheim-1_2_I-1-1.tll.xml"/>
        <type-files value="/home/zen/commonroad-interactive-benchmarks/install/commonroad-map-tool/crmapconverter/sumo_map/templates/DEU.typ.xml"/>
    </input>

    <output>
        <output-file value="./converted_scenarios/scenario-factory/DEU_Meckenheim-1_2_I-1-1/DEU_Meckenheim-1_2_I-1-1.net.xml"/>
    </output>

    <processing>
        <geometry.remove.keep-edges.explicit value="true"/>
        <geometry.avoid-overlap value="true"/>
        <offset.disable-normalization value="true"/>
    </processing>

    <junctions>
        <no-turnarounds value="true"/>
        <junctions.internal-link-detail value="20"/>
    </junctions>

    <report>
        <aggregate-warnings value="5"/>
    </report>

    <random_number>
        <seed value="1234"/>
    </random_number>

</configuration>
--><net xmlns:xsi="http://www.w3.org/2001/XMLSchema-instance" version="1.6" junctionCornerDetail="5" junctionLinkDetail="20" limitTurnSpeed="5.50" xsi:noNamespaceSchemaLocation="http://sumo.dlr.de/xsd/net_file.xsd">

    <location netOffset="0.00,0.00" convBoundary="486.20,-433.90,867.00,-97.17" origBoundary="486.20,-433.90,867.00,-97.17" projParameter="!"/>

    <type id="highway.bridleway" priority="1" speed="2.78" allow="pedestrian" oneway="1" width="2.00"/>
    <type id="highway.bus_guideway" priority="1" speed="27.78" allow="bus" oneway="1"/>
    <type id="highway.cycleway" priority="1" speed="8.33" allow="bicycle" oneway="0" width="1.00"/>
    <type id="highway.footway" priority="1" speed="2.78" allow="pedestrian" oneway="1" width="2.00"/>
    <type id="highway.ford" priority="1" speed="2.78" allow="army" oneway="0"/>
    <type id="highway.living_street" priority="2" speed="2.78" disallow="tram rail_urban rail rail_electric rail_fast ship" oneway="0"/>
    <type id="highway.motorway" priority="14" speed="39.44" allow="private emergency authority army vip passenger hov taxi bus coach delivery truck trailer motorcycle evehicle custom1 custom2" oneway="1"/>
    <type id="highway.motorway_link" priority="9" speed="22.22" allow="private emergency authority army vip passenger hov taxi bus coach delivery truck trailer motorcycle evehicle custom1 custom2" oneway="1"/>
    <type id="highway.path" priority="1" speed="2.78" allow="pedestrian bicycle" oneway="0" width="2.00"/>
    <type id="highway.pedestrian" priority="1" speed="2.78" allow="pedestrian" oneway="1" width="2.00"/>
    <type id="highway.primary" priority="12" speed="27.78" disallow="pedestrian tram rail_urban rail rail_electric rail_fast ship" oneway="0"/>
    <type id="highway.primary_link" priority="7" speed="22.22" disallow="pedestrian tram rail_urban rail rail_electric rail_fast ship" oneway="0"/>
    <type id="highway.raceway" priority="15" speed="83.33" allow="vip" oneway="0"/>
    <type id="highway.residential" priority="3" speed="13.89" disallow="pedestrian tram rail_urban rail rail_electric rail_fast ship" oneway="0"/>
    <type id="highway.secondary" priority="11" speed="27.78" disallow="pedestrian tram rail_urban rail rail_electric rail_fast ship" oneway="0"/>
    <type id="highway.secondary_link" priority="6" speed="22.22" disallow="pedestrian tram rail_urban rail rail_electric rail_fast ship" oneway="0"/>
    <type id="highway.service" priority="1" speed="5.56" allow="pedestrian delivery bicycle" oneway="0"/>
    <type id="highway.stairs" priority="1" speed="1.39" allow="pedestrian" oneway="1" width="2.00"/>
    <type id="highway.step" priority="1" speed="1.39" allow="pedestrian" oneway="1" width="2.00"/>
    <type id="highway.steps" priority="1" speed="1.39" allow="pedestrian" oneway="1" width="2.00"/>
    <type id="highway.tertiary" priority="10" speed="22.22" disallow="pedestrian tram rail_urban rail rail_electric rail_fast ship" oneway="0"/>
    <type id="highway.tertiary_link" priority="5" speed="22.22" disallow="pedestrian tram rail_urban rail rail_electric rail_fast ship" oneway="0"/>
    <type id="highway.track" priority="1" speed="5.56" allow="pedestrian motorcycle moped bicycle" oneway="0"/>
    <type id="highway.trunk" priority="13" speed="27.78" disallow="pedestrian bicycle tram rail_urban rail rail_electric rail_fast ship" oneway="0"/>
    <type id="highway.trunk_link" priority="8" speed="22.22" disallow="pedestrian bicycle tram rail_urban rail rail_electric rail_fast ship" oneway="0"/>
    <type id="highway.unclassified" priority="4" speed="13.89" disallow="pedestrian tram rail_urban rail rail_electric rail_fast ship" oneway="0"/>
    <type id="highway.unsurfaced" priority="1" speed="8.33" disallow="tram rail_urban rail rail_electric rail_fast ship" oneway="0"/>
    <type id="railway.highspeed" priority="21" speed="69.44" allow="rail_fast" oneway="1"/>
    <type id="railway.light_rail" priority="19" speed="27.78" allow="rail_urban" oneway="1"/>
    <type id="railway.preserved" priority="16" speed="27.78" allow="rail" oneway="1"/>
    <type id="railway.rail" priority="20" speed="44.44" allow="rail" oneway="1"/>
    <type id="railway.subway" priority="18" speed="27.78" allow="rail_urban" oneway="1"/>
    <type id="railway.tram" priority="17" speed="13.89" allow="tram" oneway="1"/>

    <edge id=":85_0" function="internal">
        <lane id=":85_0_0" index="0" disallow="pedestrian tram rail_urban rail rail_electric rail_fast ship" speed="36.11" length="38.86" width="3.50" shape="659.66,-193.74 650.53,-176.58 641.40,-159.44"/>
    </edge>
    <edge id=":85_1" function="internal">
        <lane id=":85_1_0" index="0" disallow="pedestrian tram rail_urban rail rail_electric rail_fast ship" speed="11.92" length="33.19" width="3.50" shape="659.66,-193.74 659.04,-192.60 657.01,-189.39 655.39,-187.34 653.55,-185.45 651.48,-183.81 650.29,-183.07 649.07,-182.46 647.79,-181.95 646.46,-181.57 645.10,-181.32 643.73,-181.19 642.36,-181.19 641.01,-181.30 639.65,-181.53 637.12,-182.21 634.69,-183.18 632.39,-184.35"/>
    </edge>
    <edge id=":85_2" function="internal">
        <lane id=":85_2_0" index="0" disallow="pedestrian tram rail_urban rail rail_electric rail_fast ship" speed="10.86" length="27.53" width="3.50" shape="634.08,-187.42 636.06,-186.41 638.11,-185.59 640.23,-185.03 641.32,-184.86 642.42,-184.77 643.52,-184.78 644.61,-184.89 645.69,-185.10 646.75,-185.41 647.77,-185.82 648.75,-186.33 649.68,-186.91 651.39,-188.29 652.92,-189.87 654.28,-191.61 656.03,-194.40 656.56,-195.37"/>
    </edge>
    <edge id=":85_3" function="internal">
        <lane id=":85_3_0" index="0" disallow="pedestrian tram rail_urban rail rail_electric rail_fast ship" speed="36.11" length="38.88" width="3.50" shape="638.29,-161.05 647.43,-178.22 656.56,-195.37"/>
    </edge>
    <edge id=":86_0" function="internal">
        <lane id=":86_0_0" index="0" disallow="pedestrian tram rail_urban rail rail_electric rail_fast ship" speed="10.55" length="31.34" width="3.50" shape="785.27,-261.88 782.97,-263.03 780.63,-264.00 778.26,-264.75 775.85,-265.22 774.69,-265.31 773.53,-265.30 772.40,-265.18 771.30,-264.93 770.27,-264.55 769.29,-264.03 768.39,-263.39 767.56,-262.63 766.80,-261.77 766.11,-260.81 765.50,-259.79 764.97,-258.73 764.05,-256.40 763.34,-253.98 762.81,-251.50"/>
    </edge>
    <edge id=":86_1" function="internal">
        <lane id=":86_1_0" index="0" disallow="pedestrian tram rail_urban rail rail_electric rail_fast ship" speed="36.11" length="39.95" width="3.50" shape="785.27,-261.88 779.84,-264.81 750.29,-281.17"/>
    </edge>
    <edge id=":86_2" function="internal">
        <lane id=":86_2_0" index="0" disallow="pedestrian tram rail_urban rail rail_electric rail_fast ship" speed="36.11" length="39.87" width="3.50" shape="751.99,-284.23 781.50,-267.89 786.90,-264.98"/>
    </edge>
    <edge id=":86_3" function="internal">
        <lane id=":86_3_0" index="0" disallow="pedestrian tram rail_urban rail rail_electric rail_fast ship" speed="14.59" length="37.02" width="3.50" shape="752.00,-284.23 753.06,-283.60 755.03,-282.21 756.87,-280.60 758.51,-278.78 759.94,-276.79 761.12,-274.65 762.06,-272.41 762.78,-270.09 763.46,-266.60 763.76,-263.06 763.75,-259.55 763.48,-256.06 762.81,-251.50"/>
    </edge>
    <edge id=":86_4" function="internal">
        <lane id=":86_4_0" index="0" disallow="pedestrian tram rail_urban rail rail_electric rail_fast ship" speed="13.72" length="32.67" width="3.50" shape="759.37,-252.12 759.99,-256.29 760.24,-259.44 760.27,-262.61 760.03,-265.76 759.46,-268.87 758.87,-270.89 758.08,-272.85 757.09,-274.71 755.89,-276.44 754.49,-278.02 752.92,-279.42 751.19,-280.63 750.29,-281.17"/>
    </edge>
    <edge id=":86_5" function="internal">
        <lane id=":86_5_0" index="0" disallow="pedestrian tram rail_urban rail rail_electric rail_fast ship" speed="11.60" length="38.16" width="3.50" shape="759.37,-252.12 759.98,-254.99 760.80,-257.81 761.88,-260.54 762.54,-261.85 763.29,-263.11 764.14,-264.31 765.11,-265.41 766.19,-266.40 767.39,-267.25 768.68,-267.94 770.06,-268.45 771.49,-268.78 772.95,-268.95 774.42,-268.97 775.88,-268.85 778.76,-268.29 781.56,-267.41 784.27,-266.28 786.90,-264.98"/>
    </edge>
    <edge id=":87_0" function="internal">
        <lane id=":87_0_0" index="0" disallow="pedestrian tram rail_urban rail rail_electric rail_fast ship" speed="13.94" length="27.70" width="3.50" shape="674.44,-323.03 671.64,-324.53 668.76,-325.67 666.82,-326.22 664.83,-326.59 662.82,-326.76 660.80,-326.74 658.79,-326.53 656.81,-326.13 653.87,-325.19 651.05,-323.92 648.34,-322.35"/>
    </edge>
    <edge id=":87_1" function="internal">
        <lane id=":87_1_0" index="0" disallow="pedestrian tram rail_urban rail rail_electric rail_fast ship" speed="21.84" length="29.39" width="3.50" shape="674.44,-323.03 671.67,-324.90 669.18,-327.00 666.89,-329.30 664.10,-332.64 661.61,-336.19 658.84,-340.86 656.39,-345.70"/>
    </edge>
    <edge id=":87_2" function="internal">
        <lane id=":87_2_0" index="0" disallow="pedestrian tram rail_urban rail rail_electric rail_fast ship" speed="20.74" length="27.28" width="3.50" shape="659.55,-347.19 661.87,-342.61 664.47,-338.21 666.79,-334.89 669.36,-331.78 671.46,-329.65 673.73,-327.73 676.20,-326.05"/>
    </edge>
    <edge id=":87_3" function="internal">
        <lane id=":87_3_0" index="0" disallow="pedestrian tram rail_urban rail rail_electric rail_fast ship" speed="11.97" length="30.19" width="3.50" shape="659.55,-347.19 660.48,-344.82 661.05,-342.34 661.19,-341.00 661.20,-339.69 661.09,-338.38 660.86,-337.09 660.51,-335.83 660.05,-334.58 658.91,-332.33 657.48,-330.25 655.87,-328.38 654.10,-326.67 651.31,-324.39 648.34,-322.35"/>
    </edge>
    <edge id=":87_4" function="internal">
        <lane id=":87_4_0" index="0" disallow="pedestrian tram rail_urban rail rail_electric rail_fast ship" speed="10.90" length="25.09" width="3.50" shape="646.47,-325.31 649.06,-327.08 651.50,-329.05 653.02,-330.49 654.41,-332.05 655.63,-333.75 656.63,-335.59 657.01,-336.56 657.32,-337.56 657.53,-338.58 657.65,-339.62 657.66,-340.67 657.58,-341.71 657.14,-343.75 656.39,-345.70"/>
    </edge>
    <edge id=":87_5" function="internal">
        <lane id=":87_5_0" index="0" disallow="pedestrian tram rail_urban rail rail_electric rail_fast ship" speed="14.85" length="31.53" width="3.50" shape="646.47,-325.31 649.50,-327.06 652.69,-328.49 656.03,-329.55 658.31,-330.01 660.64,-330.26 662.97,-330.28 665.29,-330.07 667.59,-329.65 669.83,-329.01 673.08,-327.72 676.20,-326.05"/>
    </edge>
    <edge id=":88_0" function="internal">
        <lane id=":88_0_0" index="0" disallow="pedestrian tram rail_urban rail rail_electric rail_fast ship" speed="11.05" length="28.47" width="3.50" shape="731.24,-291.78 728.29,-293.22 726.23,-293.99 724.11,-294.55 721.94,-294.86 720.85,-294.89 719.75,-294.84 718.67,-294.70 717.60,-294.46 716.55,-294.13 715.54,-293.70 714.57,-293.19 713.65,-292.60 711.95,-291.21 710.46,-289.61 709.14,-287.85 707.99,-285.99 707.47,-285.06"/>
    </edge>
    <edge id=":88_1" function="internal">
        <lane id=":88_1_0" index="0" disallow="pedestrian tram rail_urban rail rail_electric rail_fast ship" speed="36.11" length="38.76" width="3.50" shape="731.24,-291.78 714.20,-301.01 697.16,-310.24"/>
    </edge>
    <edge id=":88_2" function="internal">
        <lane id=":88_2_0" index="0" disallow="pedestrian tram rail_urban rail rail_electric rail_fast ship" speed="36.11" length="38.74" width="3.50" shape="698.84,-313.31 715.87,-304.08 732.90,-294.86"/>
    </edge>
    <edge id=":88_3" function="internal">
        <lane id=":88_3_0" index="0" disallow="pedestrian tram rail_urban rail rail_electric rail_fast ship" speed="12.20" length="33.69" width="3.50" shape="698.84,-313.31 700.99,-312.05 703.07,-310.60 705.04,-308.95 706.83,-307.06 708.35,-304.95 709.02,-303.76 709.57,-302.54 710.02,-301.27 710.35,-299.97 710.58,-298.65 710.69,-297.32 710.70,-295.96 710.43,-293.39 709.85,-290.87 709.03,-288.44 707.47,-285.06"/>
    </edge>
    <edge id=":88_4" function="internal">
        <lane id=":88_4_0" index="0" disallow="pedestrian tram rail_urban rail rail_electric rail_fast ship" speed="11.19" length="28.19" width="3.50" shape="704.37,-286.66 705.72,-289.61 706.42,-291.66 706.90,-293.78 707.12,-295.93 707.12,-297.02 707.03,-298.10 706.85,-299.17 706.57,-300.22 706.21,-301.24 705.77,-302.23 705.24,-303.18 703.97,-304.94 702.48,-306.51 700.82,-307.91 699.03,-309.14 697.16,-310.24"/>
    </edge>
    <edge id=":88_5" function="internal">
        <lane id=":88_5_0" index="0" disallow="pedestrian tram rail_urban rail rail_electric rail_fast ship" speed="12.06" length="34.12" width="3.50" shape="704.37,-286.66 704.98,-287.78 706.32,-289.94 707.87,-292.01 709.66,-293.92 711.69,-295.59 712.85,-296.34 714.05,-296.98 715.30,-297.51 716.60,-297.93 717.93,-298.23 719.28,-298.41 720.62,-298.48 721.99,-298.43 724.58,-298.07 727.10,-297.41 729.52,-296.50 732.90,-294.86"/>
    </edge>
    <edge id=":89_0" function="internal">
        <lane id=":89_0_0" index="0" disallow="pedestrian tram rail_urban rail rail_electric rail_fast ship" speed="27.40" length="44.61" width="3.50" shape="608.90,-301.43 603.84,-298.93 602.10,-297.84 600.49,-296.57 599.02,-295.14 597.09,-292.75 595.45,-290.15 593.64,-286.47 591.74,-281.71 588.22,-272.08 586.58,-268.32 585.15,-265.59"/>
    </edge>
    <edge id=":89_1" function="internal">
        <lane id=":89_1_0" index="0" disallow="pedestrian tram rail_urban rail rail_electric rail_fast ship" speed="36.11" length="50.95" width="3.50" shape="608.90,-301.43 607.92,-300.97 606.45,-300.32 604.54,-299.49 602.24,-298.51 599.63,-297.40 596.75,-296.19 593.67,-294.90 590.44,-293.55 587.12,-292.17 583.78,-290.78 580.46,-289.41 577.22,-288.08 574.13,-286.81 571.24,-285.62 568.61,-284.55 566.30,-283.61 564.37,-282.83 562.87,-282.23 561.87,-281.84"/>
    </edge>
    <edge id=":89_2" function="internal">
        <lane id=":89_2_0" index="0" disallow="pedestrian tram rail_urban rail rail_electric rail_fast ship" speed="36.11" length="52.68" width="3.46" shape="558.72,-284.41 569.21,-288.26 582.61,-293.47 593.93,-298.25 607.37,-304.55"/>
    </edge>
    <edge id=":89_3" function="internal">
        <lane id=":89_3_0" index="0" disallow="pedestrian tram rail_urban rail rail_electric rail_fast ship" speed="12.20" length="57.18" width="3.50" shape="558.72,-284.41 568.30,-287.74 572.23,-288.88 576.22,-289.80 578.24,-290.16 580.27,-290.41 582.31,-290.54 584.36,-290.49 586.38,-290.18 588.31,-289.51 589.97,-288.33 591.12,-286.66 591.67,-284.70 591.74,-282.66 591.49,-280.62 591.03,-278.63 590.42,-276.67 588.90,-272.87 587.12,-269.19 585.15,-265.59"/>
    </edge>
    <edge id=":89_4" function="internal">
        <lane id=":89_4_0" index="0" disallow="pedestrian tram rail_urban rail rail_electric rail_fast ship" speed="11.92" length="28.22" width="3.50" shape="582.13,-267.35 557.02,-280.23"/>
    </edge>
    <edge id=":89_5" function="internal">
        <lane id=":89_5_0" index="0" disallow="pedestrian tram rail_urban rail rail_electric rail_fast ship" speed="27.91" length="46.00" width="3.46" shape="582.11,-267.31 583.60,-270.04 585.44,-273.69 589.82,-283.02 592.11,-287.70 594.12,-291.42 595.79,-294.16 597.64,-296.80 599.00,-298.50 600.46,-300.10 602.06,-301.66 607.37,-304.55"/>
    </edge>
    <edge id=":91_0" function="internal">
        <lane id=":91_0_0" index="0" disallow="pedestrian tram rail_urban rail rail_electric rail_fast ship" speed="10.68" length="26.37" width="3.50" shape="656.28,-345.93 655.23,-347.92 654.00,-349.76 652.53,-351.40 651.75,-352.08 650.91,-352.70 650.01,-353.24 649.07,-353.69 648.09,-354.04 647.07,-354.29 646.03,-354.45 644.96,-354.52 643.91,-354.51 641.68,-354.26 639.49,-353.75 637.34,-353.04 634.12,-351.65"/>
    </edge>
    <edge id=":91_1" function="internal">
        <lane id=":91_1_0" index="0" disallow="pedestrian tram rail_urban rail rail_electric rail_fast ship" speed="11.84" length="31.86" width="3.50" shape="656.28,-345.93 655.28,-348.33 654.53,-350.86 654.11,-353.47 654.05,-354.86 654.10,-356.22 654.28,-357.59 654.59,-358.94 655.03,-360.25 655.59,-361.51 656.25,-362.71 657.01,-363.83 657.87,-364.91 659.70,-366.78 661.73,-368.42 663.89,-369.85 667.21,-371.65"/>
    </edge>
    <edge id=":91_2" function="internal">
        <lane id=":91_2_0" index="0" disallow="pedestrian tram rail_urban rail rail_electric rail_fast ship" speed="10.77" length="26.34" width="3.50" shape="668.75,-368.51 665.86,-366.95 664.03,-365.74 662.31,-364.37 660.76,-362.81 660.07,-361.96 659.45,-361.06 658.90,-360.10 658.45,-359.11 658.09,-358.07 657.83,-357.00 657.67,-355.92 657.61,-354.82 657.65,-353.72 657.99,-351.55 658.61,-349.45 659.45,-347.42"/>
    </edge>
    <edge id=":91_3" function="internal">
        <lane id=":91_3_0" index="0" disallow="pedestrian tram rail_urban rail rail_electric rail_fast ship" speed="36.11" length="38.52" width="3.50" shape="668.75,-368.51 651.45,-360.09 634.12,-351.65"/>
    </edge>
    <edge id=":91_4" function="internal">
        <lane id=":91_4_0" index="0" disallow="pedestrian tram rail_urban rail rail_electric rail_fast ship" speed="36.11" length="38.48" width="3.50" shape="632.61,-354.81 649.92,-363.24 667.21,-371.65"/>
    </edge>
    <edge id=":91_5" function="internal">
        <lane id=":91_5_0" index="0" disallow="pedestrian tram rail_urban rail rail_electric rail_fast ship" speed="11.76" length="31.97" width="3.50" shape="632.61,-354.81 636.29,-356.39 638.82,-357.21 641.42,-357.80 644.07,-358.09 645.40,-358.09 646.73,-357.99 648.04,-357.77 649.33,-357.43 650.58,-356.96 651.77,-356.38 652.91,-355.68 653.97,-354.88 654.96,-353.99 656.72,-351.99 658.20,-349.78 659.45,-347.42"/>
    </edge>
    <edge id=":92_0" function="internal">
        <lane id=":92_0_0" index="0" disallow="pedestrian tram rail_urban rail rail_electric rail_fast ship" speed="12.11" length="33.12" width="3.50" shape="632.17,-184.48 629.97,-185.84 627.89,-187.41 625.97,-189.24 624.31,-191.31 623.57,-192.50 622.95,-193.72 622.44,-194.99 622.05,-196.31 621.77,-197.65 621.62,-199.01 621.57,-200.36 621.63,-201.73 622.01,-204.32 622.68,-206.85 623.57,-209.28 625.21,-212.73"/>
    </edge>
    <edge id=":92_1" function="internal">
        <lane id=":92_1_0" index="0" disallow="pedestrian tram rail_urban rail rail_electric rail_fast ship" speed="11.08" length="27.61" width="3.50" shape="628.30,-211.08 626.87,-208.08 626.10,-206.01 625.53,-203.88 625.20,-201.69 625.15,-200.59 625.18,-199.49 625.30,-198.39 625.51,-197.30 625.81,-196.24 626.22,-195.21 626.71,-194.22 627.28,-193.28 628.65,-191.55 630.25,-190.02 632.01,-188.69 633.88,-187.53"/>
    </edge>
    <edge id=":92_2" function="internal">
        <lane id=":92_2_0" index="0" disallow="pedestrian tram rail_urban rail rail_electric rail_fast ship" speed="12.14" length="34.40" width="3.50" shape="628.30,-211.08 626.24,-207.68 624.65,-205.56 622.85,-203.63 620.82,-201.93 619.72,-201.20 618.56,-200.57 617.35,-200.03 616.10,-199.60 614.81,-199.29 613.50,-199.10 612.18,-199.01 609.54,-199.16 606.95,-199.67 604.43,-200.47 601.99,-201.51 599.64,-202.72"/>
    </edge>
    <edge id=":92_3" function="internal">
        <lane id=":92_3_0" index="0" disallow="pedestrian tram rail_urban rail rail_electric rail_fast ship" speed="11.13" length="28.76" width="3.50" shape="601.33,-205.79 603.39,-204.72 605.49,-203.83 607.63,-203.15 609.79,-202.72 611.98,-202.60 613.01,-202.66 614.06,-202.82 615.09,-203.07 616.09,-203.41 617.05,-203.84 617.99,-204.35 618.86,-204.93 620.56,-206.35 622.07,-207.97 623.42,-209.77 625.21,-212.73"/>
    </edge>
    <edge id=":93_0" function="internal">
        <lane id=":93_0_0" index="0" disallow="pedestrian tram rail_urban rail rail_electric rail_fast ship" speed="26.22" length="35.80" width="3.50" shape="803.87,-403.25 801.06,-404.57 794.39,-407.43 788.58,-409.55 783.66,-411.00 779.69,-411.91 775.68,-412.52 772.69,-412.74 769.69,-412.71"/>
    </edge>
    <edge id=":93_1" function="internal">
        <lane id=":93_1_0" index="0" disallow="pedestrian tram rail_urban rail rail_electric rail_fast ship" speed="13.33" length="30.48" width="3.50" shape="793.47,-427.96 792.73,-425.59 791.68,-423.32 790.29,-421.22 788.61,-419.35 786.69,-417.74 784.60,-416.42 782.40,-415.35 780.12,-414.51 776.68,-413.60 773.19,-413.02 769.69,-412.71"/>
    </edge>
    <edge id=":93_2" function="internal">
        <lane id=":93_2_0" index="0" disallow="pedestrian tram rail_urban rail rail_electric rail_fast ship" speed="12.29" length="26.12" width="3.40" shape="769.38,-416.20 772.61,-416.48 775.69,-416.97 778.71,-417.74 780.67,-418.44 782.56,-419.31 784.34,-420.39 785.96,-421.69 787.38,-423.21 788.55,-424.93 789.45,-426.81 790.07,-428.79"/>
    </edge>
    <edge id=":93_3" function="internal">
        <lane id=":93_3_0" index="0" disallow="pedestrian tram rail_urban rail rail_electric rail_fast ship" speed="26.93" length="37.72" width="3.50" shape="769.38,-416.20 772.72,-416.24 775.93,-416.01 780.17,-415.38 784.36,-414.43 789.51,-412.92 795.57,-410.73 802.47,-407.78 805.42,-406.39"/>
    </edge>
    <edge id=":94_0" function="internal">
        <lane id=":94_0_0" index="0" disallow="pedestrian tram rail_urban rail rail_electric rail_fast ship" speed="36.11" length="38.77" width="3.50" shape="589.86,-330.46 565.04,-319.08 554.73,-314.07"/>
    </edge>
    <edge id=":94_1" function="internal">
        <lane id=":94_1_0" index="0" disallow="pedestrian tram rail_urban rail rail_electric rail_fast ship" speed="13.32" length="33.63" width="3.50" shape="589.86,-330.46 587.53,-329.49 585.14,-328.80 582.68,-328.41 580.19,-328.36 577.72,-328.66 575.32,-329.29 573.01,-330.22 570.82,-331.41 568.76,-332.81 565.90,-335.20 563.28,-337.86 560.87,-340.71"/>
    </edge>
    <edge id=":94_2" function="internal">
        <lane id=":94_2_0" index="0" disallow="pedestrian tram rail_urban rail rail_electric rail_fast ship" speed="12.38" length="28.94" width="3.50" shape="563.58,-342.92 565.78,-340.32 568.10,-337.94 570.62,-335.81 572.38,-334.59 574.24,-333.55 576.18,-332.74 578.18,-332.18 580.23,-331.90 582.29,-331.91 584.34,-332.22 586.36,-332.79 588.35,-333.62"/>
    </edge>
    <edge id=":94_3" function="internal">
        <lane id=":94_3_0" index="0" disallow="pedestrian tram rail_urban rail rail_electric rail_fast ship" speed="11.64" length="36.26" width="3.50" shape="563.59,-342.93 565.20,-340.69 566.59,-338.34 567.69,-335.81 568.12,-334.43 568.42,-333.02 568.58,-331.57 568.58,-330.11 568.42,-328.64 568.10,-327.21 567.61,-325.82 566.99,-324.51 566.25,-323.28 565.42,-322.13 564.49,-321.05 562.54,-319.15 560.41,-317.48 558.17,-315.99 554.73,-314.07"/>
    </edge>
    <edge id=":94_4" function="internal">
        <lane id=":94_4_0" index="0" disallow="pedestrian tram rail_urban rail rail_electric rail_fast ship" speed="10.60" length="29.85" width="3.50" shape="553.14,-317.18 556.14,-318.86 558.06,-320.12 559.87,-321.54 561.54,-323.12 562.29,-323.99 562.98,-324.91 563.58,-325.88 564.09,-326.91 564.49,-327.99 564.77,-329.10 564.92,-330.24 564.94,-331.39 564.83,-332.53 564.60,-333.66 564.28,-334.76 563.38,-336.87 562.22,-338.85 560.87,-340.71"/>
    </edge>
    <edge id=":94_5" function="internal">
        <lane id=":94_5_0" index="0" disallow="pedestrian tram rail_urban rail rail_electric rail_fast ship" speed="36.11" length="38.86" width="3.50" shape="553.14,-317.18 563.52,-322.23 588.35,-333.62"/>
    </edge>
    <edge id=":95_0" function="internal">
        <lane id=":95_0_0" index="0" disallow="pedestrian tram rail_urban rail rail_electric rail_fast ship" speed="36.11" length="31.28" width="3.49" shape="583.91,-263.45 570.94,-242.00 567.72,-236.68"/>
    </edge>
    <edge id=":95_1" function="internal">
        <lane id=":95_1_0" index="0" disallow="pedestrian tram rail_urban rail rail_electric rail_fast ship" speed="12.07" length="33.19" width="3.50" shape="583.91,-263.45 581.68,-260.08 580.00,-258.03 578.12,-256.17 576.02,-254.56 574.88,-253.87 573.70,-253.28 572.47,-252.79 571.20,-252.41 569.90,-252.15 568.58,-252.00 567.25,-251.97 564.62,-252.21 562.04,-252.81 559.54,-253.70 557.14,-254.82 555.97,-255.45"/>
    </edge>
    <edge id=":95_2" function="internal">
        <lane id=":95_2_0" index="0" disallow="pedestrian tram rail_urban rail rail_electric rail_fast ship" speed="11.04" length="27.65" width="3.50" shape="557.69,-258.50 558.68,-257.96 560.76,-256.99 562.87,-256.24 565.02,-255.74 567.21,-255.54 568.25,-255.57 569.31,-255.69 570.34,-255.91 571.35,-256.21 572.34,-256.60 573.29,-257.08 574.19,-257.63 575.95,-258.98 577.53,-260.55 578.95,-262.29 580.88,-265.20"/>
    </edge>
    <edge id=":95_3" function="internal">
        <lane id=":95_3_0" index="0" disallow="pedestrian tram rail_urban rail rail_electric rail_fast ship" speed="36.11" length="31.24" width="3.50" shape="564.71,-238.47 567.95,-243.81 580.88,-265.20"/>
    </edge>

    <edge id="1028" from="94" to="53" priority="3" type="highway.residential" spreadType="center" length="21.10" shape="567.03,-328.76 547.62,-357.13">
        <lane id="1028_0" index="0" disallow="pedestrian tram rail_urban rail rail_electric rail_fast ship" speed="36.11" length="21.10" width="3.50" customShape="1" shape="560.87,-340.71 556.00,-346.70 547.62,-357.13"/>
    </edge>
    <edge id="1029" from="80" to="94" priority="3" type="highway.residential" spreadType="center" length="21.09" shape="550.37,-359.29 569.91,-330.73">
        <lane id="1029_0" index="0" disallow="pedestrian tram rail_urban rail rail_electric rail_fast ship" speed="36.11" length="21.09" width="3.50" customShape="1" shape="550.37,-359.29 558.73,-348.88 563.62,-342.88"/>
    </edge>
    <edge id="133" from="86" to="38" priority="3" type="highway.residential" spreadType="center" length="70.00" shape="767.78,-265.45 740.58,-185.27">
        <lane id="133_0" index="0" disallow="pedestrian tram rail_urban rail rail_electric rail_fast ship" speed="36.11" length="70.00" width="3.50" customShape="1" shape="762.81,-251.50 762.72,-251.00 761.01,-242.09 759.63,-236.72 757.63,-230.48 753.73,-220.11 745.71,-198.35 740.95,-186.15 740.58,-185.27"/>
    </edge>
    <edge id="134" from="48" to="86" priority="3" type="highway.residential" spreadType="center" length="70.00" shape="737.06,-185.91 764.47,-266.57">
        <lane id="134_0" index="0" disallow="pedestrian tram rail_urban rail rail_electric rail_fast ship" speed="36.11" length="70.00" width="3.50" customShape="1" shape="737.06,-185.91 737.61,-187.22 742.36,-199.37 750.35,-221.08 754.24,-231.41 756.23,-237.54 757.58,-242.80 759.28,-251.63 759.37,-252.12"/>
    </edge>
    <edge id="1421" from="20" to="92" priority="3" type="highway.residential" spreadType="center" length="70.00" shape="661.35,-272.78 621.60,-199.85">
        <lane id="1421_0" index="0" disallow="pedestrian tram rail_urban rail rail_electric rail_fast ship" speed="36.11" length="70.00" width="3.50" customShape="1" shape="661.35,-272.78 648.68,-249.14 628.30,-211.07"/>
    </edge>
    <edge id="1422" from="92" to="25" priority="3" type="highway.residential" spreadType="center" length="70.00" shape="618.53,-201.53 658.26,-274.44">
        <lane id="1422_0" index="0" disallow="pedestrian tram rail_urban rail rail_electric rail_fast ship" speed="36.11" length="70.00" width="3.50" customShape="1" shape="625.21,-212.73 645.60,-250.79 658.26,-274.44"/>
    </edge>
    <edge id="1460" from="78" to="93" priority="3" type="highway.residential" spreadType="center" length="5.25" shape="794.64,-433.07 790.31,-415.31">
        <lane id="1460_0" index="0" disallow="pedestrian tram rail_urban rail rail_electric rail_fast ship" speed="36.11" length="5.25" width="3.48" customShape="1" shape="794.64,-433.07 793.53,-428.19 793.50,-428.09 793.47,-427.95"/>
    </edge>
    <edge id="1461" from="93" to="72" priority="3" type="highway.residential" spreadType="center" length="5.26" shape="786.99,-416.13 791.30,-433.90">
        <lane id="1461_0" index="0" disallow="pedestrian tram rail_urban rail rail_electric rail_fast ship" speed="36.11" length="5.26" width="3.40" customShape="1" shape="790.07,-428.79 790.10,-428.91 790.13,-429.04 791.30,-433.90"/>
    </edge>
    <edge id="1481" from="89" to="87" priority="3" type="highway.residential" spreadType="center" length="44.37" shape="586.55,-285.54 659.28,-333.05">