<routes>
	<vehicle depart="0.1" departLane="0" departPos="13.773147735996389" departSpeed="0.0058296834" id="358" type="bus">
		<route edges="58238 58394"/>
	</vehicle>
	<vehicle depart="0.1" departLane="0" departPos="18.709511398666365" departSpeed="5.9087533" id="313" type="passenger">
		<route edges=":69_4 58294 58391"/>
	</vehicle>
	<vehicle depart="0.1" departLane="0" departPos="36.28926323944623" departSpeed="0.0043297475" id="316" type="passenger">
		<route edges="58238 58394"/>
	</vehicle>
	<vehicle depart="0.1" departLane="0" departPos="28.784943981104487" departSpeed="0.0022766438" id="321" type="passenger">
		<route edges="58238 58394"/>
	</vehicle>
	<vehicle depart="0.1" departLane="0" departPos="2.5" departSpeed="2.1936568" id="323" type="passenger">
		<route edges="58293 58290"/>
	</vehicle>
	<vehicle depart="0.1" departLane="0" departPos="21.280783680336576" departSpeed="0.0023610918" id="341" type="passenger">
		<route edges="58238 58394"/>
	</vehicle>
	<vehicle depart="0.1" departLane="0" departPos="33.2148962711233" departSpeed="3.674348" id="342" type="passenger">
		<route edges="58391 58397"/>
	</vehicle>
	<vehicle depart="0.1" departLane="0" departPos="67.70944648068298" departSpeed="7.2723492" id="350" type="passenger">
		<route edges="58330 58391 58397"/>
	</vehicle>
	<vehicle depart="0.1" departLane="0" departPos="23.88948489906302" departSpeed="4.6621842" id="347" type="motorcycle">
		<route edges=":64_1 58391 58397"/>
	</vehicle>
</routes>
