<routes>
	<vehicle depart="0.1" departLane="0" departPos="8.601940638795588" departSpeed="0.6552624" id="320" type="passenger">
		<route edges=":50_0 77194"/>
	</vehicle>
	<vehicle depart="0.1" departLane="0" departPos="48.06149304068343" departSpeed="0.49284768" id="334" type="passenger">
		<route edges="77537 77194"/>
	</vehicle>
	<vehicle depart="0.1" departLane="0" departPos="19.688314662877225" departSpeed="0.95391922" id="341" type="passenger">
		<route edges="77537 77194"/>
	</vehicle>
	<vehicle depart="0.1" departLane="0" departPos="24.988979073314084" departSpeed="2.1891542" id="352" type="passenger">
		<route edges="77537 77194"/>
	</vehicle>
	<vehicle depart="0.1" departLane="0" departPos="13.668878918596318" departSpeed="7.7682144" id="353" type="passenger">
		<route edges=":50_3 77194 77191"/>
	</vehicle>
	<vehicle depart="0.1" departLane="0" departPos="2.5" departSpeed="0.97265556" id="357" type="passenger">
		<route edges=":50_3 77194"/>
	</vehicle>
	<vehicle depart="0.1" departLane="0" departPos="11.017983066369972" departSpeed="2.5552868" id="358" type="passenger">
		<route edges="77537 77194"/>
	</vehicle>
	<vehicle depart="0.1" departLane="0" departPos="60.73010186040411" departSpeed="0.84539424" id="359" type="passenger">
		<route edges="77197 77194"/>
	</vehicle>
	<vehicle depart="0.1" departLane="0" departPos="51.60794677502556" departSpeed="1.4950316" id="363" type="passenger">
		<route edges="77197 77194"/>
	</vehicle>
</routes>
