<!-- generated on Tue Feb  9 22:07:51 2021 by Eclipse SUMO netconvert Version 1.8.0
<configuration xmlns:xsi="http://www.w3.org/2001/XMLSchema-instance" xsi:noNamespaceSchemaLocation="http://sumo.dlr.de/xsd/netconvertConfiguration.xsd">

    <input>
        <node-files value="./converted_scenarios/scenario-factory/HRV_Pula-17_4_I-1-1/HRV_Pula-17_4_I-1-1.nod.xml"/>
        <edge-files value="./converted_scenarios/scenario-factory/HRV_Pula-17_4_I-1-1/HRV_Pula-17_4_I-1-1.edg.xml"/>
        <connection-files value="./converted_scenarios/scenario-factory/HRV_Pula-17_4_I-1-1/HRV_Pula-17_4_I-1-1.con.xml"/>
        <tllogic-files value="./converted_scenarios/scenario-factory/HRV_Pula-17_4_I-1-1/HRV_Pula-17_4_I-1-1.tll.xml"/>
        <type-files value="/home/zen/commonroad-interactive-benchmarks/install/commonroad-map-tool/crmapconverter/sumo_map/templates/DEU.typ.xml"/>
    </input>

    <output>
        <output-file value="./converted_scenarios/scenario-factory/HRV_Pula-17_4_I-1-1/HRV_Pula-17_4_I-1-1.net.xml"/>
    </output>

    <processing>
        <geometry.remove.keep-edges.explicit value="true"/>
        <geometry.avoid-overlap value="true"/>
        <offset.disable-normalization value="true"/>
    </processing>

    <junctions>
        <no-turnarounds value="true"/>
        <junctions.internal-link-detail value="20"/>
    </junctions>

    <report>
        <aggregate-warnings value="5"/>
    </report>

    <random_number>
        <seed value="1234"/>
    </random_number>

</configuration>
--><net xmlns:xsi="http://www.w3.org/2001/XMLSchema-instance" version="1.6" junctionCornerDetail="5" junctionLinkDetail="20" limitTurnSpeed="5.50" xsi:noNamespaceSchemaLocation="http://sumo.dlr.de/xsd/net_file.xsd">

    <location netOffset="0.00,0.00" convBoundary="-665.53,-1024.79,-429.75,-845.65" origBoundary="-665.53,-1024.79,-429.75,-845.65" projParameter="!"/>

    <type id="highway.bridleway" priority="1" speed="2.78" allow="pedestrian" oneway="1" width="2.00"/>
    <type id="highway.bus_guideway" priority="1" speed="27.78" allow="bus" oneway="1"/>
    <type id="highway.cycleway" priority="1" speed="8.33" allow="bicycle" oneway="0" width="1.00"/>
    <type id="highway.footway" priority="1" speed="2.78" allow="pedestrian" oneway="1" width="2.00"/>
    <type id="highway.ford" priority="1" speed="2.78" allow="army" oneway="0"/>
    <type id="highway.living_street" priority="2" speed="2.78" disallow="tram rail_urban rail rail_electric rail_fast ship" oneway="0"/>
    <type id="highway.motorway" priority="14" speed="39.44" allow="private emergency authority army vip passenger hov taxi bus coach delivery truck trailer motorcycle evehicle custom1 custom2" oneway="1"/>
    <type id="highway.motorway_link" priority="9" speed="22.22" allow="private emergency authority army vip passenger hov taxi bus coach delivery truck trailer motorcycle evehicle custom1 custom2" oneway="1"/>
    <type id="highway.path" priority="1" speed="2.78" allow="pedestrian bicycle" oneway="0" width="2.00"/>
    <type id="highway.pedestrian" priority="1" speed="2.78" allow="pedestrian" oneway="1" width="2.00"/>
    <type id="highway.primary" priority="12" speed="27.78" disallow="pedestrian tram rail_urban rail rail_electric rail_fast ship" oneway="0"/>
    <type id="highway.primary_link" priority="7" speed="22.22" disallow="pedestrian tram rail_urban rail rail_electric rail_fast ship" oneway="0"/>
    <type id="highway.raceway" priority="15" speed="83.33" allow="vip" oneway="0"/>
    <type id="highway.residential" priority="3" speed="13.89" disallow="pedestrian tram rail_urban rail rail_electric rail_fast ship" oneway="0"/>
    <type id="highway.secondary" priority="11" speed="27.78" disallow="pedestrian tram rail_urban rail rail_electric rail_fast ship" oneway="0"/>
    <type id="highway.secondary_link" priority="6" speed="22.22" disallow="pedestrian tram rail_urban rail rail_electric rail_fast ship" oneway="0"/>
    <type id="highway.service" priority="1" speed="5.56" allow="pedestrian delivery bicycle" oneway="0"/>
    <type id="highway.stairs" priority="1" speed="1.39" allow="pedestrian" oneway="1" width="2.00"/>
    <type id="highway.step" priority="1" speed="1.39" allow="pedestrian" oneway="1" width="2.00"/>
    <type id="highway.steps" priority="1" speed="1.39" allow="pedestrian" oneway="1" width="2.00"/>
    <type id="highway.tertiary" priority="10" speed="22.22" disallow="pedestrian tram rail_urban rail rail_electric rail_fast ship" oneway="0"/>
    <type id="highway.tertiary_link" priority="5" speed="22.22" disallow="pedestrian tram rail_urban rail rail_electric rail_fast ship" oneway="0"/>
    <type id="highway.track" priority="1" speed="5.56" allow="pedestrian motorcycle moped bicycle" oneway="0"/>
    <type id="highway.trunk" priority="13" speed="27.78" disallow="pedestrian bicycle tram rail_urban rail rail_electric rail_fast ship" oneway="0"/>
    <type id="highway.trunk_link" priority="8" speed="22.22" disallow="pedestrian bicycle tram rail_urban rail rail_electric rail_fast ship" oneway="0"/>
    <type id="highway.unclassified" priority="4" speed="13.89" disallow="pedestrian tram rail_urban rail rail_electric rail_fast ship" oneway="0"/>
    <type id="highway.unsurfaced" priority="1" speed="8.33" disallow="tram rail_urban rail rail_electric rail_fast ship" oneway="0"/>
    <type id="railway.highspeed" priority="21" speed="69.44" allow="rail_fast" oneway="1"/>
    <type id="railway.light_rail" priority="19" speed="27.78" allow="rail_urban" oneway="1"/>
    <type id="railway.preserved" priority="16" speed="27.78" allow="rail" oneway="1"/>
    <type id="railway.rail" priority="20" speed="44.44" allow="rail" oneway="1"/>
    <type id="railway.subway" priority="18" speed="27.78" allow="rail_urban" oneway="1"/>
    <type id="railway.tram" priority="17" speed="13.89" allow="tram" oneway="1"/>

    <edge id=":29_0" function="internal">
        <lane id=":29_0_0" index="0" disallow="pedestrian tram rail_urban rail rail_electric rail_fast ship" speed="36.11" length="62.88" width="3.50" shape="-513.64,-847.85 -514.65,-848.34 -517.46,-849.91 -521.01,-852.29 -524.35,-854.91 -528.31,-858.39 -532.80,-862.80 -537.77,-868.17 -543.83,-875.31 -550.26,-883.49 -557.00,-892.65"/>
    </edge>
    <edge id=":29_1" function="internal">
        <lane id=":29_1_0" index="0" disallow="pedestrian tram rail_urban rail rail_electric rail_fast ship" speed="27.72" length="65.77" width="3.50" shape="-498.17,-866.25 -503.30,-867.30 -512.48,-869.45 -520.57,-871.70 -527.57,-873.99 -533.48,-876.26 -538.32,-878.43 -543.03,-880.89 -546.69,-883.13 -550.17,-885.65 -552.65,-887.77 -554.96,-890.11 -557.00,-892.65"/>
    </edge>
    <edge id=":29_2" function="internal">
        <lane id=":29_2_0" index="0" disallow="pedestrian tram rail_urban rail rail_electric rail_fast ship" speed="27.01" length="63.19" width="3.50" shape="-554.18,-894.72 -552.26,-892.34 -550.11,-890.18 -547.78,-888.20 -544.46,-885.83 -540.97,-883.72 -536.44,-881.39 -531.78,-879.33 -526.06,-877.16 -519.28,-874.96 -511.42,-872.79 -502.48,-870.70 -497.48,-869.68"/>
    </edge>
    <edge id=":29_3" function="internal">
        <lane id=":29_3_0" index="0" disallow="pedestrian tram rail_urban rail rail_electric rail_fast ship" speed="36.11" length="61.11" width="3.50" shape="-554.18,-894.72 -547.54,-885.70 -541.25,-877.68 -535.33,-870.68 -530.50,-865.44 -526.15,-861.15 -522.34,-857.77 -519.13,-855.25 -515.76,-852.97 -513.09,-851.48 -512.18,-851.03"/>
    </edge>
    <edge id=":30_0" function="internal">
        <lane id=":30_0_0" index="0" disallow="pedestrian tram rail_urban rail rail_electric rail_fast ship" speed="10.96" length="35.29" width="3.50" shape="-557.17,-892.88 -559.38,-895.80 -561.77,-898.56 -563.50,-900.27 -565.36,-901.84 -567.37,-903.20 -568.44,-903.78 -569.56,-904.27 -570.72,-904.64 -571.91,-904.88 -573.12,-904.97 -574.33,-904.90 -575.53,-904.67 -576.68,-904.28 -577.78,-903.76 -578.81,-903.12 -579.79,-902.40 -581.55,-900.72 -583.11,-898.86 -584.51,-896.86"/>
    </edge>
    <edge id=":30_1" function="internal">
        <lane id=":30_1_0" index="0" disallow="pedestrian tram rail_urban rail rail_electric rail_fast ship" speed="36.11" length="69.13" width="3.50" shape="-557.17,-892.88 -558.96,-895.34 -563.35,-900.93 -567.97,-906.32 -573.54,-912.24 -579.37,-917.90 -585.43,-923.31 -592.52,-929.11 -599.83,-934.62 -607.37,-939.87"/>
    </edge>
    <edge id=":30_2" function="internal">
        <lane id=":30_2_0" index="0" disallow="pedestrian tram rail_urban rail rail_electric rail_fast ship" speed="36.11" length="70.46" width="3.50" shape="-557.17,-892.88 -560.66,-898.04 -564.41,-904.24 -568.34,-911.53 -571.95,-918.99 -575.68,-927.54 -579.46,-937.18 -583.25,-947.93 -586.10,-956.82"/>
    </edge>
    <edge id=":30_3" function="internal">
        <lane id=":30_3_0" index="0" disallow="pedestrian tram rail_urban rail rail_electric rail_fast ship" speed="17.91" length="50.17" width="3.50" shape="-540.01,-912.94 -545.21,-913.45 -549.39,-913.61 -553.57,-913.51 -557.73,-913.12 -560.82,-912.61 -563.88,-911.89 -566.86,-910.94 -569.77,-909.76 -572.56,-908.33 -575.20,-906.65 -577.68,-904.73 -579.97,-902.59 -582.05,-900.25 -583.93,-897.73 -584.51,-896.86"/>
    </edge>
    <edge id=":30_4" function="internal">
        <lane id=":30_4_0" index="0" disallow="pedestrian tram rail_urban rail rail_electric rail_fast ship" speed="36.11" length="73.20" width="3.50" shape="-540.01,-912.94 -546.21,-913.89 -552.36,-915.13 -559.45,-916.95 -566.43,-919.14 -573.29,-921.68 -580.03,-924.53 -586.63,-927.69 -594.01,-931.63 -601.20,-935.89 -607.37,-939.87"/>
    </edge>
    <edge id=":30_5" function="internal">
        <lane id=":30_5_0" index="0" disallow="pedestrian tram rail_urban rail rail_electric rail_fast ship" speed="20.78" length="67.72" width="3.50" shape="-540.01,-912.94 -544.46,-913.68 -548.84,-914.77 -552.06,-915.84 -555.19,-917.12 -558.23,-918.61 -561.15,-920.33 -563.94,-922.24 -566.58,-924.36 -569.07,-926.65 -572.15,-929.95 -574.94,-933.50 -577.45,-937.24 -579.70,-941.16 -582.17,-946.23 -584.29,-951.46 -586.10,-956.82"/>
    </edge>
    <edge id=":30_6" function="internal">
        <lane id=":30_6_0" index="0" disallow="pedestrian tram rail_urban rail rail_electric rail_fast ship" speed="20.16" length="63.72" width="3.50" shape="-582.76,-957.85 -581.03,-952.74 -579.02,-947.77 -576.69,-942.95 -574.57,-939.26 -572.21,-935.72 -569.60,-932.38 -566.72,-929.27 -564.40,-927.13 -561.94,-925.15 -559.34,-923.35 -556.62,-921.74 -553.79,-920.34 -550.87,-919.14 -547.87,-918.14 -543.75,-917.11 -539.55,-916.41"/>
    </edge>
    <edge id=":30_7" function="internal">
        <lane id=":30_7_0" index="0" disallow="pedestrian tram rail_urban rail rail_electric rail_fast ship" speed="36.11" length="69.32" width="3.50" shape="-582.76,-957.85 -579.94,-949.07 -576.20,-938.47 -572.47,-928.96 -568.81,-920.54 -565.27,-913.20 -561.41,-906.04 -557.73,-899.96 -554.33,-894.93"/>
    </edge>
    <edge id=":30_8" function="internal">
        <lane id=":30_8_0" index="0" disallow="pedestrian tram rail_urban rail rail_electric rail_fast ship" speed="23.91" length="62.96" width="3.50" shape="-582.76,-957.85 -580.68,-950.53 -579.21,-944.18 -578.07,-937.77 -577.43,-932.39 -577.11,-926.97 -577.17,-921.54 -577.52,-917.22 -578.19,-912.93 -579.20,-908.71 -580.20,-905.61 -581.42,-902.59 -582.85,-899.67 -584.51,-896.86"/>
    </edge>
    <edge id=":30_9" function="internal">
        <lane id=":30_9_0" index="0" disallow="pedestrian tram rail_urban rail rail_electric rail_fast ship" speed="36.11" length="71.59" width="3.50" shape="-605.42,-942.77 -599.38,-938.87 -592.33,-934.70 -585.10,-930.84 -578.64,-927.75 -572.06,-924.95 -565.35,-922.47 -558.53,-920.33 -551.61,-918.55 -545.62,-917.34 -539.55,-916.41"/>
    </edge>
    <edge id=":30_10" function="internal">
        <lane id=":30_10_0" index="0" disallow="pedestrian tram rail_urban rail rail_electric rail_fast ship" speed="36.11" length="70.37" width="3.50" shape="-605.42,-942.78 -597.76,-937.44 -590.33,-931.84 -583.13,-925.94 -576.95,-920.43 -571.01,-914.66 -565.34,-908.63 -560.63,-903.13 -556.16,-897.43 -554.33,-894.93"/>
    </edge>
    <edge id=":30_11" function="internal">
        <lane id=":30_11_0" index="0" disallow="pedestrian tram rail_urban rail rail_electric rail_fast ship" speed="15.69" length="56.80" width="3.50" shape="-605.42,-942.78 -600.47,-939.28 -595.73,-935.53 -592.15,-932.29 -588.80,-928.81 -586.50,-926.00 -584.45,-923.01 -582.72,-919.83 -581.78,-917.60 -581.06,-915.30 -580.58,-912.93 -580.37,-910.53 -580.43,-908.11 -580.77,-905.72 -581.38,-903.38 -582.22,-901.12 -583.28,-898.94 -584.51,-896.86"/>
    </edge>
    <edge id=":30_12" function="internal">
        <lane id=":30_12_0" index="0" disallow="pedestrian tram rail_urban rail rail_electric rail_fast ship" speed="14.93" length="51.32" width="3.50" shape="-587.45,-898.75 -586.36,-900.61 -585.44,-902.54 -584.71,-904.53 -584.21,-906.57 -583.95,-908.65 -583.94,-910.74 -584.17,-912.82 -584.64,-914.88 -585.32,-916.90 -586.19,-918.85 -587.80,-921.70 -589.70,-924.38 -591.83,-926.92 -594.95,-930.12 -598.29,-933.11 -602.73,-936.60 -607.37,-939.87"/>
    </edge>
    <edge id=":30_13" function="internal">
        <lane id=":30_13_0" index="0" disallow="pedestrian tram rail_urban rail rail_electric rail_fast ship" speed="23.33" length="59.92" width="3.50" shape="-587.45,-898.75 -585.91,-901.37 -584.57,-904.11 -583.44,-906.94 -582.51,-909.84 -581.58,-913.83 -580.96,-917.89 -580.65,-921.99 -580.61,-927.16 -580.94,-932.33 -581.57,-937.49 -582.67,-943.65 -584.10,-949.75 -586.10,-956.82"/>
    </edge>
    <edge id=":30_14" function="internal">
        <lane id=":30_14_0" index="0" disallow="pedestrian tram rail_urban rail rail_electric rail_fast ship" speed="18.60" length="54.14" width="3.50" shape="-587.45,-898.75 -586.81,-899.72 -584.79,-902.43 -582.53,-904.99 -580.04,-907.33 -577.35,-909.44 -574.47,-911.29 -571.44,-912.86 -568.29,-914.17 -565.06,-915.21 -561.77,-916.00 -558.44,-916.56 -553.99,-917.00 -549.53,-917.11 -545.08,-916.95 -539.55,-916.41"/>
    </edge>
    <edge id=":30_15" function="internal">
        <lane id=":30_15_0" index="0" disallow="pedestrian tram rail_urban rail rail_electric rail_fast ship" speed="11.98" length="42.40" width="3.50" shape="-587.45,-898.75 -585.84,-901.07 -584.01,-903.28 -581.94,-905.28 -580.74,-906.21 -579.47,-907.02 -578.10,-907.72 -576.63,-908.25 -575.10,-908.61 -573.53,-908.75 -571.96,-908.69 -570.43,-908.43 -568.95,-908.00 -567.55,-907.43 -566.21,-906.74 -563.80,-905.16 -561.60,-903.34 -559.58,-901.36 -556.84,-898.23 -554.33,-894.93"/>
    </edge>

    <edge id="19746" from="28" to="30" priority="3" type="highway.residential" spreadType="center" length="70.01" shape="-603.23,-1024.79 -572.78,-921.48">
        <lane id="19746_0" index="0" disallow="pedestrian tram rail_urban rail rail_electric rail_fast ship" speed="36.11" length="70.01" width="3.50" customShape="1" shape="-603.23,-1024.79 -582.76,-957.84"/>
    </edge>
    <edge id="19747" from="30" to="7" priority="3" type="highway.residential" spreadType="center" length="70.00" shape="-576.14,-920.49 -606.58,-1023.76">
        <lane id="19747_0" index="0" disallow="pedestrian tram rail_urban rail rail_electric rail_fast ship" speed="36.11" length="70.00" width="3.50" customShape="1" shape="-586.10,-956.82 -606.58,-1023.76"/>
    </edge>
    <edge id="19769" from="30" to="12" priority="3" type="highway.residential" spreadType="center" length="70.00" shape="-575.40,-919.53 -665.53,-978.83">
        <lane id="19769_0" index="0" disallow="pedestrian tram rail_urban rail rail_electric rail_fast ship" speed="36.11" length="70.00" width="3.50" customShape="1" shape="-607.37,-939.87 -648.02,-967.10 -665.53,-978.83"/>
    </edge>
    <edge id="19770" from="27" to="30" priority="3" type="highway.residential" spreadType="center" length="70.00" shape="-663.57,-981.73 -573.48,-922.46">
        <lane id="19770_0" index="0" disallow="pedestrian tram rail_urban rail rail_electric rail_fast ship" speed="36.11" length="70.00" width="3.50" customShape="1" shape="-663.57,-981.73 -646.07,-970.00 -605.41,-942.77"/>
    </edge>
    <edge id="19772" from="23" to="30" priority="3" type="highway.residential" spreadType="center" length="70.03" shape="-470.40,-906.14 -574.71,-919.28">
        <lane id="19772_0" index="0" disallow="pedestrian tram rail_urban rail rail_electric rail_fast ship" speed="36.11" length="70.03" width="3.50" customShape="1" shape="-470.40,-906.14 -472.44,-906.22 -489.54,-907.02 -503.09,-908.02 -512.60,-909.04 -527.05,-911.12 -540.04,-912.95"/>
    </edge>
    <edge id="19773" from="30" to="22" priority="3" type="highway.residential" spreadType="center" length="70.00" shape="-574.28,-922.75 -469.94,-909.62">
        <lane id="19773_0" index="0" disallow="pedestrian tram rail_urban rail rail_electric rail_fast ship" speed="36.11" length="70.00" width="3.50" customShape="1" shape="-539.55,-916.41 -526.59,-914.59 -512.18,-912.52 -502.74,-911.50 -489.25,-910.51 -472.20,-909.71 -469.94,-909.62"/>
    </edge>
    <edge id="19885" from="29" to="30" priority="3" type="highway.residential" spreadType="center" length="0.29" shape="-523.33,-869.11 -575.71,-919.78">
        <lane id="19885_0" index="0" disallow="pedestrian tram rail_urban rail rail_electric rail_fast ship" speed="36.11" length="0.29" width="3.50" customShape="1" shape="-557.00,-892.65 -557.10,-892.79 -557.17,-892.89"/>
    </edge>
    <edge id="19886" from="30" to="29" priority="3" type="highway.residential" spreadType="center" length="0.27" shape="-573.28,-922.30 -520.90,-871.62">
        <lane id="19886_0" index="0" disallow="pedestrian tram rail_urban rail rail_electric rail_fast ship" speed="36.11" length="0.27" width="3.50" customShape="1" shape="-554.33,-894.93 -554.26,-894.83 -554.17,-894.71"/>
    </edge>
    <edge id="19888" from="26" to="29" priority="3" type="highway.residential" spreadType="center" length="70.03" shape="-430.44,-848.66 -522.52,-868.66">
        <lane id="19888_0" index="0" disallow="pedestrian tram rail_urban rail rail_electric rail_fast ship" speed="36.11" length="70.03" width="3.50" customShape="1" shape="-430.44,-848.66 -433.22,-849.19 -438.56,-850.70 -480.44,-862.21 -487.29,-863.95 -498.20,-866.25"/>
    </edge>
    <edge id="19889" from="29" to="18" priority="3" type="highway.residential" spreadType="center" length="70.00" shape="-521.77,-872.08 -429.75,-852.09">
        <lane id="19889_0" index="0" disallow="pedestrian tram rail_urban rail rail_electric rail_fast ship" speed="36.11" length="70.00" width="3.50" customShape="1" shape="-497.48,-869.68 -486.58,-867.38 -479.69,-865.63 -437.85,-854.14 -432.59,-852.63 -429.75,-852.09"/>
    </edge>
    <edge id="20125" from="30" to="9" priority="3" type="highway.residential" spreadType="center" length="43.85" shape="-572.94,-920.15 -608.65,-860.26">
        <lane id="20125_0" index="0" disallow="pedestrian tram rail_urban rail rail_electric rail_fast ship" speed="36.11" length="43.85" width="3.50" customShape="1" shape="-584.51,-896.86 -598.50,-875.30 -608.65,-860.26"/>
    </edge>
    <edge id="20126" from="24" to="30" priority="3" type="highway.residential" spreadType="center" length="43.76" shape="-611.53,-862.24 -575.95,-921.94">
        <lane id="20126_0" index="0" disallow="pedestrian tram rail_urban rail rail_electric rail_fast ship" speed="36.11" length="43.76" width="3.50" customShape="1" shape="-611.53,-862.24 -601.41,-877.24 -587.44,-898.77"/>
    </edge>
    <edge id="20573" from="25" to="29" priority="3" type="highway.residential" spreadType="center" length="5.28" shape="-508.87,-845.65 -523.65,-869.54">
        <lane id="20573_0" index="0" disallow="pedestrian tram rail_urban rail rail_electric rail_fast ship" speed="36.11" length="5.28" width="3.50" customShape="1" shape="-508.87,-845.65 -513.41,-847.75 -513.53,-847.80 -513.66,-847.86"/>
    </edge>
    <edge id="20574" from="29" to="19" priority="3" type="highway.residential" spreadType="center" length="5.25" shape="-520.67,-871.35 -507.41,-848.83">
        <lane id="20574_0" index="0" disallow="pedestrian tram rail_urban rail rail_electric rail_fast ship" speed="36.11" length="5.25" width="3.50" customShape="1" shape="-512.18,-851.03 -512.06,-850.98 -511.95,-850.93 -507.41,-848.83"/>
    </edge>

    <junction id="12" type="dead_end" x="-665.53" y="-978.83" incLanes="19769_0" intLanes="" shape="-666.50,-977.37 -664.55,-980.28" rightOfWay="edgePriority"/>
    <junction id="18" type="dead_end" x="-429.75" y="-852.09" incLanes="19889_0" intLanes="" shape="-429.42,-853.81 -430.08,-850.37" rightOfWay="edgePriority"/>
    <junction id="19" type="dead_end" x="-507.41" y="-848.83" incLanes="20574_0" intLanes="" shape="-506.67,-850.42 -508.14,-847.24" rightOfWay="edgePriority"/>
    <junction id="22" type="dead_end" x="-469.94" y="-909.62" incLanes="19773_0" intLanes="" shape="-469.87,-911.37 -470.00,-907.88" rightOfWay="edgePriority"/>
    <junction id="23" type="dead_end" x="-470.40" y="-906.14" incLanes="" intLanes="" shape="-470.33,-907.89 -470.47,-904.39" rightOfWay="edgePriority"/>
    <junction id="24" type="dead_end" x="-611.53" y="-862.24" incLanes="" intLanes="" shape="-610.08,-861.26 -612.98,-863.22" rightOfWay="edgePriority"/>
    <junction id="25" type="dead_end" x="-508.87" y="-845.65" incLanes="" intLanes="" shape="-508.14,-847.24 -509.61,-844.06" rightOfWay="edgePriority"/>
    <junction id="26" type="dead_end" x="-430.44" y="-848.66" incLanes="" intLanes="" shape="-430.12,-850.38 -430.77,-846.94" rightOfWay="edgePriority"/>
    <junction id="27" type="dead_end" x="-663.57" y="-981.73" incLanes="" intLanes="" shape="-664.54,-980.27 -662.60,-983.18" rightOfWay="edgePriority"/>
    <junction id="28" type="dead_end" x="-603.23" y="-1024.79" incLanes="" intLanes="" shape="-604.91,-1024.28 -601.56,-1025.31" rightOfWay="edgePriority"/>
    <junction id="29" type="priority" x="-522.11" y="-870.37" incLanes="20573_0 19888_0 19886_0" intLanes=":29_0_0 :29_1_0 :29_2_0 :29_3_0" shape="-514.38,-846.27 -511.45,-852.62 -514.23,-855.06 -514.16,-857.97 -511.90,-860.87 -508.11,-863.25 -503.44,-864.64 -498.56,-864.54 -497.12,-871.39 -508.72,-873.57 -519.18,-875.48 -528.65,-877.87 -537.30,-881.53 -545.28,-887.23 -552.75,-895.73 -558.42,-891.63 -551.64,-881.97 -545.53,-873.20 -539.41,-865.29 -532.62,-858.19 -524.50,-851.86">
        <request index="0" response="0000" foes="0010" cont="0"/>
        <request index="1" response="1001" foes="1001" cont="0"/>
        <request index="2" response="0000" foes="0000" cont="0"/>
        <request index="3" response="0000" foes="0010" cont="0"/>
    </junction>
    <junction id="30" type="priority" x="-574.47" y="-921.01" incLanes="19885_0 19772_0 19746_0 19770_0 20126_0" intLanes=":30_0_0 :30_1_0 :30_2_0 :30_3_0 :30_4_0 :30_5_0 :30_6_0 :30_7_0 :30_8_0 :30_9_0 :30_10_0 :30_11_0 :30_12_0 :30_13_0 :30_14_0 :30_15_0" shape="-558.59,-891.86 -552.91,-895.95 -554.96,-900.29 -554.91,-904.22 -553.09,-907.51 -549.83,-909.93 -545.45,-911.24 -540.28,-911.22 -539.31,-918.15 -549.02,-920.47 -557.64,-924.54 -565.16,-930.37 -571.57,-937.94 -576.88,-947.27 -581.08,-958.35 -587.78,-956.30 -587.19,-951.17 -588.50,-946.90 -591.30,-943.78 -595.16,-942.10 -599.68,-942.15 -604.45,-944.23 -608.34,-938.41 -599.18,-931.56 -592.38,-924.87 -587.96,-918.34 -585.91,-911.97 -586.22,-905.77 -588.91,-899.72 -583.04,-895.91 -579.18,-900.40 -575.15,-902.48 -571.01,-902.42 -566.82,-900.45 -562.66,-896.85">
        <request index="0" response="0000000000000000" foes="0000100100001000" cont="0"/>
        <request index="1" response="0000000000000000" foes="1111100100011000" cont="0"/>
        <request index="2" response="0000011000000000" foes="1110011100111000" cont="0"/>
        <request index="3" response="0000110010000111" foes="1000110110000111" cont="0"/>
        <request index="4" response="0000110000000110" foes="0111110110000110" cont="0"/>
        <request index="5" response="0110001010000100" foes="0110001110000100" cont="0"/>
        <request index="6" response="0000001000000000" foes="0100001000000000" cont="0"/>
        <request index="7" response="0000011000010000" foes="1100011000111000" cont="0"/>
        <request index="8" response="0000111000111111" foes="1100111000111111" cont="0"/>
        <request index="9" response="0000000000000000" foes="0110000111100100" cont="0"/>
        <request index="10" response="0000000000000000" foes="1110000110011100" cont="0"/>
        <request index="11" response="0000000000000011" foes="1110000100011011" cont="0"/>
        <request index="12" response="0000000000010010" foes="0000000000010010" cont="0"/>
        <request index="13" response="0000111000010110" foes="0000111000110110" cont="0"/>
        <request index="14" response="0000111111010110" foes="0000111111110110" cont="0"/>
        <request index="15" response="0000110110001110" foes="0000110110001110" cont="0"/>
    </junction>
    <junction id="7" type="dead_end" x="-606.58" y="-1023.76" incLanes="19747_0" intLanes="" shape="-608.25,-1023.24 -604.90,-1024.27" rightOfWay="edgePriority"/>
    <junction id="9" type="dead_end" x="-608.65" y="-860.26" incLanes="20125_0" intLanes="" shape="-607.20,-859.28 -610.10,-861.24" rightOfWay="edgePriority"/>

    <connection from="19746" to="19773" fromLane="0" toLane="0" contPos="-4.00" shape="-582.76,-957.85 -581.03,-952.74 -579.02,-947.77 -576.69,-942.95 -574.57,-939.26 -572.21,-935.72 -569.60,-932.38 -566.72,-929.27 -564.40,-927.13 -561.94,-925.15 -559.34,-923.35 -556.62,-921.74 -553.79,-920.34 -550.87,-919.14 -547.87,-918.14 -543.75,-917.11 -539.55,-916.41" via=":30_6_0" dir="r" state="m"/>
    <connection from="19746" to="19886" fromLane="0" toLane="0" contPos="-4.00" shape="-582.76,-957.85 -579.94,-949.07 -576.20,-938.47 -572.47,-928.96 -568.81,-920.54 -565.27,-913.20 -561.41,-906.04 -557.73,-899.96 -554.33,-894.93" via=":30_7_0" dir="s" state="m"/>
    <connection from="19746" to="20125" fromLane="0" toLane="0" contPos="-4.00" shape="-582.76,-957.85 -580.68,-950.53 -579.21,-944.18 -578.07,-937.77 -577.43,-932.39 -577.11,-926.97 -577.17,-921.54 -577.52,-917.22 -578.19,-912.93 -579.20,-908.71 -580.20,-905.61 -581.42,-902.59 -582.85,-899.67 -584.51,-896.86" via=":30_8_0" dir="L" state="m"/>
    <connection from="19770" to="19773" fromLane="0" toLane="0" contPos="-4.00" shape="-605.41,-942.77 -599.38,-938.87 -592.33,-934.70 -585.10,-930.84 -578.64,-927.75 -572.06,-924.95 -565.35,-922.47 -558.53,-920.33 -551.61,-918.55 -545.62,-917.34 -539.55,-916.41" via=":30_9_0" dir="R" state="M"/>
    <connection from="19770" to="19886" fromLane="0" toLane="0" contPos="-4.00" shape="-605.41,-942.77 -597.76,-937.44 -590.33,-931.84 -583.13,-925.94 -576.95,-920.43 -571.01,-914.66 -565.34,-908.63 -560.63,-903.13 -556.16,-897.43 -554.33,-894.93" via=":30_10_0" dir="s" state="M"/>
    <connection from="19770" to="20125" fromLane="0" toLane="0" contPos="-4.00" shape="-605.41,-942.77 -600.47,-939.28 -595.73,-935.53 -592.15,-932.29 -588.80,-928.81 -586.50,-926.00 -584.45,-923.01 -582.72,-919.83 -581.78,-917.60 -581.06,-915.30 -580.58,-912.93 -580.37,-910.53 -580.43,-908.11 -580.77,-905.72 -581.38,-903.38 -582.22,-901.12 -583.28,-898.94 -584.51,-896.86" via=":30_11_0" dir="l" state="m"/>
    <connection from="19772" to="20125" fromLane="0" toLane="0" contPos="-4.00" shape="-540.01,-912.94 -545.21,-913.45 -549.39,-913.61 -553.57,-913.51 -557.73,-913.12 -560.82,-912.61 -563.88,-911.89 -566.86,-910.94 -569.77,-909.76 -572.56,-908.33 -575.20,-906.65 -577.68,-904.73 -579.97,-902.59 -582.05,-900.25 -583.93,-897.73 -584.51,-896.86" via=":30_3_0" dir="R" state="m"/>
    <connection from="19772" to="19769" fromLane="0" toLane="0" contPos="-4.00" shape="-540.01,-912.94 -546.21,-913.89 -552.36,-915.13 -559.45,-916.95 -566.43,-919.14 -573.29,-921.68 -580.03,-924.53 -586.63,-927.69 -594.01,-931.63 -601.20,-935.89 -607.37,-939.87" via=":30_4_0" dir="s" state="m"/>
    <connection from="19772" to="19747" fromLane="0" toLane="0" contPos="-4.00" shape="-540.01,-912.94 -544.46,-913.68 -548.84,-914.77 -552.06,-915.84 -555.19,-917.12 -558.23,-918.61 -561.15,-920.33 -563.94,-922.24 -566.58,-924.36 -569.07,-926.65 -572.15,-929.95 -574.94,-933.50 -577.45,-937.24 -579.70,-941.16 -582.17,-946.23 -584.29,-951.46 -586.10,-956.82" via=":30_5_0" dir="l" state="m"/>
    <connection from="19885" to="20125" fromLane="0" toLane="0" contPos="-4.00" shape="-557.17,-892.89 -559.38,-895.80 -561.77,-898.56 -563.50,-900.27 -565.36,-901.84 -567.37,-903.20 -568.44,-903.78 -569.56,-904.27 -570.72,-904.64 -571.91,-904.88 -573.12,-904.97 -574.33,-904.90 -575.53,-904.67 -576.68,-904.28 -577.78,-903.76 -578.81,-903.12 -579.79,-902.40 -581.55,-900.72 -583.11,-898.86 -584.51,-896.86" via=":30_0_0" dir="r" state="M"/>
    <connection from="19885" to="19769" fromLane="0" toLane="0" contPos="-4.00" shape="-557.17,-892.89 -558.96,-895.34 -563.35,-900.93 -567.97,-906.32 -573.54,-912.24 -579.37,-917.90 -585.43,-923.31 -592.52,-929.11 -599.83,-934.62 -607.37,-939.87" via=":30_1_0" dir="s" state="M"/>
    <connection from="19885" to="19747" fromLane="0" toLane="0" contPos="-4.00" shape="-557.17,-892.89 -560.66,-898.04 -564.41,-904.24 -568.34,-911.53 -571.95,-918.99 -575.68,-927.54 -579.46,-937.18 -583.25,-947.93 -586.10,-956.82" via=":30_2_0" dir="L" state="m"/>
    <connection from="19886" to="19889" fromLane="0" toLane="0" contPos="-4.00" shape="-554.18,-894.72 -552.26,-892.34 -550.11,-890.18 -547.78,-888.20 -544.46,-885.83 -540.97,-883.72 -536.44,-881.39 -531.78,-879.33 -526.06,-877.16 -519.28,-874.96 -511.42,-872.79 -502.48,-870.70 -497.48,-869.68" via=":29_2_0" dir="R" state="M"/>
    <connection from="19886" to="20574" fromLane="0" toLane="0" contPos="-4.00" shape="-554.18,-894.72 -547.54,-885.70 -541.25,-877.68 -535.33,-870.68 -530.50,-865.44 -526.15,-861.15 -522.34,-857.77 -519.13,-855.25 -515.76,-852.97 -513.09,-851.48 -512.18,-851.03" via=":29_3_0" dir="s" state="M"/>