<routes>
	<vehicle depart="0.1" departLane="0" departPos="3.2138204682768032" departSpeed="1.7324322" id="315" type="bicycle">
		<route edges=":17_6 38215"/>
	</vehicle>
	<vehicle depart="0.1" departLane="0" departPos="66.24322988798768" departSpeed="0.63542722" id="317" type="bicycle">
		<route edges="37690 38215"/>
	</vehicle>
	<vehicle depart="0.1" departLane="0" departPos="7.414590709449771" departSpeed="2.634527" id="320" type="passenger">
		<route edges=":17_7 37699"/>
	</vehicle>
	<vehicle depart="0.1" departLane="0" departPos="61.3943677648311" departSpeed="1.3166057" id="325" type="passenger">
		<route edges="37690 38030"/>
	</vehicle>
	<vehicle depart="0.1" departLane="0" departPos="32.732301753579" departSpeed="14.534466" id="327" type="passenger">
		<route edges=":17_1 38030"/>
	</vehicle>
	<vehicle depart="0.1" departLane="0" departPos="47.15002620360095" departSpeed="1.4387619" id="329" type="passenger">
		<route edges="37690 38030"/>
	</vehicle>
	<vehicle depart="0.1" departLane="0" departPos="22.8996631595204" departSpeed="9.7162144" id="333" type="passenger">
		<route edges=":17_1 38030"/>
	</vehicle>
	<vehicle depart="0.1" departLane="0" departPos="54.533306214057546" departSpeed="9.6245567" id="343" type="passenger">
		<route edges="38214 38030"/>
	</vehicle>
	<vehicle depart="0.1" departLane="0" departPos="54.76787187845186" departSpeed="0.87286018" id="30" type="truck">
		<route edges="38029 37699"/>
	</vehicle>
	<vehicle depart="0.1" departLane="0" departPos="6.839338620899753" departSpeed="13.983125" id="324" type="truck">
		<route edges="37691"/>
	</vehicle>
</routes>
