<routes>
	<vehicle depart="0.1" departLane="1" departPos="4.41626727012347" departSpeed="2.5808411" id="332" type="bicycle">
		<route edges="125160"/>
	</vehicle>
	<vehicle depart="0.1" departLane="0" departPos="10.809093067999285" departSpeed="6.6252385" id="340" type="passenger">
		<route edges="125160"/>
	</vehicle>
	<vehicle depart="0.1" departLane="0" departPos="31.50047504376674" departSpeed="7.1314713" id="344" type="passenger">
		<route edges=":8_1 125160"/>
	</vehicle>
	<vehicle depart="0.1" departLane="0" departPos="57.59878300035427" departSpeed="16.72227" id="353" type="passenger">
		<route edges="125185 125160"/>
	</vehicle>
	<vehicle depart="0.1" departLane="2" departPos="39.13980799424831" departSpeed="34.347879" id="356" type="passenger">
		<route edges="125185 125160"/>
	</vehicle>
</routes>
