<routes>
	<vehicle depart="0.1" departLane="0" departPos="35.75507997859879" departSpeed="11.964253" id="3117" type="bus">
		<route edges="4034 3776"/>
	</vehicle>
	<vehicle depart="0.1" departLane="0" departPos="28.026590864771162" departSpeed="0.00060759907" id="333" type="passenger">
		<route edges="3773 3776"/>
	</vehicle>
	<vehicle depart="0.1" departLane="0" departPos="6.227091183477005" departSpeed="11.762072" id="339" type="passenger">
		<route edges="4033 3805"/>
	</vehicle>
	<vehicle depart="0.1" departLane="0" departPos="20.790477619743186" departSpeed="0.91724551" id="353" type="passenger">
		<route edges=":128_5 3776"/>
	</vehicle>
	<vehicle depart="0.1" departLane="0" departPos="10.33708996781778" departSpeed="2.4860033" id="363" type="passenger">
		<route edges=":128_5 3776"/>
	</vehicle>
	<vehicle depart="0.1" departLane="0" departPos="72.50000009764877" departSpeed="2.117576" id="370" type="passenger">
		<route edges="4036 4033 3805"/>
	</vehicle>
	<vehicle depart="0.1" departLane="0" departPos="63.82365645080579" departSpeed="1.6084426" id="372" type="passenger">
		<route edges="4036 4033"/>
	</vehicle>
	<vehicle depart="0.1" departLane="0" departPos="73.56980877851672" departSpeed="9.9030712" id="3104" type="passenger">
		<route edges="4034 4037"/>
	</vehicle>
	<vehicle depart="0.1" departLane="0" departPos="35.52770754366622" departSpeed="0.0" id="3111" type="passenger">
		<route edges="3773 3776"/>
	</vehicle>
</routes>
