<!-- generated on 2020-12-18 15:39:52.681219 by ipykernel_launcher.py v1_2_0+5214-53edc58fcd
-->
<edges>
	<edge from="1" function="normal" id="20" length="82.73407136537679" numLanes="5" priority="1" speed="36.11111111111111" spreadType="center" to="2">
		<lane allow="pedestrian rail private passenger ship delivery vip emergency bicycle rail_electric army rail_urban trailer coach custom2 tram taxi evehicle custom1 motorcycle authority hov moped" index="0" length="82.73407136537679" shape="-38.445,-0.31999999999999995 -37.855000000000004,-0.32499999999999996 -27.59,-0.135 -23.63,-0.1399999999999999 -17.42,-0.030000000000000027 -12.635,0.09499999999999997 -8.67,0.17999999999999994 1.9,0.5099999999999999 2.685,0.525 5.890000000000001,0.6100000000000001 15.745000000000001,0.9449999999999998 16.83,0.9850000000000001 20.810000000000002,1.065 24.924999999999997,1.22 31.285,1.5750000000000002 35.24,1.73 37.285,1.8499999999999999 45.144999999999996,2.27 45.155,2.2750000000000004" speed="36.11111111111111" width="3.4501304323170157"/>
		<lane allow="pedestrian rail private passenger ship delivery vip emergency bicycle rail_electric army rail_urban trailer coach custom2 tram taxi evehicle custom1 motorcycle authority hov moped" index="1" length="82.73407136537679" shape="-38.400000000000006,3.125 -37.955,3.125 -30.43,3.285 -27.58,3.3 -26.535,3.2800000000000002 -23.785,3.305 -15.635,3.535 -12.71,3.5999999999999996 -11.675,3.62 -8.780000000000001,3.69 -1.15,3.935 1.84,4.0200000000000005 2.7800000000000002,4.045 5.725,4.14 13.969999999999999,4.45 16.775,4.52 17.905,4.545 20.66,4.63 28.4,5.005 31.145,5.11 32.30500000000001,5.135 34.995000000000005,5.23 43.095,5.654999999999999 44.975,5.73" speed="36.11111111111111" width="3.2444568112397483"/>
		<lane allow="pedestrian rail private passenger ship delivery vip emergency bicycle rail_electric army rail_urban trailer coach bus custom2 tram taxi evehicle custom1 motorcycle authority truck hov moped" index="2" length="82.73407136537679" shape="-38.35,6.515 -34.605000000000004,6.51 -30.525,6.595000000000001 -26.619999999999997,6.62 -23.555,6.695 -19.595,6.725 -15.739999999999998,6.86 -11.8,6.97 -8.275,7.09 -4.3100000000000005,7.1850000000000005 -1.275,7.275 2.67,7.380000000000001 6.34,7.515000000000001 10.295,7.635 13.85,7.775 17.77,7.895 21.21,8.035 25.174999999999997,8.155 28.16,8.315 32.07,8.49 35.72,8.7 39.675,8.84 42.92,8.995 44.8,9.065" speed="36.11111111111111" width="3.1912693399335637"/>
		<lane allow="pedestrian rail private passenger ship delivery vip emergency bicycle rail_electric army rail_urban trailer coach custom2 tram taxi evehicle custom1 motorcycle authority truck hov moped" index="3" length="82.73407136537679" shape="-38.29,9.899999999999999 -34.605000000000004,9.84 -34.33,9.845 -23.635,10.05 -23.625,10.05 -19.744999999999997,10.06 -19.494999999999997,10.07 -8.71,10.425 -8.355,10.435 -4.775,10.504999999999999 -4.425,10.515 6.005,10.83 6.234999999999999,10.84 9.945,10.91 10.125,10.915 20.865000000000002,11.34 21.11,11.35 24.795,11.42 24.96,11.43 35.545,12.055 35.665,12.055 39.56,12.14 39.72,12.145 44.625,12.434999999999999" speed="36.11111111111111" width="3.213985065304443"/>
		<lane allow="pedestrian rail private passenger ship delivery vip emergency bicycle rail_electric army rail_urban trailer coach custom2 tram taxi evehicle custom1 motorcycle authority hov moped" index="4" length="82.73407136537679" shape="-38.235,13.36 -38.084999999999994,13.36 -34.34,13.305 -34.01,13.31 -23.549999999999997,13.485 -23.16,13.49 -19.6,13.56 -19.185,13.565000000000001 -8.825,13.87 -8.43,13.88 -4.85,13.95 -4.4399999999999995,13.96 5.9,14.25 6.3,14.255 9.875,14.329999999999998 10.31,14.34 20.73,14.77 21.125,14.780000000000001 24.73,14.855 25.18,14.870000000000001 35.59,15.41 35.985,15.420000000000002 39.61,15.5 40.095,15.525 44.45,15.825" speed="36.11111111111111" width="3.4746654515219144"/>
	</edge>
	<edge from="2" function="normal" id="16" length="102.6973655895232" numLanes="6" priority="1" speed="36.11111111111111" spreadType="center" to="3">
		<lane allow="pedestrian rail private passenger ship delivery vip emergency bicycle rail_electric army rail_urban trailer coach custom2 tram taxi evehicle custom1 motorcycle authority truck hov moped" index="0" length="102.6973655895232" shape="45.35,-1.475 48.2,-1.2950000000000002 49.16,-1.2550000000000001 52.695,-1.065 53.66,-1.025 57.254999999999995,-0.8449999999999999 58.225,-0.805 61.84,-0.625 62.81,-0.59 66.33500000000001,-0.395 67.305,-0.3500000000000001 68.265,-0.29499999999999993 70.91499999999999,-0.15500000000000003 71.885,-0.11499999999999988 75.46000000000001,0.04999999999999993 76.425,0.08999999999999997 80.065,0.29000000000000004 81.035,0.32999999999999996 84.435,0.52 85.405,0.5650000000000001 88.975,0.7750000000000001 89.95,0.815 93.735,0.99 94.705,1.0350000000000001 98.255,1.1949999999999998 99.225,1.235 102.925,1.45 103.895,1.49 107.385,1.6749999999999998 108.355,1.71 111.945,1.8949999999999998 112.82,1.93 112.91999999999999,1.935 116.605,2.19 117.57,2.23 121.1,2.365 122.065,2.405 125.595,2.5949999999999998 126.565,2.6399999999999997 130.275,2.83 131.235,2.87 134.555,3.065 135.51999999999998,3.105 139.205,3.3000000000000003 140.17000000000002,3.34 143.675,3.59 144.65,3.625 147.91000000000003,3.765" speed="36.11111111111111" width="3.684901626909463"/>
		<lane allow="pedestrian rail private passenger ship delivery vip emergency bicycle rail_electric army rail_urban trailer coach custom2 tram taxi evehicle custom1 motorcycle authority hov moped" index="1" length="102.6973655895232" shape="45.155,2.2750000000000004 45.95,2.325 48.065,2.4250000000000003 49.03,2.445 49.89,2.4800000000000004 52.269999999999996,2.665 53.13,2.72 53.275000000000006,2.73 54.045,2.79 54.290000000000006,2.8000000000000003 57.114999999999995,2.895 57.145,2.895 58.095,2.9250000000000003 58.215,2.9200000000000004 61.629999999999995,3.085 62.535,3.13 62.63,3.13 66.145,3.325 67.035,3.3600000000000003 67.12,3.37 67.74000000000001,3.4000000000000004 70.785,3.525 71.66,3.54 71.69,3.545 79.77000000000001,4.02 80.66499999999999,4.075 80.79,4.08 81.98,4.16 82.065,4.16 84.3,4.25 85.275,4.275 85.96000000000001,4.3100000000000005 88.78,4.484999999999999 89.66,4.525 89.725,4.525 93.49000000000001,4.715 94.41499999999999,4.755 94.475,4.76 96.625,4.87 98.125,4.905 99.09,4.93 100.625,5.0 102.72,5.13 103.58500000000001,5.17 103.675,5.18 107.15,5.375 108.035,5.415 108.135,5.42 111.2,5.59 111.22999999999999,5.6 111.75,5.625 112.72,5.665 115.245,5.845000000000001 116.41499999999999,5.92 117.31,5.96 120.805,6.085000000000001 120.86500000000001,6.085000000000001 121.795,6.13 121.88499999999999,6.135 125.405,6.324999999999999 125.6,6.34 126.275,6.365 126.35,6.37 129.67000000000002,6.535 130.10500000000002,6.555 131.065,6.585000000000001 134.38,6.765 135.31,6.800000000000001 135.365,6.800000000000001 139.03500000000003,6.97 140.0,7.005 141.24,7.084999999999999 143.48,7.25 144.37,7.285 144.98000000000002,7.3149999999999995 147.755,7.4399999999999995" speed="36.11111111111111" width="3.5046255149445003"/>
		<lane allow="pedestrian rail private passenger ship delivery vip emergency bicycle rail_electric army rail_urban trailer coach custom2 tram taxi evehicle custom1 motorcycle authority hov moped" index="2" length="102.6973655895232" shape="44.975,5.73 45.79,5.76 46.995000000000005,5.779999999999999 49.504999999999995,5.89 49.709999999999994,5.91 54.06,6.27 57.43,6.41 57.575,6.42 58.08,6.430000000000001 58.16,6.44 61.61,6.5649999999999995 67.49,6.9 71.33,7.0649999999999995 71.49,7.07 72.32499999999999,7.130000000000001 72.425,7.130000000000001 76.295,7.3100000000000005 81.775,7.67 85.58500000000001,7.82 85.71000000000001,7.824999999999999 87.045,7.8999999999999995 91.005,8.05 96.4,8.385 100.225,8.55 100.38,8.555 101.84,8.64 101.925,8.645 105.805,8.805 111.07,9.075 115.02000000000001,9.265 116.52,9.335 120.465,9.55 125.525,9.809999999999999 129.49,10.025 130.965,10.09 134.915,10.285 140.95499999999998,10.559999999999999 141.0,10.56 144.945,10.77 145.735,10.815000000000001 147.61,10.925" speed="36.11111111111111" width="3.2075535848992454"/>
		<lane allow="pedestrian rail private passenger ship delivery vip emergency bicycle rail_electric army rail_urban trailer coach custom2 tram taxi evehicle custom1 motorcycle authority truck hov moped" index="3" length="102.6973655895232" shape="44.8,9.065 46.785,9.125 46.915,9.135 50.71,9.355 54.66,9.530000000000001 57.45,9.719999999999999 61.245000000000005,9.89 61.4,9.895 65.345,10.155 69.305,10.32 72.13,10.49 75.985,10.620000000000001 76.105,10.629999999999999 80.155,10.855 84.11,11.015 86.775,11.195 90.58500000000001,11.379999999999999 90.75,11.395 94.845,11.685 98.805,11.855 101.65,12.02 105.49000000000001,12.165 105.59,12.165 109.82,12.370000000000001 113.78,12.49 116.285,12.614999999999998 116.33,12.625 120.28,12.844999999999999 124.53999999999999,13.085 124.55,13.085 128.51,13.3 130.87,13.41 134.82999999999998,13.605 139.08999999999997,13.795 143.05,14.004999999999999 145.56,14.120000000000001 147.47,14.21" speed="36.11111111111111" width="3.1164242329952434"/>
		<lane allow="pedestrian rail private passenger ship delivery vip emergency bicycle rail_electric army rail_urban trailer coach custom2 tram taxi evehicle custom1 motorcycle authority hov moped" index="4" length="102.6973655895232" shape="44.625,12.434999999999999 50.3,12.76 50.565,12.77 54.215,12.84 54.295,12.845 54.465,12.855 65.13499999999999,13.535 65.36,13.545 69.16499999999999,13.625 69.38499999999999,13.629999999999999 79.92,14.27 80.025,14.27 83.825,14.344999999999999 94.655,15.024999999999999 94.82,15.035 98.66499999999999,15.11 98.83500000000001,15.120000000000001 109.56,15.765 109.72,15.775 113.465,15.844999999999999 123.995,16.43 124.37,16.445 127.94999999999999,16.645 128.33499999999998,16.665 138.7,17.145 138.865,17.155 138.91,17.16 142.715,17.365000000000002 142.89,17.37 147.32999999999998,17.555" speed="36.11111111111111" width="3.2544431167251933"/>
		<lane allow="pedestrian rail private passenger ship delivery vip emergency bicycle rail_electric army rail_urban trailer coach custom2 tram taxi evehicle custom1 motorcycle authority hov moped" index="5" length="102.6973655895232" shape="44.45,15.825 50.095,16.22 50.405,16.235 50.575,16.235 54.14,16.31 54.614999999999995,16.33 65.225,16.975 65.555,16.99 65.69,16.994999999999997 69.25999999999999,17.06 69.745,17.095 79.705,17.785 80.015,17.8 80.185,17.805 83.75,17.88 84.20500000000001,17.9 94.7,18.415 95.045,18.425 95.14500000000001,18.425 98.715,18.5 99.195,18.525 109.35499999999999,19.200000000000003 109.66,19.215 109.825,19.22 113.39,19.295 113.85,19.310000000000002 123.81,19.84 124.325,19.869999999999997 127.765,20.055 128.265,20.08 138.575,20.619999999999997 139.09,20.64 142.53,20.83 142.98000000000002,20.85 143.02499999999998,20.85 147.185,21.03" speed="36.11111111111111" width="3.4746654515219144"/>
	</edge>
	<edge from="4" function="normal" id="17" length="84.21271108247856" numLanes="1" priority="1" speed="36.11111111111111" spreadType="center" to="2">
		<lane allow="pedestrian rail private passenger ship delivery vip emergency bicycle rail_electric army rail_urban trailer coach custom2 tram taxi evehicle custom1 motorcycle authority hov moped" index="0" length="84.21271108247856" shape="-38.57,-8.325 -38.345,-8.3 -28.424999999999997,-7.140000000000001 -20.225,-6.35 -13.635,-5.78 -3.715,-4.915 -1.575,-4.745 9.504999999999999,-3.8899999999999997 24.825,-2.665 25.235,-2.63 32.91,-2.1350000000000002 37.49,-1.885 45.35,-1.475" speed="36.11111111111111" width="3.643212867785796"/>
	</edge>
</edges>
