<!-- generated on 2020-12-18 15:39:52.761771 by ipykernel_launcher.py v1_2_0+5214-53edc58fcd
-->
<nodes>
	<node id="1" type="from" x="-38.343999999999994" y="6.516"/>
	<node id="2" type="to" x="44.801" y="9.065999999999999"/>
	<node id="3" type="to" x="147.54333333333332" y="12.487500000000002"/>
	<node id="4" type="from" x="-38.57" y="-8.325"/>
</nodes>
