<?xml version="1.0" encoding="UTF-8"?>

<!-- generated on Fri Dec 18 15:39:52 2020 by Eclipse SUMO netconvert Version 1.8.0
<configuration xmlns:xsi="http://www.w3.org/2001/XMLSchema-instance" xsi:noNamespaceSchemaLocation="http://sumo.dlr.de/xsd/netconvertConfiguration.xsd">

    <input>
        <node-files value="./converted_scenarios/hand-crafted/USA_US101-32_1_I-1-1/nodes.net.xml"/>
        <edge-files value="./converted_scenarios/hand-crafted/USA_US101-32_1_I-1-1/edges.net.xml"/>
        <connection-files value="./converted_scenarios/hand-crafted/USA_US101-32_1_I-1-1/_connections.net.xml"/>
        <tllogic-files value="./converted_scenarios/hand-crafted/USA_US101-32_1_I-1-1/_tll.net.xml"/>
    </input>

    <output>
        <output-file value="./converted_scenarios/hand-crafted/USA_US101-32_1_I-1-1/USA_US101-32_1_I-1-1.net.xml"/>
    </output>

    <processing>
        <plain.extend-edge-shape value="true"/>
        <geometry.remove.keep-edges.explicit value="true"/>
        <geometry.avoid-overlap value="true"/>
        <offset.disable-normalization value="true"/>
    </processing>

    <junctions>
        <no-turnarounds value="true"/>
        <junctions.internal-link-detail value="20"/>
    </junctions>

    <report>
        <aggregate-warnings value="5"/>
    </report>

    <random_number>
        <seed value="1234"/>
    </random_number>

</configuration>
-->

<net version="1.6" junctionCornerDetail="5" junctionLinkDetail="20" limitTurnSpeed="5.50" xmlns:xsi="http://www.w3.org/2001/XMLSchema-instance" xsi:noNamespaceSchemaLocation="http://sumo.dlr.de/xsd/net_file.xsd">

    <location netOffset="0.00,0.00" convBoundary="-38.57,-8.32,147.54,12.49" origBoundary="-38.57,-8.32,147.91,21.03" projParameter="!"/>

    <edge id=":2_0" function="internal">
        <lane id=":2_0_0" index="0" disallow="bus truck rail_fast" speed="36.11" length="3.02" width="3.68" shape="43.85,-1.55 46.86,-1.38"/>
    </edge>
    <edge id=":2_1" function="internal">
        <lane id=":2_1_0" index="0" disallow="bus truck rail_fast" speed="36.11" length="3.00" width="3.50" shape="43.66,2.19 46.66,2.36"/>
        <lane id=":2_1_1" index="1" disallow="bus truck rail_fast" speed="36.11" length="3.00" width="3.21" shape="43.47,5.67 46.47,5.77"/>
        <lane id=":2_1_2" index="2" disallow="bus rail_fast" speed="36.11" length="3.00" width="3.12" shape="43.29,9.01 46.29,9.11"/>
        <lane id=":2_1_3" index="3" disallow="bus truck rail_fast" speed="36.11" length="3.00" width="3.25" shape="43.11,12.35 46.11,12.52"/>
        <lane id=":2_1_4" index="4" disallow="bus truck rail_fast" speed="36.11" length="3.00" width="3.47" shape="42.93,15.72 45.92,15.93"/>
    </edge>

    <edge id="16" from="2" to="3" priority="1" spreadType="center" length="102.70">
        <lane id="16_0" index="0" disallow="bus rail_fast" speed="36.11" length="102.70" width="3.68" acceleration="1" customShape="1" shape="46.86,-1.38 48.20,-1.30 49.16,-1.26 52.70,-1.06 53.66,-1.02 57.25,-0.84 58.23,-0.81 61.84,-0.62 62.81,-0.59 66.34,-0.40 67.31,-0.35 68.27,-0.29 70.91,-0.16 71.89,-0.11 75.46,0.05 76.42,0.09 80.06,0.29 81.03,0.33 84.44,0.52 85.41,0.57 88.97,0.78 89.95,0.81 93.73,0.99 94.70,1.04 98.25,1.19 99.22,1.24 102.92,1.45 103.89,1.49 107.39,1.67 108.36,1.71 111.94,1.89 112.82,1.93 112.92,1.94 116.61,2.19 117.57,2.23 121.10,2.37 122.06,2.40 125.59,2.59 126.56,2.64 130.28,2.83 131.24,2.87 134.56,3.06 135.52,3.10 139.21,3.30 140.17,3.34 143.68,3.59 144.65,3.62 147.92,3.77"/>
        <lane id="16_1" index="1" disallow="bus truck rail_fast" speed="36.11" length="102.70" width="3.50" customShape="1" shape="46.66,2.36 48.06,2.43 49.03,2.44 49.89,2.48 52.27,2.67 53.13,2.72 53.28,2.73 54.05,2.79 54.29,2.80 57.11,2.90 58.09,2.93 58.22,2.92 61.63,3.08 62.53,3.13 66.14,3.33 67.03,3.36 67.74,3.40 70.78,3.52 71.66,3.54 79.77,4.02 80.66,4.08 80.79,4.08 81.98,4.16 84.30,4.25 85.28,4.28 85.96,4.31 88.78,4.48 89.66,4.53 93.49,4.71 94.41,4.75 96.62,4.87 98.12,4.91 99.09,4.93 100.62,5.00 102.72,5.13 103.59,5.17 107.15,5.38 108.03,5.42 108.14,5.42 111.20,5.59 111.75,5.62 112.72,5.67 115.25,5.85 116.41,5.92 117.31,5.96 120.81,6.09 121.80,6.13 125.41,6.32 125.60,6.34 126.28,6.37 129.67,6.54 130.11,6.55 131.06,6.59 134.38,6.76 135.31,6.80 139.04,6.97 140.00,7.00 141.24,7.08 143.48,7.25 144.37,7.29 144.98,7.31 147.76,7.44"/>
        <lane id="16_2" index="2" disallow="bus truck rail_fast" speed="36.11" length="102.70" width="3.21" customShape="1" shape="46.47,5.77 47.00,5.78 49.50,5.89 49.71,5.91 54.06,6.27 57.43,6.41 57.58,6.42 58.08,6.43 61.61,6.56 67.49,6.90 71.33,7.06 71.49,7.07 72.32,7.13 72.42,7.13 76.30,7.31 81.78,7.67 85.59,7.82 85.71,7.82 87.05,7.90 91.00,8.05 96.40,8.38 100.22,8.55 100.38,8.55 101.84,8.64 105.81,8.80 111.07,9.07 115.02,9.27 116.52,9.34 120.47,9.55 125.53,9.81 129.49,10.03 130.97,10.09 134.91,10.29 140.95,10.56 144.94,10.77 145.74,10.82 147.61,10.93"/>
        <lane id="16_3" index="3" disallow="bus rail_fast" speed="36.11" length="102.70" width="3.12" customShape="1" shape="46.29,9.11 46.78,9.12 46.91,9.13 50.71,9.36 54.66,9.53 57.45,9.72 61.25,9.89 61.40,9.89 65.34,10.15 69.31,10.32 72.13,10.49 75.98,10.62 76.11,10.63 80.16,10.86 84.11,11.02 86.78,11.20 90.59,11.38 90.75,11.39 94.84,11.69 98.81,11.86 101.65,12.02 105.49,12.16 109.82,12.37 113.78,12.49 116.28,12.61 120.28,12.84 124.54,13.09 128.51,13.30 130.87,13.41 134.83,13.61 139.09,13.79 143.05,14.00 145.56,14.12 147.47,14.21"/>
        <lane id="16_4" index="4" disallow="bus truck rail_fast" speed="36.11" length="102.70" width="3.25" customShape="1" shape="46.11,12.52 50.30,12.76 50.56,12.77 54.22,12.84 54.47,12.86 65.13,13.54 65.36,13.54 69.16,13.62 69.38,13.63 79.92,14.27 80.03,14.27 83.83,14.34 94.66,15.02 94.82,15.04 98.66,15.11 98.84,15.12 109.56,15.77 109.72,15.78 113.47,15.84 124.00,16.43 124.37,16.45 127.95,16.64 128.33,16.66 138.70,17.14 138.87,17.16 142.72,17.37 142.89,17.37 147.33,17.55"/>
        <lane id="16_5" index="5" disallow="bus truck rail_fast" speed="36.11" length="102.70" width="3.47" customShape="1" shape="45.92,15.93 50.09,16.22 50.41,16.23 50.58,16.23 54.14,16.31 54.61,16.33 65.22,16.98 65.56,16.99 65.69,16.99 69.26,17.06 69.75,17.09 79.70,17.79 80.02,17.80 80.19,17.80 83.75,17.88 84.21,17.90 94.70,18.41 95.05,18.43 95.15,18.43 98.72,18.50 99.19,18.52 109.35,19.20 109.66,19.21 109.83,19.22 113.39,19.30 113.85,19.31 123.81,19.84 124.33,19.87 127.77,20.05 128.26,20.08 138.57,20.62 139.09,20.64 142.53,20.83 142.98,20.85 147.19,21.03"/>
    </edge>
    <edge id="17" from="4" to="2" priority="1" spreadType="center" length="84.21">
        <lane id="17_0" index="0" disallow="bus truck rail_fast" speed="36.11" length="84.21" width="3.64" customShape="1" shape="-38.57,-8.33 -38.34,-8.30 -28.42,-7.14 -20.23,-6.35 -13.63,-5.78 -3.71,-4.92 -1.57,-4.75 9.50,-3.89 24.82,-2.67 25.23,-2.63 32.91,-2.14 37.49,-1.89 43.85,-1.55"/>
    </edge>
    <edge id="20" from="1" to="2" priority="1" spreadType="center" length="82.73">
        <lane id="20_0" index="0" disallow="bus truck rail_fast" speed="36.11" length="82.73" width="3.45" customShape="1" shape="-38.45,-0.32 -37.86,-0.32 -27.59,-0.14 -23.63,-0.14 -17.42,-0.03 -12.63,0.09 -8.67,0.18 1.90,0.51 2.69,0.53 5.89,0.61 15.75,0.94 16.83,0.99 20.81,1.06 24.92,1.22 31.29,1.58 35.24,1.73 37.28,1.85 43.66,2.19"/>
        <lane id="20_1" index="1" disallow="bus truck rail_fast" speed="36.11" length="82.73" width="3.24" customShape="1" shape="-38.40,3.12 -37.95,3.12 -30.43,3.29 -27.58,3.30 -26.54,3.28 -23.79,3.31 -15.63,3.54 -12.71,3.60 -11.68,3.62 -8.78,3.69 -1.15,3.94 1.84,4.02 2.78,4.04 5.72,4.14 13.97,4.45 16.77,4.52 17.91,4.54 20.66,4.63 28.40,5.00 31.14,5.11 32.31,5.13 35.00,5.23 43.09,5.65 43.47,5.67"/>
        <lane id="20_2" index="2" disallow="rail_fast" speed="36.11" length="82.73" width="3.19" customShape="1" shape="-38.35,6.51 -34.61,6.51 -30.52,6.60 -26.62,6.62 -23.55,6.70 -19.59,6.72 -15.74,6.86 -11.80,6.97 -8.28,7.09 -4.31,7.19 -1.27,7.28 2.67,7.38 6.34,7.52 10.29,7.63 13.85,7.78 17.77,7.89 21.21,8.04 25.17,8.15 28.16,8.31 32.07,8.49 35.72,8.70 39.67,8.84 42.92,8.99 43.29,9.01"/>
        <lane id="20_3" index="3" disallow="bus rail_fast" speed="36.11" length="82.73" width="3.21" customShape="1" shape="-38.34,9.90 -34.61,9.84 -34.33,9.85 -23.64,10.05 -19.74,10.06 -19.49,10.07 -8.71,10.43 -8.36,10.44 -4.78,10.50 -4.42,10.52 6.00,10.83 6.23,10.84 9.95,10.91 10.12,10.91 20.87,11.34 21.11,11.35 24.80,11.42 24.96,11.43 35.55,12.05 35.66,12.05 39.56,12.14 39.72,12.14 43.11,12.35"/>
        <lane id="20_4" index="4" disallow="bus truck rail_fast" speed="36.11" length="82.73" width="3.47" customShape="1" shape="-38.34,13.36 -38.08,13.36 -34.34,13.30 -34.01,13.31 -23.55,13.48 -23.16,13.49 -19.60,13.56 -19.18,13.57 -8.82,13.87 -8.43,13.88 -4.85,13.95 -4.44,13.96 5.90,14.25 6.30,14.26 9.88,14.33 10.31,14.34 20.73,14.77 21.12,14.78 24.73,14.86 25.18,14.87 35.59,15.41 35.98,15.42 39.61,15.50 40.09,15.53 42.93,15.72"/>
    </edge>

    <junction id="1" type="dead_end" x="-38.34" y="6.52" incLanes="" intLanes="" shape="-38.34,15.10 -38.35,-2.05"/>
    <junction id="2" type="priority" x="44.80" y="9.07" incLanes="17_0 20_0 20_1 20_2 20_3 20_4" intLanes=":2_0_0 :2_1_0 :2_1_1 :2_1_2 :2_1_3 :2_1_4" shape="45.83,17.66 46.96,-3.22 43.95,-3.37 43.76,0.27 43.75,0.47 42.83,17.46">
        <request index="0" response="000000" foes="000000" cont="0"/>
        <request index="1" response="000000" foes="000000" cont="0"/>
        <request index="2" response="000000" foes="000000" cont="0"/>
        <request index="3" response="000000" foes="000000" cont="0"/>
        <request index="4" response="000000" foes="000000" cont="0"/>
        <request index="5" response="000000" foes="000000" cont="0"/>
    </junction>
    <junction id="3" type="dead_end" x="147.54" y="12.49" incLanes="16_0 16_1 16_2 16_3 16_4 16_5" intLanes="" shape="148.00,1.92 147.10,22.77"/>
    <junction id="4" type="dead_end" x="-38.57" y="-8.32" incLanes="" intLanes="" shape="-38.77,-6.51 -38.37,-10.14"/>

    <connection from="17" to="16" fromLane="0" toLane="0" contPos="-4.00" via=":2_0_0" dir="s" state="M"/>
    <connection from="20" to="16" fromLane="0" toLane="1" contPos="-4.00" via=":2_1_0" dir="s" state="M"/>
    <connection from="20" to="16" fromLane="1" toLane="2" contPos="-4.00" via=":2_1_1" dir="s" state="M"/>
    <connection from="20" to="16" fromLane="2" toLane="3" contPos="-4.00" via=":2_1_2" dir="s" state="M"/>
    <connection from="20" to="16" fromLane="3" toLane="4" contPos="-4.00" via=":2_1_3" dir="s" state="M"/>
    <connection from="20" to="16" fromLane="4" toLane="5" contPos="-4.00" via=":2_1_4" dir="s" state="M"/>

    <connection from=":2_0" to="16" fromLane="0" toLane="0" dir="s" state="M"/>
    <connection from=":2_1" to="16" fromLane="0" toLane="1" dir="s" state="M"/>
    <connection from=":2_1" to="16" fromLane="1" toLane="2" dir="s" state="M"/>
    <connection from=":2_1" to="16" fromLane="2" toLane="3" dir="s" state="M"/>
    <connection from=":2_1" to="16" fromLane="3" toLane="4" dir="s" state="M"/>
    <connection from=":2_1" to="16" fromLane="4" toLane="5" dir="s" state="M"/>

</net>
