<routes>
	<vehicle depart="0.1" departLane="0" departPos="21.262776220780015" departSpeed="18.14" id="358" type="passenger">
		<route edges="17 16"/>
	</vehicle>
	<vehicle depart="0.1" departLane="3" departPos="82.96780672034595" departSpeed="11.17" id="364" type="passenger">
		<route edges="20 16"/>
	</vehicle>
	<vehicle depart="0.1" departLane="0" departPos="83.65071940396194" departSpeed="13.52" id="366" type="passenger">
		<route edges="20 16"/>
	</vehicle>
	<vehicle depart="0.1" departLane="0" departPos="25.537391676556396" departSpeed="16.48" id="367" type="passenger">
		<route edges="20 17 16"/>
	</vehicle>
	<vehicle depart="0.1" departLane="2" departPos="59.107466499604286" departSpeed="10.72" id="368" type="passenger">
		<route edges="20 16"/>
	</vehicle>
	<vehicle depart="0.1" departLane="3" departPos="55.152270885612914" departSpeed="11.83" id="372" type="passenger">
		<route edges="20 16"/>
	</vehicle>
	<vehicle depart="0.1" departLane="2" departPos="50.826534053817404" departSpeed="11.19" id="374" type="passenger">
		<route edges="20 16"/>
	</vehicle>
	<vehicle depart="0.1" departLane="3" departPos="82.96780672034595" departSpeed="10.78" id="379" type="passenger">
		<route edges="20 16"/>
	</vehicle>
	<vehicle depart="0.1" departLane="2" departPos="76.92653023857892" departSpeed="12.11" id="380" type="passenger">
		<route edges="20 16"/>
	</vehicle>
	<vehicle depart="0.1" departLane="2" departPos="30.103054153128486" departSpeed="12.12" id="384" type="passenger">
		<route edges="20 16"/>
	</vehicle>
	<vehicle depart="0.1" departLane="4" departPos="75.4362137348708" departSpeed="3.04" id="417" type="passenger">
		<route edges="20 16"/>
	</vehicle>
	<vehicle depart="0.1" departLane="4" departPos="50.393042470624565" departSpeed="3.04" id="422" type="passenger">
		<route edges="20 16"/>
	</vehicle>
	<vehicle depart="0.1" departLane="5" departPos="0" departSpeed="2.46" id="427" type="passenger">
		<route edges="16"/>
	</vehicle>
	<vehicle depart="0.1" departLane="4" departPos="58.3453417607291" departSpeed="4.58" id="442" type="passenger">
		<route edges="20 16"/>
	</vehicle>
</routes>
