<routes>
	<vehicle depart="0.1" departLane="0" departPos="66.82160649372466" departSpeed="0.0" id="312" type="bicycle">
		<route edges="148 92"/>
	</vehicle>
	<vehicle depart="0.1" departLane="0" departPos="12.786109894660665" departSpeed="5.8825276" id="345" type="bus">
		<route edges=":37_2 149"/>
	</vehicle>
	<vehicle depart="0.1" departLane="0" departPos="75.23861392696642" departSpeed="3.7885116e-05" id="38" type="passenger">
		<route edges="146 92"/>
	</vehicle>
	<vehicle depart="0.1" departLane="0" departPos="67.83059589924935" departSpeed="0.00057928056" id="39" type="passenger">
		<route edges="146 92"/>
	</vehicle>
	<vehicle depart="0.1" departLane="0" departPos="51.69180341277149" departSpeed="0.00075808557" id="311" type="passenger">
		<route edges="148 92"/>
	</vehicle>
	<vehicle depart="0.1" departLane="0" departPos="66.48401566830888" departSpeed="0.0" id="314" type="passenger">
		<route edges="148 92"/>
	</vehicle>
	<vehicle depart="0.1" departLane="0" departPos="82.51652394600224" departSpeed="0.0" id="315" type="passenger">
		<route edges="146 92"/>
	</vehicle>
	<vehicle depart="0.1" departLane="0" departPos="59.08823625967819" departSpeed="0.00015265023" id="316" type="passenger">
		<route edges="148 92"/>
	</vehicle>
	<vehicle depart="0.1" departLane="0" departPos="28.19940367226653" departSpeed="10.977321" id="318" type="passenger">
		<route edges="151 177"/>
	</vehicle>
	<vehicle depart="0.1" departLane="0" departPos="44.18976703769517" departSpeed="0.0019835833" id="321" type="passenger">
		<route edges="148 92"/>
	</vehicle>
	<vehicle depart="0.1" departLane="0" departPos="7.371595535961206" departSpeed="8.7585757" id="324" type="passenger">
		<route edges="151 177"/>
	</vehicle>
	<vehicle depart="0.1" departLane="0" departPos="2.5" departSpeed="0.0" id="325" type="passenger">
		<route edges="143 151"/>
	</vehicle>
	<vehicle depart="0.1" departLane="0" departPos="36.73839870516073" departSpeed="0.0034070995" id="329" type="passenger">
		<route edges="148 92"/>
	</vehicle>
	<vehicle depart="0.1" departLane="0" departPos="79.63761727613046" departSpeed="7.6518664" id="330" type="passenger">
		<route edges="145 151 177"/>
	</vehicle>
	<vehicle depart="0.1" departLane="0" departPos="8.458921173219583" departSpeed="0.0" id="331" type="passenger">
		<route edges="140 143"/>
	</vehicle>
	<vehicle depart="0.1" departLane="0" departPos="62.32054320430712" departSpeed="9.3048837" id="337" type="passenger">
		<route edges="145 151 177"/>
	</vehicle>
	<vehicle depart="0.1" departLane="0" departPos="64.04161485294662" departSpeed="15.676479" id="338" type="passenger">
		<route edges="152 146"/>
	</vehicle>
	<vehicle depart="0.1" departLane="0" departPos="29.685824873524822" departSpeed="0.0054623771" id="339" type="passenger">
		<route edges="148 92"/>
	</vehicle>
	<vehicle depart="0.1" departLane="0" departPos="22.751650337117567" departSpeed="0.010487232" id="344" type="passenger">
		<route edges="148 92"/>
	</vehicle>
	<vehicle depart="0.1" departLane="0" departPos="15.601049234826906" departSpeed="0.027347999" id="350" type="passenger">
		<route edges="148 92"/>
	</vehicle>
	<vehicle depart="0.1" departLane="0" departPos="48.44408055512384" departSpeed="6.6936427" id="356" type="passenger">
		<route edges="91 145 139"/>
	</vehicle>
	<vehicle depart="0.1" departLane="0" departPos="8.332611506929908" departSpeed="0.070738919" id="358" type="passenger">
		<route edges="148 92"/>
	</vehicle>
	<vehicle depart="0.1" departLane="0" departPos="31.648064519913387" departSpeed="8.1010986" id="361" type="passenger">
		<route edges="91 145 139"/>
	</vehicle>
	<vehicle depart="0.1" departLane="0" departPos="15.258167884753393" departSpeed="5.4111449" id="363" type="passenger">
		<route edges="91 145 139"/>
	</vehicle>
	<vehicle depart="0.1" departLane="0" departPos="88.24360105118707" departSpeed="16.298751" id="328" type="truck">
		<route edges="152 146"/>
	</vehicle>
</routes>
