<routes>
	<vehicle depart="0.1" departLane="0" departPos="31.52142170430765" departSpeed="16.896662" id="36" type="passenger">
		<route edges=":80_1 46627 46624"/>
	</vehicle>
	<vehicle depart="0.1" departLane="0" departPos="7.174412192021185" departSpeed="0.0" id="311" type="passenger">
		<route edges="46631 46107"/>
	</vehicle>
	<vehicle depart="0.1" departLane="0" departPos="33.604974335380305" departSpeed="0.00043311242" id="312" type="passenger">
		<route edges=":80_11 46631"/>
	</vehicle>
	<vehicle depart="0.1" departLane="0" departPos="12.528777098102157" departSpeed="8.6147579" id="349" type="passenger">
		<route edges="46801 46631 46107"/>
	</vehicle>
	<vehicle depart="0.1" departLane="0" departPos="28.563553350776733" departSpeed="11.278464" id="353" type="passenger">
		<route edges=":81_0 46551 48138"/>
	</vehicle>
	<vehicle depart="0.1" departLane="0" departPos="14.689320994938358" departSpeed="0.43276183" id="33" type="motorcycle">
		<route edges="46802 46551"/>
	</vehicle>
</routes>
