<routes>
	<vehicle depart="0.1" departLane="0" departPos="32.52425141132124" departSpeed="16.968996" id="33" type="passenger">
		<route edges=":56_0 66717"/>
	</vehicle>
</routes>
