<routes>
	<vehicle depart="0.1" departLane="0" departPos="48.873189387880956" departSpeed="0.0" id="39" type="bicycle">
		<route edges="2709 3833"/>
	</vehicle>
	<vehicle depart="0.1" departLane="0" departPos="54.87619337663212" departSpeed="0.0" id="38" type="passenger">
		<route edges="2709 3833"/>
	</vehicle>
	<vehicle depart="0.1" departLane="0" departPos="47.37241320361765" departSpeed="0.0" id="310" type="passenger">
		<route edges="2709 3833"/>
	</vehicle>
	<vehicle depart="0.1" departLane="0" departPos="50.92098895473025" departSpeed="0.0" id="319" type="passenger">
		<route edges="3832 2708"/>
	</vehicle>
	<vehicle depart="0.1" departLane="0" departPos="43.84375582403433" departSpeed="0.0" id="323" type="passenger">
		<route edges="3832 2708"/>
	</vehicle>
	<vehicle depart="0.1" departLane="0" departPos="69.88387070307891" departSpeed="0.0" id="324" type="passenger">
		<route edges="2709 3833"/>
	</vehicle>
	<vehicle depart="0.1" departLane="0" departPos="62.380032259597655" departSpeed="0.0" id="327" type="passenger">
		<route edges="2709 3833"/>
	</vehicle>
	<vehicle depart="0.1" departLane="0" departPos="42.36355167558245" departSpeed="7.3993378" id="341" type="passenger">
		<route edges="2711 2708"/>
	</vehicle>
	<vehicle depart="0.1" departLane="0" departPos="7.142292205796483" departSpeed="7.9923366" id="342" type="passenger">
		<route edges=":38_8 3833"/>
	</vehicle>
	<vehicle depart="0.1" departLane="0" departPos="18.10939928934517" departSpeed="11.277441" id="347" type="passenger">
		<route edges="2711 2708"/>
	</vehicle>
</routes>
