<!-- generated on 2020-12-18 16:19:33.698559 by ipykernel_launcher.py v1_2_0+5214-53edc58fcd
-->
<connections>
	<connection contPos="-4.0" from="1348" fromLane="0" keepClear="true" to="1351" toLane="0"/>
	<connection contPos="-4.0" from="1350" fromLane="1" keepClear="true" to="1353" toLane="1"/>
	<connection contPos="-4.0" from="1350" fromLane="0" keepClear="true" to="1353" toLane="0"/>
	<connection contPos="-4.0" from="1350" fromLane="0" keepClear="true" to="1354" toLane="0"/>
	<connection contPos="-4.0" from="1351" fromLane="0" keepClear="true" to="1346" toLane="0"/>
	<connection contPos="-4.0" from="1353" fromLane="1" keepClear="true" to="1346" toLane="1"/>
	<connection contPos="-4.0" from="1353" fromLane="0" keepClear="true" to="1346" toLane="0"/>
	<connection contPos="-4.0" from="1354" fromLane="0" keepClear="true" to="1347" toLane="0"/>
</connections>
