<!-- generated on 2020-12-18 16:19:33.542066 by ipykernel_launcher.py v1_2_0+5214-53edc58fcd
-->
<edges>
	<edge from="1" function="normal" id="1346" length="69.67244624062309" numLanes="2" priority="1" speed="36.11111111111111" spreadType="center" to="2">
		<lane allow="moped bicycle pedestrian custom1 trailer evehicle rail_urban ship private truck vip custom2 authority delivery rail_electric taxi tram army hov coach motorcycle passenger bus rail emergency" index="0" length="69.67244624062309" shape="-23.6089,8.69575 -58.3312,11.49895 -93.0554,14.302299999999999" speed="36.11111111111111" width="2.499688550599854"/>
		<lane allow="moped bicycle pedestrian custom1 trailer evehicle rail_urban ship private truck vip custom2 authority delivery rail_electric taxi tram army hov coach motorcycle passenger bus rail emergency" index="1" length="69.67244624062309" shape="-23.80455,6.20355 -58.5324,9.0071 -93.25655,11.81045" speed="36.11111111111111" width="2.4999097343704237"/>
	</edge>
	<edge from="3" function="normal" id="1347" length="225.72058024964804" numLanes="1" priority="1" speed="36.11111111111111" spreadType="center" to="4">
		<lane allow="moped bicycle pedestrian custom1 trailer evehicle rail_urban ship private truck vip custom2 authority delivery rail_electric taxi tram army hov coach motorcycle passenger bus rail emergency" index="0" length="225.72058024964804" shape="-14.916599999999999,14.4784 -0.82765,161.274 5.3271,239.28199999999998" speed="36.11111111111111" width="2.4999424793382756"/>
	</edge>
	<edge from="5" function="normal" id="1348" length="225.67186796781044" numLanes="1" priority="1" speed="36.11111111111111" spreadType="center" to="6">
		<lane allow="moped bicycle pedestrian custom1 trailer evehicle rail_urban ship private truck vip custom2 authority delivery rail_electric taxi tram army hov coach motorcycle passenger bus rail emergency" index="0" length="225.67186796781044" shape="2.8348500000000003,239.47875 -3.3182,161.49065000000002 -17.40275,14.723500000000001" speed="36.11111111111111" width="2.500030465814368"/>
	</edge>
	<edge from="7" function="normal" id="1350" length="47.05947360629595" numLanes="2" priority="1" speed="36.11111111111111" spreadType="center" to="8">
		<lane allow="moped bicycle pedestrian custom1 trailer evehicle rail_urban ship private truck vip custom2 authority delivery rail_electric taxi tram army hov coach motorcycle passenger bus rail emergency" index="0" length="47.05947360629595" shape="37.2693,3.4246499999999997 13.824200000000001,5.4718 -9.61185,7.51755" speed="36.11111111111111" width="2.497483265209199"/>
		<lane allow="moped bicycle pedestrian custom1 trailer evehicle rail_urban ship private truck vip custom2 authority delivery rail_electric taxi tram army hov coach motorcycle passenger bus rail emergency" index="1" length="47.05947360629595" shape="37.05185,0.9341499999999999 13.60675,2.9812499999999997 -9.849,5.0299" speed="36.11111111111111" width="2.499979299914301"/>
	</edge>
	<edge from="6" function="normal" id="1351" length="9.845753665996689" numLanes="1" priority="1" speed="36.11111111111111" spreadType="center" to="1">
		<lane allow="moped bicycle pedestrian custom1 trailer evehicle rail_urban ship private vip custom2 authority delivery rail_electric taxi tram army hov coach motorcycle passenger rail emergency" index="0" length="9.845753665996689" shape="-17.40275,14.723500000000001 -17.7198,12.90695 -18.11365,11.7395 -18.7062,10.6605 -19.536050000000003,9.753250000000001 -20.5835,9.110149999999999 -21.7631,8.76185 -22.991149999999998,8.6676 -23.6089,8.69575" speed="36.11111111111111" width="2.499688550599854"/>
	</edge>
	<edge from="8" function="normal" id="1353" length="14.004814549460992" numLanes="2" priority="1" speed="36.11111111111111" spreadType="center" to="1">
		<lane allow="moped bicycle pedestrian custom1 trailer evehicle rail_urban ship private truck vip custom2 authority delivery rail_electric taxi tram army hov coach motorcycle passenger bus rail emergency" index="0" length="14.004814549460992" shape="-9.61185,7.51755 -16.61385,8.1073 -23.6089,8.69575" speed="36.11111111111111" width="2.497483265209199"/>
		<lane allow="moped bicycle pedestrian custom1 trailer evehicle rail_urban ship private truck vip custom2 authority delivery rail_electric taxi tram army hov coach motorcycle passenger bus rail emergency" index="1" length="14.004814549460992" shape="-9.849,5.0299 -16.8233,5.616099999999999 -23.80455,6.20355" speed="36.11111111111111" width="2.500001919999263"/>
	</edge>
	<edge from="8" function="normal" id="1354" length="10.047858944051423" numLanes="1" priority="1" speed="36.11111111111111" spreadType="center" to="3">
		<lane allow="moped bicycle pedestrian custom1 trailer evehicle rail_urban ship private vip custom2 authority delivery rail_electric taxi tram army hov coach motorcycle passenger rail emergency" index="0" length="10.047858944051423" shape="-9.61185,7.51755 -11.469100000000001,7.875500000000001 -12.6175,8.380849999999999 -13.6044,9.15325 -14.328,10.176449999999999 -14.76475,11.352250000000002 -14.95495,12.59355 -14.916599999999999,14.4784" speed="36.11111111111111" width="2.497483265209199"/>
	</edge>
</edges>
