<routes>
	<vehicle depart="0.1" departLane="0" departPos="2.5" departSpeed="0.2530673" id="36" type="passenger">
		<route edges=":32_4 10692"/>
	</vehicle>
	<vehicle depart="0.1" departLane="0" departPos="19.004689209744832" departSpeed="2.417471" id="37" type="passenger">
		<route edges=":32_8 10692"/>
	</vehicle>
	<vehicle depart="0.1" departLane="0" departPos="13.646174475451534" departSpeed="0.0051685243" id="319" type="passenger">
		<route edges="10701 10721"/>
	</vehicle>
	<vehicle depart="0.1" departLane="0" departPos="25.188067624002443" departSpeed="12.309792" id="328" type="passenger">
		<route edges=":32_11 10721 10808 10800"/>
	</vehicle>
	<vehicle depart="0.1" departLane="0" departPos="6.008279179069076" departSpeed="11.971678" id="331" type="passenger">
		<route edges=":32_9 10728"/>
	</vehicle>
	<vehicle depart="0.1" departLane="0" departPos="44.32835141790379" departSpeed="11.23668" id="336" type="passenger">
		<route edges="10691 10700"/>
	</vehicle>
	<vehicle depart="0.1" departLane="0" departPos="19.047219134079402" departSpeed="8.4128336" id="338" type="passenger">
		<route edges="10691 10728"/>
	</vehicle>
</routes>
