<routes>
	<vehicle depart="0.1" departLane="0" departPos="0" departSpeed="20.7115" id="32" type="passenger">
		<route edges="61"/>
	</vehicle>
	<vehicle depart="0.1" departLane="0" departPos="38.10267031537171" departSpeed="16.6254" id="33" type="passenger">
		<route edges="68 61"/>
	</vehicle>
	<vehicle depart="0.1" departLane="0" departPos="0" departSpeed="18.6166" id="36" type="passenger">
		<route edges="67 61"/>
	</vehicle>
	<vehicle depart="0.1" departLane="0" departPos="0" departSpeed="22.5401" id="38" type="passenger">
		<route edges="62 56 67 61"/>
	</vehicle>
	<vehicle depart="0.1" departLane="0" departPos="0" departSpeed="17.4122" id="310" type="passenger">
		<route edges="68 61"/>
	</vehicle>
	<vehicle depart="0.1" departLane="0" departPos="116.05605375830643" departSpeed="24.9173" id="311" type="passenger">
		<route edges="59 62 56 67 61"/>
	</vehicle>
	<vehicle depart="0.1" departLane="1" departPos="53.49001534356576" departSpeed="23.9025" id="312" type="passenger">
		<route edges="68 61"/>
	</vehicle>
	<vehicle depart="0.1" departLane="0" departPos="0" departSpeed="18.0894" id="313" type="passenger">
		<route edges="66 68 61"/>
	</vehicle>
	<vehicle depart="0.1" departLane="1" departPos="0" departSpeed="25.1432" id="314" type="passenger">
		<route edges="68 61"/>
	</vehicle>
	<vehicle depart="0.1" departLane="0" departPos="0" departSpeed="25.2441" id="315" type="passenger">
		<route edges="59 62 56 67 61"/>
	</vehicle>
	<vehicle depart="0.1" departLane="1" departPos="0" departSpeed="22.6879" id="317" type="passenger">
		<route edges="66 68 61"/>
	</vehicle>
	<vehicle depart="0.1" departLane="0" departPos="188.1033049261057" departSpeed="18.4407" id="318" type="passenger">
		<route edges="58 66 68 61"/>
	</vehicle>
	<vehicle depart="0.1" departLane="0" departPos="0" departSpeed="22.0817" id="319" type="passenger">
		<route edges="59 62 56 67 61"/>
	</vehicle>
	<vehicle depart="0.1" departLane="1" departPos="211.7002123341352" departSpeed="22.4643" id="320" type="passenger">
		<route edges="58 66 55 68 61"/>
	</vehicle>
	<vehicle depart="0.1" departLane="0" departPos="159.78567020798363" departSpeed="19.0728" id="321" type="passenger">
		<route edges="58 66 68 68 61"/>
	</vehicle>
	<vehicle depart="0.1" departLane="1" departPos="182.7492366439609" departSpeed="22.3207" id="322" type="passenger">
		<route edges="58 66 68 61"/>
	</vehicle>
	<vehicle depart="0.1" departLane="0" departPos="81.84639537713683" departSpeed="17.7197" id="323" type="passenger">
		<route edges="58 66 55 68 61"/>
	</vehicle>
	<vehicle depart="0.1" departLane="0" departPos="18.219006256467807" departSpeed="18.0224" id="324" type="passenger">
		<route edges="65 59 62 56 67 61"/>
	</vehicle>
	<vehicle depart="0.1" departLane="1" departPos="83.0564369139924" departSpeed="17.9936" id="325" type="passenger">
		<route edges="58 66 55 68 61"/>
	</vehicle>
	<vehicle depart="0.1" departLane="1" departPos="56.34755157123304" departSpeed="14.8773" id="327" type="passenger">
		<route edges="58 66 55 68 61"/>
	</vehicle>
	<vehicle depart="0.1" departLane="0" departPos="0" departSpeed="9.3131" id="329" type="passenger">
		<route edges="53 65 59 62 56 67 61"/>
	</vehicle>
	<vehicle depart="0.1" departLane="0" departPos="0" departSpeed="9.2962" id="331" type="passenger">
		<route edges="58 66 55 68 61"/>
	</vehicle>
	<vehicle depart="0.1" departLane="0" departPos="0" departSpeed="6.4143" id="333" type="passenger">
		<route edges="53 65 59 62 56 67 61"/>
	</vehicle>
	<vehicle depart="0.1" departLane="1" departPos="0" departSpeed="5.281" id="335" type="passenger">
		<route edges="58 66 55 68 61"/>
	</vehicle>
</routes>
