<!-- generated on Tue Feb  9 22:04:35 2021 by Eclipse SUMO netconvert Version 1.8.0
<configuration xmlns:xsi="http://www.w3.org/2001/XMLSchema-instance" xsi:noNamespaceSchemaLocation="http://sumo.dlr.de/xsd/netconvertConfiguration.xsd">

    <input>
        <node-files value="./converted_scenarios/scenario-factory/DEU_Guetersloh-8_1_I-1-1/DEU_Guetersloh-8_1_I-1-1.nod.xml"/>
        <edge-files value="./converted_scenarios/scenario-factory/DEU_Guetersloh-8_1_I-1-1/DEU_Guetersloh-8_1_I-1-1.edg.xml"/>
        <connection-files value="./converted_scenarios/scenario-factory/DEU_Guetersloh-8_1_I-1-1/DEU_Guetersloh-8_1_I-1-1.con.xml"/>
        <tllogic-files value="./converted_scenarios/scenario-factory/DEU_Guetersloh-8_1_I-1-1/DEU_Guetersloh-8_1_I-1-1.tll.xml"/>
        <type-files value="/home/zen/commonroad-interactive-benchmarks/install/commonroad-map-tool/crmapconverter/sumo_map/templates/DEU.typ.xml"/>
    </input>

    <output>
        <output-file value="./converted_scenarios/scenario-factory/DEU_Guetersloh-8_1_I-1-1/DEU_Guetersloh-8_1_I-1-1.net.xml"/>
    </output>

    <processing>
        <geometry.remove.keep-edges.explicit value="true"/>
        <geometry.avoid-overlap value="true"/>
        <offset.disable-normalization value="true"/>
    </processing>

    <junctions>
        <no-turnarounds value="true"/>
        <junctions.internal-link-detail value="20"/>
    </junctions>

    <report>
        <aggregate-warnings value="5"/>
    </report>

    <random_number>
        <seed value="1234"/>
    </random_number>

</configuration>
--><net xmlns:xsi="http://www.w3.org/2001/XMLSchema-instance" version="1.6" junctionCornerDetail="5" junctionLinkDetail="20" limitTurnSpeed="5.50" xsi:noNamespaceSchemaLocation="http://sumo.dlr.de/xsd/net_file.xsd">

    <location netOffset="0.00,0.00" convBoundary="803.16,46.35,924.07,162.86" origBoundary="802.03,46.35,924.07,162.86" projParameter="!"/>

    <type id="highway.bridleway" priority="1" speed="2.78" allow="pedestrian" oneway="1" width="2.00"/>
    <type id="highway.bus_guideway" priority="1" speed="27.78" allow="bus" oneway="1"/>
    <type id="highway.cycleway" priority="1" speed="8.33" allow="bicycle" oneway="0" width="1.00"/>
    <type id="highway.footway" priority="1" speed="2.78" allow="pedestrian" oneway="1" width="2.00"/>
    <type id="highway.ford" priority="1" speed="2.78" allow="army" oneway="0"/>
    <type id="highway.living_street" priority="2" speed="2.78" disallow="tram rail_urban rail rail_electric rail_fast ship" oneway="0"/>
    <type id="highway.motorway" priority="14" speed="39.44" allow="private emergency authority army vip passenger hov taxi bus coach delivery truck trailer motorcycle evehicle custom1 custom2" oneway="1"/>
    <type id="highway.motorway_link" priority="9" speed="22.22" allow="private emergency authority army vip passenger hov taxi bus coach delivery truck trailer motorcycle evehicle custom1 custom2" oneway="1"/>
    <type id="highway.path" priority="1" speed="2.78" allow="pedestrian bicycle" oneway="0" width="2.00"/>
    <type id="highway.pedestrian" priority="1" speed="2.78" allow="pedestrian" oneway="1" width="2.00"/>
    <type id="highway.primary" priority="12" speed="27.78" disallow="pedestrian tram rail_urban rail rail_electric rail_fast ship" oneway="0"/>
    <type id="highway.primary_link" priority="7" speed="22.22" disallow="pedestrian tram rail_urban rail rail_electric rail_fast ship" oneway="0"/>
    <type id="highway.raceway" priority="15" speed="83.33" allow="vip" oneway="0"/>
    <type id="highway.residential" priority="3" speed="13.89" disallow="pedestrian tram rail_urban rail rail_electric rail_fast ship" oneway="0"/>
    <type id="highway.secondary" priority="11" speed="27.78" disallow="pedestrian tram rail_urban rail rail_electric rail_fast ship" oneway="0"/>
    <type id="highway.secondary_link" priority="6" speed="22.22" disallow="pedestrian tram rail_urban rail rail_electric rail_fast ship" oneway="0"/>
    <type id="highway.service" priority="1" speed="5.56" allow="pedestrian delivery bicycle" oneway="0"/>
    <type id="highway.stairs" priority="1" speed="1.39" allow="pedestrian" oneway="1" width="2.00"/>
    <type id="highway.step" priority="1" speed="1.39" allow="pedestrian" oneway="1" width="2.00"/>
    <type id="highway.steps" priority="1" speed="1.39" allow="pedestrian" oneway="1" width="2.00"/>
    <type id="highway.tertiary" priority="10" speed="22.22" disallow="pedestrian tram rail_urban rail rail_electric rail_fast ship" oneway="0"/>
    <type id="highway.tertiary_link" priority="5" speed="22.22" disallow="pedestrian tram rail_urban rail rail_electric rail_fast ship" oneway="0"/>
    <type id="highway.track" priority="1" speed="5.56" allow="pedestrian motorcycle moped bicycle" oneway="0"/>
    <type id="highway.trunk" priority="13" speed="27.78" disallow="pedestrian bicycle tram rail_urban rail rail_electric rail_fast ship" oneway="0"/>
    <type id="highway.trunk_link" priority="8" speed="22.22" disallow="pedestrian bicycle tram rail_urban rail rail_electric rail_fast ship" oneway="0"/>
    <type id="highway.unclassified" priority="4" speed="13.89" disallow="pedestrian tram rail_urban rail rail_electric rail_fast ship" oneway="0"/>
    <type id="highway.unsurfaced" priority="1" speed="8.33" disallow="tram rail_urban rail rail_electric rail_fast ship" oneway="0"/>
    <type id="railway.highspeed" priority="21" speed="69.44" allow="rail_fast" oneway="1"/>
    <type id="railway.light_rail" priority="19" speed="27.78" allow="rail_urban" oneway="1"/>
    <type id="railway.preserved" priority="16" speed="27.78" allow="rail" oneway="1"/>
    <type id="railway.rail" priority="20" speed="44.44" allow="rail" oneway="1"/>
    <type id="railway.subway" priority="18" speed="27.78" allow="rail_urban" oneway="1"/>
    <type id="railway.tram" priority="17" speed="13.89" allow="tram" oneway="1"/>

    <edge id=":12_0" function="internal">
        <lane id=":12_0_0" index="0" disallow="pedestrian tram rail_urban rail rail_electric rail_fast ship" speed="36.11" length="3.00" width="3.50" shape="894.26,67.19 892.10,69.27"/>
        <lane id=":12_0_1" index="1" disallow="pedestrian tram rail_urban rail rail_electric rail_fast ship" speed="36.11" length="3.00" width="3.50" shape="891.83,64.67 889.67,66.75"/>
    </edge>
    <edge id=":15_0" function="internal">
        <lane id=":15_0_0" index="0" disallow="pedestrian tram rail_urban rail rail_electric rail_fast ship" speed="11.47" length="29.77" width="3.50" shape="875.24,110.29 873.18,108.19 871.35,106.75 869.32,105.60 867.69,104.97 865.99,104.56 864.25,104.40 861.92,104.54 859.65,105.05 857.46,105.84 854.85,107.15 851.91,109.05 849.15,111.22"/>
    </edge>
    <edge id=":15_1" function="internal">
        <lane id=":15_1_0" index="0" disallow="pedestrian tram rail_urban rail rail_electric rail_fast ship" speed="12.32" length="33.63" width="3.50" shape="875.24,110.30 872.02,106.27 869.78,102.97 868.11,99.98 866.97,97.37 866.13,94.65 865.75,92.41 865.69,90.13 865.99,87.87 866.48,86.23 867.45,84.17 868.74,82.30 870.27,80.62"/>
    </edge>
    <edge id=":15_2" function="internal">
        <lane id=":15_2_0" index="0" disallow="pedestrian tram rail_urban rail rail_electric rail_fast ship" speed="10.72" length="25.28" width="3.50" shape="875.14,85.64 873.61,87.36 872.65,88.80 871.92,90.35 871.44,92.01 871.24,93.72 871.30,95.44 871.75,97.69 872.52,99.86 873.82,102.42 875.72,105.30 877.87,107.99"/>
    </edge>
    <edge id=":15_3" function="internal">
        <lane id=":15_3_0" index="0" disallow="pedestrian tram rail_urban rail rail_electric rail_fast ship" speed="36.11" length="36.48" width="3.50" shape="875.14,85.64 867.79,93.04 857.60,103.47 852.30,108.47 849.15,111.22"/>
        <lane id=":15_3_1" index="1" disallow="pedestrian tram rail_urban rail rail_electric rail_fast ship" speed="36.11" length="36.25" width="3.50" shape="872.71,83.13 865.35,90.53 855.24,100.88 850.01,105.83 846.89,108.55"/>
    </edge>
    <edge id=":15_5" function="internal">
        <lane id=":15_5_0" index="0" disallow="pedestrian tram rail_urban rail rail_electric rail_fast ship" speed="36.11" length="35.91" width="3.50" shape="842.37,103.20 849.08,97.81 861.51,88.26 866.94,83.71 870.27,80.62"/>
    </edge>
    <edge id=":15_6" function="internal">
        <lane id=":15_6_0" index="0" disallow="pedestrian tram rail_urban rail rail_electric rail_fast ship" speed="12.93" length="38.13" width="3.50" shape="844.63,105.87 847.84,103.40 850.78,101.56 853.38,100.30 856.11,99.35 858.37,98.87 860.67,98.68 862.98,98.80 865.24,99.23 867.44,99.96 870.03,101.23 872.44,102.83 875.09,105.06 877.49,107.56 877.87,107.99"/>
    </edge>
    <edge id=":9_0" function="internal">
        <lane id=":9_0_0" index="0" disallow="pedestrian tram rail_urban rail rail_electric rail_fast ship" speed="36.11" length="2.99" width="3.50" shape="887.24,64.23 889.39,62.15"/>
    </edge>

    <edge id="60398" from="9" to="10" priority="3" type="highway.residential" spreadType="center" length="22.75">
        <lane id="60398_0" index="0" disallow="pedestrian tram rail_urban rail rail_electric rail_fast ship" speed="36.11" length="22.75" width="3.50" customShape="1" shape="889.39,62.15 897.04,54.76 905.76,46.35"/>
    </edge>
    <edge id="60400" from="13" to="12" priority="3" type="highway.residential" spreadType="center" length="22.76">
        <lane id="60400_0" index="0" disallow="pedestrian tram rail_urban rail rail_electric rail_fast ship" speed="36.11" length="22.77" width="3.50" customShape="1" shape="910.63,51.37 901.91,59.80 894.26,67.19"/>
        <lane id="60400_1" index="1" disallow="pedestrian tram rail_urban rail rail_electric rail_fast ship" speed="36.11" length="22.76" width="3.50" customShape="1" shape="908.20,48.86 899.48,57.28 891.83,64.67"/>
    </edge>
    <edge id="60404" from="12" to="15" priority="3" type="highway.residential" spreadType="center" length="23.57" shape="891.96,66.97 868.12,102.45">
        <lane id="60404_0" index="0" disallow="pedestrian tram rail_urban rail rail_electric rail_fast ship" speed="36.11" length="23.57" width="3.50" customShape="1" shape="892.10,69.27 884.25,76.85 875.32,85.48 875.23,85.56 875.14,85.64"/>
        <lane id="60404_1" index="1" disallow="pedestrian tram rail_urban rail rail_electric rail_fast ship" speed="36.11" length="23.59" width="3.50" customShape="1" shape="889.67,66.75 881.82,74.33 872.89,82.96 872.80,83.05 872.70,83.14"/>
    </edge>
    <edge id="60587" from="8" to="15" priority="3" type="highway.residential" spreadType="center" length="70.00" shape="921.42,162.86 864.08,101.44">
        <lane id="60587_0" index="0" disallow="pedestrian tram rail_urban rail rail_electric rail_fast ship" speed="36.11" length="70.00" width="3.50" customShape="1" shape="921.42,162.86 918.84,159.66 910.00,149.35 889.14,126.17 875.22,110.28"/>
    </edge>
    <edge id="60588" from="15" to="3" priority="3" type="highway.residential" spreadType="center" length="70.00" shape="866.64,99.05 924.07,160.57">
        <lane id="60588_0" index="0" disallow="pedestrian tram rail_urban rail rail_electric rail_fast ship" speed="36.11" length="70.00" width="3.50" customShape="1" shape="877.87,107.99 891.80,123.89 912.71,147.13 921.60,157.50 924.07,160.57"/>
    </edge>
    <edge id="61056" from="11" to="15" priority="3" type="highway.residential" spreadType="center" length="52.84" shape="803.16,138.67 863.54,97.29">
        <lane id="61056_0" index="0" disallow="pedestrian tram rail_urban rail rail_electric rail_fast ship" speed="36.11" length="52.86" width="3.50" customShape="1" shape="802.03,137.33 822.20,120.26 842.39,103.19"/>
        <lane id="61056_1" index="1" disallow="pedestrian tram rail_urban rail rail_electric rail_fast ship" speed="36.11" length="52.84" width="3.50" customShape="1" shape="804.29,140.00 824.46,122.94 844.63,105.87"/>
    </edge>
    <edge id="61059" from="15" to="7" priority="3" type="highway.residential" spreadType="center" length="52.84" shape="867.50,103.06 807.68,144.01">
        <lane id="61059_0" index="0" disallow="pedestrian tram rail_urban rail rail_electric rail_fast ship" speed="36.11" length="52.85" width="3.50" customShape="1" shape="849.15,111.22 828.98,128.28 808.80,145.35"/>
        <lane id="61059_1" index="1" disallow="pedestrian tram rail_urban rail rail_electric rail_fast ship" speed="36.11" length="52.84" width="3.50" customShape="1" shape="846.89,108.55 826.72,125.61 806.55,142.68"/>
    </edge>
    <edge id="62149" from="15" to="9" priority="3" type="highway.residential" spreadType="center" length="23.59" shape="863.89,99.35 888.32,63.19">
        <lane id="62149_0" index="0" disallow="pedestrian tram rail_urban rail rail_electric rail_fast ship" speed="36.11" length="23.59" width="3.50" customShape="1" shape="870.27,80.62 870.37,80.53 870.46,80.44 879.39,71.82 887.24,64.23"/>
    </edge>

    <junction id="10" type="dead_end" x="905.76" y="46.35" incLanes="60398_0" intLanes="" shape="904.54,45.09 906.97,47.61" rightOfWay="edgePriority"/>
    <junction id="11" type="dead_end" x="803.16" y="138.67" incLanes="" intLanes="" shape="805.42,141.34 800.90,136.00" rightOfWay="edgePriority"/>
    <junction id="12" type="priority" x="891.96" y="66.97" incLanes="60400_0 60400_1" intLanes=":12_0_0 :12_0_1" shape="895.47,68.44 890.61,63.41 888.45,65.49 893.31,70.53" rightOfWay="edgePriority">
        <request index="0" response="00" foes="00" cont="0"/>
        <request index="1" response="00" foes="00" cont="0"/>
    </junction>
    <junction id="13" type="dead_end" x="909.42" y="50.11" incLanes="" intLanes="" shape="906.98,47.60 911.85,52.63" rightOfWay="edgePriority"/>
    <junction id="15" type="priority" x="865.38" y="100.27" incLanes="60587_0 60404_0 60404_1 61056_0 61056_1" intLanes=":15_0_0 :15_1_0 :15_2_0 :15_3_0 :15_3_1 :15_5_0 :15_6_0" shape="873.92,111.45 879.19,106.84 876.11,102.87 874.08,99.15 873.09,95.70 873.14,92.51 874.23,89.58 876.36,86.90 869.05,79.37 863.48,84.55 859.17,88.17 855.45,90.95 851.67,93.67 847.15,97.05 841.24,101.87 850.28,112.55 854.87,109.20 859.19,107.12 863.26,106.30 867.07,106.75 870.62,108.46">
        <request index="0" response="0011000" foes="0011000" cont="0"/>
        <request index="1" response="1111000" foes="1111000" cont="0"/>
        <request index="2" response="0000000" foes="1000000" cont="0"/>
        <request index="3" response="0000000" foes="1000011" cont="0"/>
        <request index="4" response="0000000" foes="1000011" cont="0"/>
        <request index="5" response="0000000" foes="0000010" cont="0"/>
        <request index="6" response="0011100" foes="0011110" cont="0"/>
    </junction>
    <junction id="3" type="dead_end" x="924.07" y="160.57" incLanes="60588_0" intLanes="" shape="925.43,159.47 922.71,161.67" rightOfWay="edgePriority"/>
    <junction id="7" type="dead_end" x="807.68" y="144.01" incLanes="61059_0 61059_1" intLanes="" shape="809.94,146.68 805.42,141.34" rightOfWay="edgePriority"/>
    <junction id="8" type="dead_end" x="921.42" y="162.86" incLanes="" intLanes="" shape="922.78,161.76 920.06,163.95" rightOfWay="edgePriority"/>
    <junction id="9" type="priority" x="888.32" y="63.19" incLanes="62149_0" intLanes=":9_0_0" shape="890.61,63.41 888.18,60.89 886.02,62.98 888.45,65.49" rightOfWay="edgePriority">
        <request index="0" response="0" foes="0" cont="0"/>
    </junction>

    <connection from="60400" to="60404" fromLane="0" toLane="0" contPos="-4.00" via=":12_0_0" dir="s" state="M"/>
    <connection from="60400" to="60404" fromLane="1" toLane="1" contPos="-4.00" via=":12_0_1" dir="s" state="M"/>
    <connection from="60404" to="60588" fromLane="0" toLane="0" contPos="-4.00" shape="875.14,85.64 873.61,87.36 872.65,88.80 871.92,90.35 871.44,92.01 871.24,93.72 871.30,95.44 871.75,97.69 872.52,99.86 873.82,102.42 875.72,105.30 877.87,107.99" via=":15_2_0" dir="r" state="M"/>
    <connection from="60404" to="61059" fromLane="0" toLane="0" contPos="-4.00" shape="875.14,85.64 867.79,93.04 857.60,103.47 852.30,108.47 849.15,111.22" via=":15_3_0" dir="s" state="M"/>
    <connection from="60404" to="61059" fromLane="1" toLane="1" contPos="-4.00" shape="872.70,83.14 865.35,90.53 855.24,100.88 850.01,105.83 846.89,108.55" via=":15_3_1" dir="s" state="M"/>
    <connection from="60587" to="61059" fromLane="0" toLane="0" contPos="-4.00" shape="875.22,110.28 873.18,108.19 871.35,106.75 869.32,105.60 867.69,104.97 865.99,104.56 864.25,104.40 861.92,104.54 859.65,105.05 857.46,105.84 854.85,107.15 851.91,109.05 849.15,111.22" via=":15_0_0" dir="r" state="m"/>
    <connection from="60587" to="62149" fromLane="0" toLane="0" contPos="-4.00" shape="875.22,110.28 872.02,106.27 869.78,102.97 868.11,99.98 866.97,97.37 866.13,94.65 865.75,92.41 865.69,90.13 865.99,87.87 866.48,86.23 867.45,84.17 868.74,82.30 870.27,80.62" via=":15_1_0" dir="l" state="m"/>
    <connection from="61056" to="62149" fromLane="0" toLane="0" contPos="-4.00" shape="842.39,103.19 849.08,97.81 861.51,88.26 866.94,83.71 870.27,80.62" via=":15_5_0" dir="s" state="M"/>
    <connection from="61056" to="60588" fromLane="1" toLane="0" contPos="-4.00" shape="844.63,105.87 847.84,103.40 850.78,101.56 853.38,100.30 856.11,99.35 858.37,98.87 860.67,98.68 862.98,98.80 865.24,99.23 867.44,99.96 870.03,101.23 872.44,102.83 875.09,105.06 877.49,107.56 877.87,107.99" via=":15_6_0" dir="l" state="m"/>
    <connection from="62149" to="60398" fromLane="0" toLane="0" contPos="-4.00" via=":9_0_0" dir="s" state="M"/>

    <connection from=":12_0" to="60404" fromLane="0" toLane="0" dir="s" state="M"/>
    <connection from=":12_0" to="60404" fromLane="1" toLane="1" dir="s" state="M"/>
    <connection from=":15_0" to="61059" fromLane="0" toLane="0" dir="r" state="M"/>
    <connection from=":15_1" to="62149" fromLane="0" toLane="0" dir="l" state="M"/>
    <connection from=":15_2" to="60588" fromLane="0" toLane="0" dir="r" state="M"/>
    <connection from=":15_3" to="61059" fromLane="0" toLane="0" dir="s" state="M"/>
    <connection from=":15_3" to="61059" fromLane="1" toLane="1" dir="s" state="M"/>
    <connection from=":15_5" to="62149" fromLane="0" toLane="0" dir="s" state="M"/>
    <connection from=":15_6" to="60588" fromLane="0" toLane="0" dir="l" state="M"/>
    <connection from=":9_0" to="60398" fromLane="0" toLane="0" dir="s" state="M"/>

</net>