<routes>
	<vehicle depart="0.1" departLane="0" departPos="16.024956843368155" departSpeed="0.78365903" id="349" type="bus">
		<route edges=":15_5 62149"/>
	</vehicle>
	<vehicle depart="0.1" departLane="1" departPos="29.482874289147063" departSpeed="1.8879674" id="36" type="passenger">
		<route edges="61056 60588"/>
	</vehicle>
	<vehicle depart="0.1" departLane="0" departPos="60.45802729036937" departSpeed="0.0" id="37" type="passenger">
		<route edges="60587 61059"/>
	</vehicle>
	<vehicle depart="0.1" departLane="1" departPos="21.52239433795004" departSpeed="1.5181171" id="319" type="passenger">
		<route edges="61056 60588"/>
	</vehicle>
	<vehicle depart="0.1" departLane="1" departPos="13.922553774444454" departSpeed="1.0066171" id="321" type="passenger">
		<route edges="61056 60588"/>
	</vehicle>
	<vehicle depart="0.1" departLane="0" departPos="39.849185016582105" departSpeed="5.7288388" id="350" type="passenger">
		<route edges="61056 62149"/>
	</vehicle>
	<vehicle depart="0.1" departLane="0" departPos="70.22713104842805" departSpeed="0.0" id="30" type="truck">
		<route edges="60587 61059"/>
	</vehicle>
	<vehicle depart="0.1" departLane="1" departPos="39.97719186833074" departSpeed="1.8915276" id="34" type="truck">
		<route edges="61056 60588"/>
	</vehicle>
</routes>
