<!-- generated on 2020-12-18 15:59:41.402254 by ipykernel_launcher.py v1_2_0+5214-53edc58fcd
-->
<edges>
	<edge from="1" function="normal" id="3498" length="9.586095898357158" numLanes="1" priority="1" speed="36.11111111111111" spreadType="center" to="2">
		<lane allow="moped bicycle pedestrian custom1 trailer evehicle rail_urban ship private truck vip custom2 authority delivery rail_electric taxi tram army hov coach motorcycle passenger bus rail emergency" index="0" length="9.586095898357158" shape="77.27395,115.75479999999999 67.6932,116.07490000000001" speed="36.11111111111111" width="4.771086938004798"/>
	</edge>
	<edge from="2" function="normal" id="3716" length="18.680147901632278" numLanes="1" priority="1" speed="36.11111111111111" spreadType="center" to="3">
		<lane allow="moped bicycle pedestrian custom1 trailer evehicle rail_urban ship private vip custom2 authority delivery rail_electric taxi tram army hov coach motorcycle passenger rail emergency" index="0" length="18.680147901632278" shape="67.6932,116.07490000000001 63.70935,117.5163 60.85375,120.01894999999999 59.80225,122.40905000000001 59.099599999999995,124.4373 59.2446,127.5823 60.23575,130.13725" speed="36.11111111111111" width="3.353872355949167"/>
	</edge>
	<edge from="4" function="normal" id="3509" length="15.632980848532544" numLanes="3" priority="1" speed="36.11111111111111" spreadType="center" to="5">
		<lane allow="moped bicycle pedestrian custom1 trailer evehicle rail_urban ship private truck vip custom2 authority delivery rail_electric taxi tram army hov coach motorcycle passenger bus rail emergency" index="0" length="15.632980848532544" shape="-33.5191,50.73545 -29.1229,48.5546 -19.51245,43.77105" speed="36.11111111111111" width="3.2317602711216056"/>
		<lane allow="moped bicycle pedestrian custom1 trailer evehicle rail_urban ship private truck vip custom2 authority delivery rail_electric taxi tram army hov coach motorcycle passenger bus rail emergency" index="1" length="15.632980848532544" shape="-32.12955,53.536500000000004 -27.692149999999998,51.3352 -18.08165,46.551649999999995" speed="36.11111111111111" width="3.0217924167619463"/>
		<lane allow="moped bicycle pedestrian custom1 trailer evehicle rail_urban ship private truck vip custom2 authority delivery rail_electric taxi tram army hov coach motorcycle passenger bus rail emergency" index="2" length="15.632980848532544" shape="-30.7784,56.260149999999996 -26.285800000000002,54.0315 -16.774900000000002,49.310900000000004" speed="36.11111111111111" width="3.058956104621312"/>
	</edge>
	<edge from="5" function="normal" id="3672" length="43.42964317851892" numLanes="1" priority="1" speed="36.11111111111111" spreadType="center" to="6">
		<lane allow="moped bicycle pedestrian custom1 trailer evehicle rail_urban ship private vip custom2 authority delivery rail_electric taxi tram army hov coach motorcycle passenger rail emergency" index="0" length="43.42964317851892" shape="-16.774900000000002,49.310900000000004 -11.6177,46.77055 -8.0349,45.28605 -4.18905,43.927400000000006 -1.40835,42.9571 1.0776,42.46025 3.31245,42.24785 5.64865,42.364850000000004 7.293149999999999,42.49925 8.4026,42.7555 9.34235,43.338499999999996 10.2616,44.6887 11.417300000000001,46.617050000000006 14.08475,50.8545 15.6585,53.90625 17.13025,57.0184" speed="36.11111111111111" width="2.9171821763475796"/>
	</edge>
	<edge from="6" function="normal" id="3456" length="24.710920579823167" numLanes="3" priority="1" speed="36.11111111111111" spreadType="center" to="7">
		<lane allow="moped bicycle pedestrian custom1 trailer evehicle rail_urban ship private truck vip custom2 authority delivery rail_electric taxi tram army hov coach motorcycle passenger bus rail emergency" index="0" length="24.710920579823167" shape="22.6569,54.2587 26.2527,61.452299999999994 30.10605,69.3694 33.4687,76.4778" speed="36.11111111111111" width="3.047668597469226"/>
		<lane allow="moped bicycle pedestrian custom1 trailer evehicle rail_urban ship private truck vip custom2 authority delivery rail_electric taxi tram army hov coach motorcycle passenger bus rail emergency" index="1" length="24.710920579823167" shape="19.82805,55.65295 23.68815,63.219849999999994 27.3664,70.78545 30.80525,77.8159" speed="36.11111111111111" width="2.9148241130469565"/>
		<lane allow="moped bicycle pedestrian custom1 trailer evehicle rail_urban ship private truck vip custom2 authority delivery rail_electric taxi tram army hov coach motorcycle passenger bus rail emergency" index="2" length="24.710920579823167" shape="17.13025,57.0184 21.05875,64.78059999999999 24.8472,72.48315 28.21875,79.12975" speed="36.11111111111111" width="2.888004380190582"/>
	</edge>
	<edge from="7" function="normal" id="3462" length="8.466645302154792" numLanes="3" priority="1" speed="36.11111111111111" spreadType="center" to="8">
		<lane allow="moped bicycle pedestrian custom1 trailer evehicle rail_urban ship private truck vip custom2 authority delivery rail_electric taxi tram army hov coach motorcycle passenger bus rail emergency" index="0" length="8.466645302154792" shape="33.4687,76.4778 37.348,84.04055" speed="36.11111111111111" width="3.047668597469226"/>
		<lane allow="moped bicycle pedestrian custom1 trailer evehicle rail_urban ship private truck vip custom2 authority delivery rail_electric taxi tram army hov coach motorcycle passenger bus rail emergency" index="1" length="8.466645302154792" shape="30.80525,77.8159 34.62335,85.4256" speed="36.11111111111111" width="2.9148241130469565"/>
		<lane allow="moped bicycle pedestrian custom1 trailer evehicle rail_urban ship private truck vip custom2 authority delivery rail_electric taxi tram army hov coach motorcycle passenger bus rail emergency" index="2" length="8.466645302154792" shape="28.21875,79.12975 31.959400000000002,86.72524999999999" speed="36.11111111111111" width="2.888004380190582"/>
	</edge>
	<edge from="8" function="normal" id="3468" length="22.238196627283095" numLanes="3" priority="1" speed="36.11111111111111" spreadType="center" to="9">
		<lane allow="moped bicycle pedestrian custom1 trailer evehicle rail_urban ship private truck vip custom2 authority delivery rail_electric taxi tram army hov coach motorcycle passenger bus rail emergency" index="0" length="22.238196627283095" shape="37.348,84.04055 41.94735,93.3321 47.324,104.01310000000001" speed="36.11111111111111" width="3.0326639856733153"/>
		<lane allow="moped bicycle pedestrian custom1 trailer evehicle rail_urban ship private truck vip custom2 authority delivery rail_electric taxi tram army hov coach motorcycle passenger bus rail emergency" index="1" length="22.238196627283095" shape="34.62335,85.4256 39.2696,94.74735 44.52145,105.35315" speed="36.11111111111111" width="2.998011102381041"/>
		<lane allow="moped bicycle pedestrian custom1 trailer evehicle rail_urban ship private truck vip custom2 authority delivery rail_electric taxi tram army hov coach motorcycle passenger bus rail emergency" index="2" length="22.238196627283095" shape="31.959400000000002,86.72524999999999 36.57575,96.1243 41.765100000000004,106.68485" speed="36.11111111111111" width="2.9350875710956275"/>
	</edge>
	<edge from="9" function="normal" id="3713" length="29.142816807837438" numLanes="3" priority="1" speed="36.11111111111111" spreadType="center" to="10">
		<lane allow="moped bicycle pedestrian custom1 trailer evehicle rail_urban ship private truck vip custom2 authority delivery rail_electric taxi tram army hov coach motorcycle passenger bus rail emergency" index="0" length="29.142816807837438" shape="47.324,104.01310000000001 51.24015,112.00625 55.18675,119.9528 58.94285,127.56345000000002 60.1162,130.196" speed="36.11111111111111" width="3.1576335062828345"/>
		<lane allow="moped bicycle pedestrian custom1 trailer evehicle rail_urban ship private truck vip custom2 authority delivery rail_electric taxi tram army hov coach motorcycle passenger rail emergency" index="1" length="29.142816807837438" shape="44.52145,105.35315 47.95895,112.29114999999999 51.90545,120.23775 56.0761,128.73505 57.36109999999999,131.5494" speed="36.11111111111111" width="2.9348672269797875"/>
		<lane allow="moped bicycle pedestrian custom1 trailer evehicle rail_urban ship private truck vip custom2 authority delivery rail_electric taxi tram army hov coach motorcycle passenger bus rail emergency" index="2" length="29.142816807837438" shape="41.765100000000004,106.68485 44.5977,112.38489999999999 48.43245,120.0868 53.271,129.89815 54.65715,132.87765000000002" speed="36.11111111111111" width="3.067322045367919"/>
	</edge>
	<edge from="5" function="normal" id="3636" length="10.130444963203738" numLanes="2" priority="1" speed="36.11111111111111" spreadType="center" to="11">
		<lane allow="moped bicycle pedestrian custom1 trailer evehicle rail_urban ship private truck vip custom2 authority delivery rail_electric taxi tram army hov coach motorcycle passenger bus rail emergency" index="0" length="10.130444963203738" shape="-19.51245,43.77105 -10.501349999999999,39.0857" speed="36.11111111111111" width="3.232186618993402"/>
		<lane allow="moped bicycle pedestrian custom1 trailer evehicle rail_urban ship private truck vip custom2 authority delivery rail_electric taxi tram army hov coach motorcycle passenger bus rail emergency" index="1" length="10.130444963203738" shape="-18.08165,46.551649999999995 -9.05695,41.9494" speed="36.11111111111111" width="3.0254656269738045"/>
	</edge>
	<edge from="11" function="normal" id="3658" length="24.834013362889845" numLanes="2" priority="1" speed="36.11111111111111" spreadType="center" to="12">
		<lane allow="moped bicycle pedestrian custom1 trailer evehicle rail_urban ship private truck vip custom2 authority delivery rail_electric taxi tram army hov coach motorcycle passenger bus rail emergency" index="0" length="24.834013362889845" shape="-10.501349999999999,39.0857 -7.60555,37.5798 -4.95005,36.19905 -2.2331000000000003,34.78635 0.7552,33.23245 3.45685,31.82755 6.10155,30.452399999999997 8.8171,29.040399999999998 11.58885,27.59915" speed="36.11111111111111" width="3.308908788407441"/>
		<lane allow="moped bicycle pedestrian custom1 trailer evehicle rail_urban ship private truck vip custom2 authority delivery rail_electric taxi tram army hov coach motorcycle passenger bus rail emergency" index="1" length="24.834013362889845" shape="-9.05695,41.9494 -6.18895,40.4868 -3.51795,39.12475 -0.77965,37.7284 2.18495,36.21665 4.8954,34.8344 7.54535,33.483149999999995 10.2798,32.08885 13.066600000000001,30.6677" speed="36.11111111111111" width="3.105783426126171"/>
	</edge>
	<edge from="12" function="normal" id="3676" length="16.155928389455166" numLanes="2" priority="1" speed="36.11111111111111" spreadType="center" to="13">
		<lane allow="moped bicycle pedestrian custom1 trailer evehicle rail_urban ship private truck vip custom2 authority delivery rail_electric taxi tram army hov coach motorcycle passenger bus rail emergency" index="0" length="16.155928389455166" shape="11.58885,27.59915 17.60855,24.5929 26.0426,20.3809" speed="36.11111111111111" width="3.5034549033775204"/>
		<lane allow="moped bicycle pedestrian custom1 trailer evehicle rail_urban ship private truck vip custom2 authority delivery rail_electric taxi tram army hov coach motorcycle passenger bus rail emergency" index="1" length="16.155928389455166" shape="13.066600000000001,30.6677 19.091250000000002,27.6824 27.587449999999997,23.4725" speed="36.11111111111111" width="3.308224526842157"/>
	</edge>
	<edge from="13" function="normal" id="3525" length="17.280435272672815" numLanes="3" priority="1" speed="36.11111111111111" spreadType="center" to="14">
		<lane allow="moped bicycle pedestrian custom1 trailer evehicle rail_urban ship private truck vip custom2 authority delivery rail_electric taxi tram army hov coach motorcycle passenger bus rail emergency" index="0" length="17.280435272672815" shape="24.41955,17.0528 33.14685,12.75775 39.93515,9.41695" speed="36.11111111111111" width="3.87390274787584"/>
		<lane allow="moped bicycle pedestrian custom1 trailer evehicle rail_urban ship private truck vip custom2 authority delivery rail_electric taxi tram army hov coach motorcycle passenger bus rail emergency" index="1" length="17.280435272672815" shape="26.0426,20.3809 34.76975,16.08735 41.569,12.7423" speed="36.11111111111111" width="3.511789538113012"/>
		<lane allow="moped bicycle pedestrian custom1 trailer evehicle rail_urban ship private truck vip custom2 authority delivery rail_electric taxi tram army hov coach motorcycle passenger bus rail emergency" index="2" length="17.280435272672815" shape="27.587449999999997,23.4725 36.26625,19.2039 43.0938,15.8458" speed="36.11111111111111" width="3.379496749517598"/>
	</edge>
	<edge from="5" function="normal" id="3600" length="24.197467511365534" numLanes="1" priority="1" speed="36.11111111111111" spreadType="center" to="15">
		<lane allow="moped bicycle pedestrian custom1 trailer evehicle rail_urban ship private vip custom2 authority delivery rail_electric taxi tram army hov coach motorcycle passenger rail emergency" index="0" length="24.197467511365534" shape="-19.51245,43.77105 -15.024149999999999,41.3761 -13.03115,40.186 -11.4281,39.275400000000005 -10.685,38.79545 -10.2609,38.20785 -10.225100000000001,37.4009 -10.6323,35.9893 -11.4332,34.02315 -12.41365,31.9248 -15.20655,25.92285" speed="36.11111111111111" width="3.232186618993402"/>
	</edge>
	<edge from="15" function="normal" id="3542" length="74.2461753523541" numLanes="3" priority="1" speed="36.11111111111111" spreadType="center" to="16">
		<lane allow="moped bicycle pedestrian custom1 trailer evehicle rail_urban ship private truck vip custom2 authority delivery rail_electric taxi tram army hov coach motorcycle passenger bus rail emergency" index="0" length="74.2461753523541" shape="-15.20655,25.92285 -19.367849999999997,17.384149999999998 -23.4211,8.45415 -27.19315,-0.26435000000000003 -30.817899999999998,-9.5083 -34.5329,-18.56615 -38.21655,-27.59375 -41.9006,-36.6522 -44.18765,-42.4482" speed="36.11111111111111" width="2.8235974571457607"/>
		<lane allow="moped bicycle pedestrian custom1 trailer evehicle rail_urban ship private truck vip custom2 authority delivery rail_electric taxi tram army hov coach motorcycle passenger bus rail emergency" index="1" length="74.2461753523541" shape="-12.3629,24.4302 -16.606299999999997,15.875399999999999 -20.68845,7.0920000000000005 -24.4291,-1.5962 -28.0831,-10.7165 -31.7362,-19.77535 -35.38765,-28.711 -38.97895,-37.7708 -41.3702,-43.8945" speed="36.11111111111111" width="2.969358961122754"/>
		<lane allow="moped bicycle pedestrian custom1 trailer evehicle rail_urban ship private truck vip custom2 authority delivery rail_electric taxi tram army hov coach motorcycle passenger bus rail emergency" index="2" length="74.2461753523541" shape="-9.714849999999998,23.04025 -13.93765,14.360299999999999 -17.988,5.638 -21.75955,-3.0498 -25.2544,-11.84915 -28.9099,-21.07725 -32.56175,-30.04375 -36.02855,-39.04365 -38.539699999999996,-45.34755" speed="36.11111111111111" width="2.9622015478356643"/>
	</edge>
	<edge from="17" function="normal" id="3532" length="13.634900230131372" numLanes="2" priority="1" speed="36.11111111111111" spreadType="center" to="18">
		<lane allow="moped bicycle pedestrian custom1 trailer evehicle rail_urban ship private truck vip custom2 authority delivery rail_electric taxi tram army hov coach motorcycle passenger bus rail emergency" index="0" length="13.634900230131372" shape="47.6395,25.09765 40.70685,28.4865 35.362449999999995,31.09905" speed="36.11111111111111" width="3.607231317783762"/>
		<lane allow="moped bicycle pedestrian custom1 trailer evehicle rail_urban ship private truck vip custom2 authority delivery rail_electric taxi tram army hov coach motorcycle passenger bus rail emergency" index="1" length="13.634900230131372" shape="46.03485,21.831699999999998 39.17635,25.1849 33.7855,27.82035" speed="36.11111111111111" width="3.623546501702438"/>
	</edge>
	<edge from="18" function="normal" id="3534" length="6.57557739613032" numLanes="3" priority="1" speed="36.11111111111111" spreadType="center" to="19">
		<lane allow="moped bicycle pedestrian custom1 trailer evehicle rail_urban ship private truck vip custom2 authority delivery rail_electric taxi tram army hov coach motorcycle passenger bus rail emergency" index="0" length="6.57557739613032" shape="35.362449999999995,31.09905 30.9396,37.1209" speed="36.11111111111111" width="3.24573724136751"/>
		<lane allow="moped bicycle pedestrian custom1 trailer evehicle rail_urban ship private truck vip custom2 authority delivery rail_electric taxi tram army hov coach motorcycle passenger bus rail emergency" index="1" length="6.57557739613032" shape="35.362449999999995,31.09905 29.45045,34.03905" speed="36.11111111111111" width="3.6024336135451565"/>
		<lane allow="moped bicycle pedestrian custom1 trailer evehicle rail_urban ship private truck vip custom2 authority delivery rail_electric taxi tram army hov coach motorcycle passenger bus rail emergency" index="2" length="6.57557739613032" shape="33.7855,27.82035 27.89745,30.74765" speed="36.11111111111111" width="3.6713079753679083"/>
	</edge>
	<edge from="19" function="normal" id="3536" length="6.608363657139337" numLanes="3" priority="1" speed="36.11111111111111" spreadType="center" to="20">
		<lane allow="moped bicycle pedestrian custom1 trailer evehicle rail_urban ship private truck vip custom2 authority delivery rail_electric taxi tram army hov coach motorcycle passenger bus rail emergency" index="0" length="6.608363657139337" shape="30.9396,37.1209 24.96005,40.01035" speed="36.11111111111111" width="3.190167196245363"/>
		<lane allow="moped bicycle pedestrian custom1 trailer evehicle rail_urban ship private truck vip custom2 authority delivery rail_electric taxi tram army hov coach motorcycle passenger bus rail emergency" index="1" length="6.608363657139337" shape="29.45045,34.03905 23.5103,36.9838" speed="36.11111111111111" width="3.5215687697388507"/>
		<lane allow="moped bicycle pedestrian custom1 trailer evehicle rail_urban ship private truck vip custom2 authority delivery rail_electric taxi tram army hov coach motorcycle passenger bus rail emergency" index="2" length="6.608363657139337" shape="27.89745,30.74765 21.9874,33.7043" speed="36.11111111111111" width="3.6773714878973"/>
	</edge>
	<edge from="20" function="normal" id="3620" length="6.669397413559939" numLanes="2" priority="1" speed="36.11111111111111" spreadType="center" to="21">
		<lane allow="moped bicycle pedestrian custom1 trailer evehicle rail_urban ship private truck vip custom2 authority delivery rail_electric taxi tram army hov coach motorcycle passenger bus rail emergency" index="0" length="6.669397413559939" shape="23.5103,36.9838 17.5328,39.941900000000004" speed="36.11111111111111" width="3.4558219456447667"/>
		<lane allow="moped bicycle pedestrian custom1 trailer evehicle rail_urban ship private truck vip custom2 authority delivery rail_electric taxi tram army hov coach motorcycle passenger bus rail emergency" index="1" length="6.669397413559939" shape="21.9874,33.7043 15.97995,36.7174" speed="36.11111111111111" width="3.7020390124902796"/>
	</edge>
	<edge from="21" function="normal" id="3662" length="24.644895567956997" numLanes="2" priority="1" speed="36.11111111111111" spreadType="center" to="22">
		<lane allow="moped bicycle pedestrian custom1 trailer evehicle rail_urban ship private truck vip custom2 authority delivery rail_electric taxi tram army hov coach motorcycle passenger bus rail emergency" index="0" length="24.644895567956997" shape="17.5328,39.941900000000004 14.71625,41.335750000000004 11.93945,42.709900000000005 9.29005,44.021100000000004 6.56795,45.36825 3.69625,46.78945 0.9074500000000001,48.1696 -1.7946,49.5068 -4.5552,50.873099999999994" speed="36.11111111111111" width="3.213340816035548"/>
		<lane allow="moped bicycle pedestrian custom1 trailer evehicle rail_urban ship private truck vip custom2 authority delivery rail_electric taxi tram army hov coach motorcycle passenger bus rail emergency" index="1" length="24.644895567956997" shape="15.97995,36.7174 13.175450000000001,38.1241 10.4149,39.50795 7.76685,40.836600000000004 5.05015,42.198049999999995 2.14835,43.655649999999994 -0.6204000000000001,45.04575 -3.31025,46.39495 -6.1068,47.798" speed="36.11111111111111" width="3.675404375031404"/>
	</edge>
	<edge from="22" function="normal" id="3640" length="10.509859510002975" numLanes="2" priority="1" speed="36.11111111111111" spreadType="center" to="23">
		<lane allow="moped bicycle pedestrian custom1 trailer evehicle rail_urban ship private truck vip custom2 authority delivery rail_electric taxi tram army hov coach motorcycle passenger bus rail emergency" index="0" length="10.509859510002975" shape="-4.5552,50.873099999999994 -14.3887,55.6945" speed="36.11111111111111" width="3.1673785817296913"/>
		<lane allow="moped bicycle pedestrian custom1 trailer evehicle rail_urban ship private truck vip custom2 authority delivery rail_electric taxi tram army hov coach motorcycle passenger bus rail emergency" index="1" length="10.509859510002975" shape="-6.1068,47.798 -15.5244,52.4634" speed="36.11111111111111" width="3.675404375031404"/>
	</edge>
	<edge from="23" function="normal" id="3517" length="14.496753904957334" numLanes="3" priority="1" speed="36.11111111111111" spreadType="center" to="24">
		<lane allow="moped bicycle pedestrian custom1 trailer evehicle rail_urban ship private truck vip custom2 authority delivery rail_electric taxi tram army hov coach motorcycle passenger bus rail emergency" index="0" length="14.496753904957334" shape="-12.6714,60.14845 -21.884900000000002,64.58785 -25.6334,66.6317" speed="36.11111111111111" width="5.130906839926059"/>
		<lane allow="moped bicycle pedestrian custom1 trailer evehicle rail_urban ship private truck vip custom2 authority delivery rail_electric taxi tram army hov coach motorcycle passenger bus rail emergency" index="1" length="14.496753904957334" shape="-14.3887,55.6945 -23.77915,60.736549999999994 -27.46465,62.94025" speed="36.11111111111111" width="3.110520139783702"/>
		<lane allow="moped bicycle pedestrian custom1 trailer evehicle rail_urban ship private truck vip custom2 authority delivery rail_electric taxi tram army hov coach motorcycle passenger bus rail emergency" index="2" length="14.496753904957334" shape="-15.5244,52.4634 -25.3061,57.71105 -28.9715,59.902699999999996" speed="36.11111111111111" width="3.664585112942523"/>
	</edge>
	<edge from="20" function="normal" id="3668" length="38.24329000786905" numLanes="1" priority="1" speed="36.11111111111111" spreadType="center" to="15">
		<lane allow="moped bicycle pedestrian custom1 trailer evehicle rail_urban ship private vip custom2 authority delivery rail_electric taxi tram army hov coach motorcycle passenger rail emergency" index="0" length="38.24329000786905" shape="21.9874,33.7043 18.65035,34.813 15.7162,35.61985 13.22055,36.36745 10.8052,36.671 8.603349999999999,36.75595 7.06715,36.6276 5.0969,36.4208 3.4928,36.14345 1.545,35.8301 -0.26369999999999993,35.0731 -1.7996,33.823 -3.23925,31.9134 -5.9395500000000006,28.23565 -9.714849999999998,23.04025" speed="36.11111111111111" width="3.0119886487169913"/>
	</edge>
	<edge from="20" function="normal" id="3602" length="16.40731935125664" numLanes="1" priority="1" speed="36.11111111111111" spreadType="center" to="6">
		<lane allow="moped bicycle pedestrian custom1 trailer evehicle rail_urban ship private vip custom2 authority delivery rail_electric taxi tram army hov coach motorcycle passenger rail emergency" index="0" length="16.40731935125664" shape="24.96005,40.01035 23.10745,41.2945 21.9574,42.5112 21.0297,44.1402 20.45225,45.948899999999995 20.39435,47.31935 20.7568,49.4456 21.6079,51.82085 22.6569,54.2587" speed="36.11111111111111" width="2.9347200002725997"/>
	</edge>
	<edge from="9" function="normal" id="3718" length="22.831237741532018" numLanes="1" priority="1" speed="36.11111111111111" spreadType="center" to="25">
		<lane allow="moped bicycle pedestrian custom1 trailer evehicle rail_urban ship private vip custom2 authority delivery rail_electric taxi tram army hov coach motorcycle passenger rail emergency" index="0" length="22.831237741532018" shape="47.324,104.01310000000001 49.9457,107.3848 52.01045,109.3 54.60425,110.47370000000001 59.23255,110.8776 67.4825,111.01485" speed="36.11111111111111" width="3.1576335062828345"/>
	</edge>
	<edge from="25" function="normal" id="3500" length="9.586145870473697" numLanes="1" priority="1" speed="36.11111111111111" spreadType="center" to="26">
		<lane allow="moped bicycle pedestrian custom1 trailer evehicle rail_urban ship private truck vip custom2 authority delivery rail_electric taxi tram army hov coach motorcycle passenger bus rail emergency" index="0" length="9.586145870473697" shape="67.4825,111.01485 77.0633,110.69475" speed="36.11111111111111" width="5.3580703924080675"/>
	</edge>
	<edge from="27" function="normal" id="3555" length="8.747302513489517" numLanes="4" priority="1" speed="36.11111111111111" spreadType="center" to="28">
		<lane allow="moped bicycle pedestrian custom1 trailer evehicle rail_urban ship private truck vip custom2 authority delivery rail_electric taxi tram army hov coach motorcycle passenger bus rail emergency" index="0" length="8.747302513489517" shape="-25.8682,-51.8525 -21.892,-44.06115" speed="36.11111111111111" width="3.511144635300572"/>
		<lane allow="moped bicycle pedestrian custom1 trailer evehicle rail_urban ship private truck vip custom2 authority delivery rail_electric taxi tram army hov coach motorcycle passenger bus rail emergency" index="1" length="8.747302513489517" shape="-28.811999999999998,-50.341300000000004 -24.781599999999997,-42.45935" speed="36.11111111111111" width="2.994263381868733"/>
		<lane allow="moped bicycle pedestrian custom1 trailer evehicle rail_urban ship private truck vip custom2 authority delivery rail_electric taxi tram army hov coach motorcycle passenger bus rail emergency" index="2" length="8.747302513489517" shape="-31.511499999999998,-48.95555 -27.423299999999998,-40.922200000000004" speed="36.11111111111111" width="3.0122116393108884"/>
		<lane allow="moped bicycle pedestrian custom1 trailer evehicle rail_urban ship private truck vip custom2 authority delivery rail_electric taxi tram army hov coach motorcycle passenger bus rail emergency" index="3" length="8.747302513489517" shape="-34.28945,-47.52945 -30.1085,-39.4838" speed="36.11111111111111" width="3.0805742451692346"/>
	</edge>
	<edge from="28" function="normal" id="3559" length="17.69293538209547" numLanes="5" priority="1" speed="36.11111111111111" spreadType="center" to="29">
		<lane allow="moped bicycle pedestrian custom1 trailer evehicle rail_urban ship private truck vip custom2 authority delivery rail_electric taxi tram army hov coach motorcycle passenger bus rail emergency" index="0" length="17.69293538209547" shape="-21.892,-44.06115 -18.546300000000002,-37.093500000000006 -14.03725,-28.014699999999998" speed="36.11111111111111" width="3.511144635300572"/>
		<lane allow="moped bicycle pedestrian custom1 trailer evehicle rail_urban ship private truck vip custom2 authority delivery rail_electric taxi tram army hov coach motorcycle passenger bus rail emergency" index="1" length="17.69293538209547" shape="-24.781599999999997,-42.45935 -21.3868,-35.5342 -16.8265,-26.42365" speed="36.11111111111111" width="2.891120158346935"/>
		<lane allow="moped bicycle pedestrian custom1 trailer evehicle rail_urban ship private truck vip custom2 authority delivery rail_electric taxi tram army hov coach motorcycle passenger bus rail emergency" index="2" length="17.69293538209547" shape="-27.423299999999998,-40.922200000000004 -24.0768,-34.13485 -19.5165,-25.02435" speed="36.11111111111111" width="3.0122116393108884"/>
		<lane allow="moped bicycle pedestrian custom1 trailer evehicle rail_urban ship private truck vip custom2 authority delivery rail_electric taxi tram army hov coach motorcycle passenger bus rail emergency" index="3" length="17.69293538209547" shape="-30.1085,-39.4838 -26.74765,-32.77365 -22.1873,-23.6631" speed="36.11111111111111" width="2.819829250149734"/>
		<lane allow="moped bicycle pedestrian custom1 trailer evehicle rail_urban ship private truck vip custom2 authority delivery rail_electric taxi tram army hov coach motorcycle passenger rail emergency" index="4" length="17.69293538209547" shape="-30.1085,-39.4838 -28.2759,-31.74865 -24.79505,-22.21035" speed="36.11111111111111" width="2.9068515975192146"/>
	</edge>
	<edge from="29" function="normal" id="3568" length="47.08668512312134" numLanes="5" priority="1" speed="36.11111111111111" spreadType="center" to="30">
		<lane allow="moped bicycle pedestrian custom1 trailer evehicle rail_urban ship private truck vip custom2 authority delivery rail_electric taxi tram army hov coach motorcycle passenger bus rail emergency" index="0" length="47.08668512312134" shape="-14.03725,-28.014699999999998 -9.83825,-19.5597 -5.5806000000000004,-10.98515 -1.14215,-2.04915 3.15645,6.4118 7.34195,14.0609" speed="36.11111111111111" width="3.346148869969775"/>
		<lane allow="moped bicycle pedestrian custom1 trailer evehicle rail_urban ship private truck vip custom2 authority delivery rail_electric taxi tram army hov coach motorcycle passenger bus rail emergency" index="1" length="47.08668512312134" shape="-16.8265,-26.42365 -12.6065,-17.9929 -8.4142,-9.6175 -3.8758999999999997,-0.5508000000000001 0.34215,7.876100000000001 4.2136499999999995,15.7007" speed="36.11111111111111" width="2.89108462864718"/>