<!-- generated on 2020-12-18 15:59:41.494503 by ipykernel_launcher.py v1_2_0+5214-53edc58fcd
-->
<nodes>
	<node id="1" type="from" x="77.27395" y="115.75479999999999"/>
	<node id="2" type="to" x="67.6932" y="116.07490000000001"/>
	<node id="3" type="to" x="60.23575" y="130.13725"/>
	<node id="4" type="from" x="-32.14235" y="53.51070000000001"/>
	<node id="5" type="to" x="-18.123" y="46.544533333333334"/>
	<node id="6" type="to" x="17.13025" y="57.0184"/>
	<node id="7" type="to" x="30.8309" y="77.80781666666667"/>
	<node id="8" type="to" x="34.64358333333333" y="85.39713333333333"/>
	<node id="9" type="to" x="44.536849999999994" y="105.35036666666667"/>
	<node id="10" type="to" x="57.37815" y="131.54101666666668"/>
	<node id="11" type="to" x="-9.77915" y="40.51755"/>
	<node id="12" type="to" x="12.327725000000001" y="29.133425000000003"/>
	<node id="13" type="to" x="26.815025" y="21.9267"/>
	<node id="14" type="to" x="41.532650000000004" y="12.668349999999998"/>
	<node id="15" type="to" x="-15.20655" y="25.92285"/>
	<node id="16" type="to" x="-41.36585" y="-43.89675"/>
	<node id="17" type="from" x="46.837175" y="23.464675"/>
	<node id="18" type="to" x="34.573975" y="29.459699999999998"/>
	<node id="19" type="to" x="29.429166666666664" y="33.9692"/>
	<node id="20" type="to" x="23.485916666666668" y="36.899483333333336"/>
	<node id="21" type="to" x="16.756375000000002" y="38.32965"/>
	<node id="22" type="to" x="-5.3309999999999995" y="49.33555"/>
	<node id="23" type="to" x="-14.95655" y="54.07895"/>
	<node id="24" type="to" x="-27.356516666666664" y="63.15821666666667"/>
	<node id="25" type="to" x="67.4825" y="111.01485"/>
	<node id="26" type="to" x="77.0633" y="110.69475"/>
	<node id="27" type="from" x="-30.1202875" y="-49.669700000000006"/>
	<node id="28" type="to" x="-26.05135" y="-41.731625"/>
	<node id="29" type="to" x="-19.472520000000003" y="-25.067230000000002"/>
	<node id="30" type="to" x="1.5822999999999996" y="17.09754"/>
	<node id="31" type="to" x="6.7317833333333335" y="28.171466666666664"/>
	<node id="32" type="to" x="14.091800000000001" y="43.54696666666666"/>
	<node id="33" type="from" x="46.50276" y="136.88328"/>
	<node id="34" type="to" x="33.54412" y="110.50836"/>
	<node id="35" type="to" x="23.78255" y="90.83135999999999"/>
	<node id="36" type="to" x="18.608391666666666" y="83.91578333333334"/>
	<node id="37" type="to" x="7.612175" y="61.81980833333333"/>
	<node id="38" type="to" x="0.2801000000000002" y="50.297866666666664"/>
	<node id="39" type="to" x="-7.046199999999999" y="35.40368333333333"/>
</nodes>
