<routes>
	<vehicle depart="0.1" departLane="4" departPos="24.413204429263104" departSpeed="0.0" id="2567" type="passenger">
		<route edges="3450 3664 3525"/>
	</vehicle>
	<vehicle depart="0.1" departLane="4" departPos="18.119039004624288" departSpeed="0.0" id="2585" type="passenger">
		<route edges="3450 3664 3525"/>
	</vehicle>
	<vehicle depart="0.1" departLane="4" departPos="0" departSpeed="0.0" id="2653" type="passenger">
		<route edges="3450 3664 3525"/>
	</vehicle>
	<vehicle depart="0.1" departLane="4" departPos="0" departSpeed="0.01524" id="2657" type="passenger">
		<route edges="3450 3664 3525"/>
	</vehicle>
	<vehicle depart="0.1" departLane="0" departPos="74.28443874208686" departSpeed="0.0" id="2658" type="passenger">
		<route edges="3542"/>
	</vehicle>
	<vehicle depart="0.1" departLane="0" departPos="61.81646211379864" departSpeed="0.10668" id="2662" type="passenger">
		<route edges="3542"/>
	</vehicle>
	<vehicle depart="0.1" departLane="1" departPos="0" departSpeed="0.0" id="2664" type="passenger">
		<route edges="3632 3652 3616 3456 3462 3468 3713"/>
	</vehicle>
	<vehicle depart="0.1" departLane="4" departPos="0" departSpeed="0.0" id="2667" type="passenger">
		<route edges="3438 3450 3664 3525"/>
	</vehicle>
	<vehicle depart="0.1" departLane="0" departPos="54.05249419766548" departSpeed="0.021336" id="2668" type="passenger">
		<route edges="3542"/>
	</vehicle>
	<vehicle depart="0.1" departLane="5" departPos="23.174252665490208" departSpeed="0.0" id="2671" type="passenger">
		<route edges="3450 3664 3525"/>
	</vehicle>
	<vehicle depart="0.1" departLane="0" departPos="47.08182710031258" departSpeed="0.0" id="2674" type="passenger">
		<route edges="3542"/>
	</vehicle>
	<vehicle depart="0.1" departLane="3" departPos="18.62639225606476" departSpeed="0.0" id="2675" type="passenger">
		<route edges="3426 3438 3450 3664 3525"/>
	</vehicle>
	<vehicle depart="0.1" departLane="1" departPos="74.2596340512287" departSpeed="0.0" id="2679" type="passenger">
		<route edges="3542"/>
	</vehicle>
	<vehicle depart="0.1" departLane="3" departPos="12.460562320189325" departSpeed="0.0" id="2680" type="passenger">
		<route edges="3426 3438 3450 3664 3525"/>
	</vehicle>
	<vehicle depart="0.1" departLane="1" departPos="64.28599224635347" departSpeed="0.0762" id="2681" type="passenger">
		<route edges="3542"/>
	</vehicle>
	<vehicle depart="0.1" departLane="0" departPos="39.301912358400045" departSpeed="0.0" id="2683" type="passenger">
		<route edges="3542"/>
	</vehicle>
	<vehicle depart="0.1" departLane="0" departPos="33.27516633261031" departSpeed="0.0" id="2694" type="passenger">
		<route edges="3542"/>
	</vehicle>
	<vehicle depart="0.1" departLane="1" departPos="55.40858411838402" departSpeed="0.0" id="2696" type="passenger">
		<route edges="3542"/>
	</vehicle>
	<vehicle depart="0.1" departLane="0" departPos="27.081205029004092" departSpeed="0.04572" id="2697" type="passenger">
		<route edges="3542"/>
	</vehicle>
	<vehicle depart="0.1" departLane="5" departPos="16.05052713373633" departSpeed="0.0" id="2704" type="passenger">
		<route edges="3450 3664 3525"/>
	</vehicle>
	<vehicle depart="0.1" departLane="2" departPos="74.2461753523541" departSpeed="0.0" id="2705" type="passenger">
		<route edges="3542"/>
	</vehicle>
	<vehicle depart="0.1" departLane="0" departPos="0" departSpeed="0.0" id="2706" type="passenger">
		<route edges="3542"/>
	</vehicle>
	<vehicle depart="0.1" departLane="3" departPos="29.455265030351704" departSpeed="0.0" id="2707" type="passenger">
		<route edges="3705 3426 3438 3450 3664 3525"/>
	</vehicle>
	<vehicle depart="0.1" departLane="2" departPos="61.60323149389901" departSpeed="0.0" id="2708" type="passenger">
		<route edges="3542"/>
	</vehicle>
	<vehicle depart="0.1" departLane="3" departPos="0" departSpeed="0.0" id="2709" type="passenger">
		<route edges="3426 3438 3450 3664 3525"/>
	</vehicle>
	<vehicle depart="0.1" departLane="0" departPos="0" departSpeed="0.0" id="2710" type="passenger">
		<route edges="3542"/>
	</vehicle>
	<vehicle depart="0.1" departLane="3" departPos="22.891139227682345" departSpeed="0.0" id="2712" type="passenger">
		<route edges="3450 3610 3646 3626 3542"/>
	</vehicle>
	<vehicle depart="0.1" departLane="5" departPos="0" departSpeed="0.0" id="2713" type="passenger">
		<route edges="3450 3664 3525"/>
	</vehicle>
	<vehicle depart="0.1" departLane="3" departPos="18.059676506469255" departSpeed="0.0" id="2715" type="passenger">
		<route edges="3705 3426 3438 3450 3664 3525"/>
	</vehicle>
	<vehicle depart="0.1" departLane="3" departPos="0" departSpeed="0.0" id="2716" type="passenger">
		<route edges="3705 3426 3438 3450 3664 3525"/>
	</vehicle>
	<vehicle depart="0.1" departLane="3" departPos="15.102707512279462" departSpeed="0.0" id="2718" type="passenger">
		<route edges="3450 3610 3646 3626 3542"/>
	</vehicle>
	<vehicle depart="0.1" departLane="2" departPos="53.52765556561032" departSpeed="0.0" id="2719" type="passenger">
		<route edges="3542"/>
	</vehicle>
	<vehicle depart="0.1" departLane="2" departPos="22.566766448261667" departSpeed="0.0" id="2722" type="passenger">
		<route edges="3450 3610 3646 3626 3542"/>
	</vehicle>
	<vehicle depart="0.1" departLane="1" departPos="22.515841208933804" departSpeed="0.0" id="2725" type="passenger">
		<route edges="3450 3610 3646 3626 3542"/>
	</vehicle>
	<vehicle depart="0.1" departLane="3" departPos="0" departSpeed="0.0" id="2728" type="passenger">
		<route edges="3450 3610 3646 3626 3542"/>
	</vehicle>
	<vehicle depart="0.1" departLane="2" departPos="18.682781133284735" departSpeed="0.085344" id="2730" type="passenger">
		<route edges="3450 3610 3646 3626 3542"/>
	</vehicle>
	<vehicle depart="0.1" departLane="5" departPos="0" departSpeed="0.0" id="2731" type="passenger">
		<route edges="3450 3664 3525"/>
	</vehicle>
	<vehicle depart="0.1" departLane="3" departPos="0" departSpeed="0.012192" id="2732" type="passenger">
		<route edges="3450 3610 3646 3626 3542"/>
	</vehicle>
	<vehicle depart="0.1" departLane="1" departPos="14.925730215700279" departSpeed="0.0" id="2733" type="passenger">
		<route edges="3450 3610 3646 3626 3542"/>
	</vehicle>
	<vehicle depart="0.1" departLane="2" departPos="0" departSpeed="0.0" id="2735" type="passenger">
		<route edges="3450 3610 3646 3626 3542"/>
	</vehicle>
	<vehicle depart="0.1" departLane="1" departPos="0" departSpeed="0.0" id="2737" type="passenger">
		<route edges="3450 3610 3646 3626 3542"/>
	</vehicle>
	<vehicle depart="0.1" departLane="4" departPos="18.78168224664508" departSpeed="0.0" id="2740" type="passenger">
		<route edges="3426 3438 3450 3664 3525"/>
	</vehicle>
	<vehicle depart="0.1" departLane="1" departPos="8.52073228807243" departSpeed="0.0" id="2741" type="passenger">
		<route edges="3438 3450 3610 3646 3626 3542"/>
	</vehicle>
	<vehicle depart="0.1" departLane="5" departPos="0" departSpeed="0.0" id="2742" type="passenger">
		<route edges="3438 3450 3664 3525"/>
	</vehicle>
	<vehicle depart="0.1" departLane="3" departPos="0" departSpeed="0.10973" id="2749" type="passenger">
		<route edges="3705 3426 3438 3450 3664 3525"/>
	</vehicle>
	<vehicle depart="0.1" departLane="4" departPos="0" departSpeed="8.8788" id="2751" type="passenger">
		<route edges="3705 3426 3438 3450 3664 3525"/>
	</vehicle>
	<vehicle depart="0.1" departLane="0" departPos="11.387100976970961" departSpeed="4.4806" id="2753" type="passenger">
		<route edges="3426 3438 3450 3610 3646 3626 3542"/>
	</vehicle>
	<vehicle depart="0.1" departLane="1" departPos="19.31167564660389" departSpeed="7.9614" id="2754" type="passenger">
		<route edges="3705 3426 3438 3450 3610 3646 3626 3542"/>
	</vehicle>
	<vehicle depart="0.1" departLane="1" departPos="0" departSpeed="10.1651" id="2757" type="passenger">
		<route edges="3456 3456 3462 3468 3713"/>
	</vehicle>
	<vehicle depart="0.1" departLane="1" departPos="47.08668512312134" departSpeed="0.0" id="2759" type="passenger">
		<route edges="3568 3680 3525"/>
	</vehicle>
	<vehicle depart="0.1" departLane="2" departPos="47.116916666997874" departSpeed="0.0" id="2761" type="passenger">
		<route edges="3568 3632 3652 3616 3456 3462 3468 3713"/>
	</vehicle>
	<vehicle depart="0.1" departLane="1" departPos="38.233470666545294" departSpeed="0.0" id="2763" type="passenger">
		<route edges="3568 3680 3525"/>
	</vehicle>
	<vehicle depart="0.1" departLane="2" departPos="33.22010780363915" departSpeed="0.0" id="2764" type="passenger">
		<route edges="3568 3632 3652 3616 3456 3462 3468 3713"/>
	</vehicle>
	<vehicle depart="0.1" departLane="2" departPos="28.069112180136088" departSpeed="0.073152" id="2765" type="passenger">
		<route edges="3568 3632 3652 3616 3456 3462 3468 3713"/>
	</vehicle>
	<vehicle depart="0.1" departLane="2" departPos="8.47996204354713" departSpeed="0.0" id="2766" type="passenger">
		<route edges="3438 3450 3610 3646 3626 3542"/>
	</vehicle>
	<vehicle depart="0.1" departLane="2" departPos="0" departSpeed="0.039624" id="2768" type="passenger">
		<route edges="3632 3652 3616 3456 3462 3468 3713"/>
	</vehicle>
	<vehicle depart="0.1" departLane="1" departPos="29.654533010607572" departSpeed="0.17069" id="2773" type="passenger">
		<route edges="3568 3680 3525"/>
	</vehicle>
	<vehicle depart="0.1" departLane="0" departPos="47.200910188760794" departSpeed="3.0023" id="2774" type="passenger">
		<route edges="3568 3680 3525"/>
	</vehicle>
	<vehicle depart="0.1" departLane="0" departPos="6.8158800614398585" departSpeed="4.2093" id="2775" type="passenger">
		<route edges="3680 3525"/>
	</vehicle>
	<vehicle depart="0.1" departLane="3" departPos="47.161908523916466" departSpeed="0.012192" id="2776" type="passenger">
		<route edges="3568 3632 3652 3616 3456 3462 3468 3713"/>
	</vehicle>
	<vehicle depart="0.1" departLane="3" departPos="32.60356865766759" departSpeed="0.009144" id="2783" type="passenger">
		<route edges="3568 3632 3652 3616 3456 3462 3468 3713"/>
	</vehicle>
	<vehicle depart="0.1" departLane="1" departPos="21.599052444900348" departSpeed="0.13716" id="2784" type="passenger">
		<route edges="3568 3680 3525"/>
	</vehicle>
	<vehicle depart="0.1" departLane="1" departPos="0" departSpeed="0.67666" id="2785" type="passenger">
		<route edges="3568 3680 3525"/>
	</vehicle>
	<vehicle depart="0.1" departLane="2" departPos="21.962292081742238" departSpeed="0.0" id="2786" type="passenger">
		<route edges="3568 3632 3652 3616 3456 3462 3468 3713"/>
	</vehicle>
	<vehicle depart="0.1" departLane="1" departPos="0" departSpeed="1.1704" id="2787" type="passenger">
		<route edges="3568 3680 3525"/>
	</vehicle>
	<vehicle depart="0.1" departLane="2" departPos="0" departSpeed="0.0" id="2788" type="passenger">
		<route edges="3568 3632 3652 3616 3456 3462 3468 3713"/>
	</vehicle>
	<vehicle depart="0.1" departLane="1" departPos="12.623869324132535" departSpeed="0.69494" id="2792" type="passenger">
		<route edges="3559 3568 3680 3525"/>
	</vehicle>
	<vehicle depart="0.1" departLane="2" departPos="0" departSpeed="0.012192" id="2794" type="passenger">
		<route edges="3568 3632 3652 3616 3456 3462 3468 3713"/>
	</vehicle>
	<vehicle depart="0.1" departLane="0" departPos="20.446656657584136" departSpeed="1.14" id="2795" type="passenger">
		<route edges="3568 3680 3525"/>
	</vehicle>
	<vehicle depart="0.1" departLane="1" departPos="0" departSpeed="0.762" id="2797" type="passenger">
		<route edges="3559 3568 3680 3525"/>
	</vehicle>
	<vehicle depart="0.1" departLane="3" departPos="21.678230076948008" departSpeed="4.6391" id="2798" type="passenger">
		<route edges="3568 3632 3652 3616 3456 3462 3468 3713"/>
	</vehicle>
	<vehicle depart="0.1" departLane="0" departPos="22.672662786923283" departSpeed="4.9865" id="2799" type="passenger">
		<route edges="3672 3616 3456 3456 3462 3468 3713"/>
	</vehicle>
	<vehicle depart="0.1" departLane="1" departPos="0" departSpeed="1.2009" id="2802" type="passenger">
		<route edges="3555 3559 3568 3680 3525"/>
	</vehicle>
	<vehicle depart="0.1" departLane="0" departPos="0" departSpeed="7.937" id="2803" type="passenger">
		<route edges="3559 3568 3680 3525"/>
	</vehicle>
	<vehicle depart="0.1" departLane="0" departPos="6.641079694221416" departSpeed="0.0" id="2804" type="passenger">
		<route edges="3536 3602 3456 3462 3468 3713"/>
	</vehicle>
	<vehicle depart="0.1" departLane="0" departPos="0" departSpeed="4.3312" id="2807" type="passenger">
		<route edges="3672 3670 3646 3664 3662 3664 3664 3672 3616 3456 3456 3462 3468 3468 3713"/>
	</vehicle>
	<vehicle depart="0.1" departLane="1" departPos="6.630002608219698" departSpeed="0.0" id="2808" type="passenger">
		<route edges="3536 3620 3662 3640 3517"/>
	</vehicle>
	<vehicle depart="0.1" departLane="2" departPos="6.608363657139338" departSpeed="1.2283" id="2810" type="passenger">
		<route edges="3536 3620 3662 3640 3517"/>
	</vehicle>
</routes>
