<routes>
	<vehicle depart="0.1" departLane="0" departPos="38.35896849409022" departSpeed="1.1632704" id="32" type="passenger">
		<route edges=":42_0 95989 95991"/>
	</vehicle>
	<vehicle depart="0.1" departLane="0" departPos="30.96916754017365" departSpeed="0.043602607" id="33" type="passenger">
		<route edges=":42_0 95989"/>
	</vehicle>
	<vehicle depart="0.1" departLane="0" departPos="8.466362342585505" departSpeed="0.0" id="310" type="passenger">
		<route edges="95995 97441"/>
	</vehicle>
	<vehicle depart="0.1" departLane="0" departPos="8.72823280025258" departSpeed="2.6361132" id="312" type="passenger">
		<route edges=":43_1 95991 96091"/>
	</vehicle>
	<vehicle depart="0.1" departLane="0" departPos="9.92512296054983" departSpeed="0.97688585" id="314" type="passenger">
		<route edges=":42_0 95989"/>
	</vehicle>
	<vehicle depart="0.1" departLane="0" departPos="2.5" departSpeed="6.2196686" id="325" type="passenger">
		<route edges=":42_1 96006"/>
	</vehicle>
	<vehicle depart="0.1" departLane="1" departPos="2.5" departSpeed="5.9191903" id="332" type="passenger">
		<route edges=":40_1 96097"/>
	</vehicle>
	<vehicle depart="0.1" departLane="0" departPos="4.054270228241171" departSpeed="2.1458424" id="328" type="motorcycle">
		<route edges=":41_0 95866 96006"/>
	</vehicle>
	<vehicle depart="0.1" departLane="0" departPos="17.963507586987916" departSpeed="0.55471378" id="30" type="truck">
		<route edges=":40_1 96097"/>
	</vehicle>
	<vehicle depart="0.1" departLane="0" departPos="7.719455470167159" departSpeed="2.8798935" id="311" type="truck">
		<route edges=":39_0 96091 96094 96097"/>
	</vehicle>
</routes>
