<!-- generated on Tue Feb  9 22:13:36 2021 by Eclipse SUMO netconvert Version 1.8.0
<configuration xmlns:xsi="http://www.w3.org/2001/XMLSchema-instance" xsi:noNamespaceSchemaLocation="http://sumo.dlr.de/xsd/netconvertConfiguration.xsd">

    <input>
        <node-files value="./converted_scenarios/scenario-factory/ITA_Foggia-3_1_I-1-1/ITA_Foggia-3_1_I-1-1.nod.xml"/>
        <edge-files value="./converted_scenarios/scenario-factory/ITA_Foggia-3_1_I-1-1/ITA_Foggia-3_1_I-1-1.edg.xml"/>
        <connection-files value="./converted_scenarios/scenario-factory/ITA_Foggia-3_1_I-1-1/ITA_Foggia-3_1_I-1-1.con.xml"/>
        <tllogic-files value="./converted_scenarios/scenario-factory/ITA_Foggia-3_1_I-1-1/ITA_Foggia-3_1_I-1-1.tll.xml"/>
        <type-files value="/home/zen/commonroad-interactive-benchmarks/install/commonroad-map-tool/crmapconverter/sumo_map/templates/DEU.typ.xml"/>
    </input>

    <output>
        <output-file value="./converted_scenarios/scenario-factory/ITA_Foggia-3_1_I-1-1/ITA_Foggia-3_1_I-1-1.net.xml"/>
    </output>

    <processing>
        <geometry.remove.keep-edges.explicit value="true"/>
        <geometry.avoid-overlap value="true"/>
        <offset.disable-normalization value="true"/>
    </processing>

    <junctions>
        <no-turnarounds value="true"/>
        <junctions.internal-link-detail value="20"/>
    </junctions>

    <report>
        <aggregate-warnings value="5"/>
    </report>

    <random_number>
        <seed value="1234"/>
    </random_number>

</configuration>
--><net xmlns:xsi="http://www.w3.org/2001/XMLSchema-instance" version="1.6" junctionCornerDetail="5" junctionLinkDetail="20" limitTurnSpeed="5.50" xsi:noNamespaceSchemaLocation="http://sumo.dlr.de/xsd/net_file.xsd">

    <location netOffset="0.00,0.00" convBoundary="-387.16,-676.47,-239.77,-526.54" origBoundary="-388.63,-676.82,-239.77,-525.79" projParameter="!"/>

    <type id="highway.bridleway" priority="1" speed="2.78" allow="pedestrian" oneway="1" width="2.00"/>
    <type id="highway.bus_guideway" priority="1" speed="27.78" allow="bus" oneway="1"/>
    <type id="highway.cycleway" priority="1" speed="8.33" allow="bicycle" oneway="0" width="1.00"/>
    <type id="highway.footway" priority="1" speed="2.78" allow="pedestrian" oneway="1" width="2.00"/>
    <type id="highway.ford" priority="1" speed="2.78" allow="army" oneway="0"/>
    <type id="highway.living_street" priority="2" speed="2.78" disallow="tram rail_urban rail rail_electric rail_fast ship" oneway="0"/>
    <type id="highway.motorway" priority="14" speed="39.44" allow="private emergency authority army vip passenger hov taxi bus coach delivery truck trailer motorcycle evehicle custom1 custom2" oneway="1"/>
    <type id="highway.motorway_link" priority="9" speed="22.22" allow="private emergency authority army vip passenger hov taxi bus coach delivery truck trailer motorcycle evehicle custom1 custom2" oneway="1"/>
    <type id="highway.path" priority="1" speed="2.78" allow="pedestrian bicycle" oneway="0" width="2.00"/>
    <type id="highway.pedestrian" priority="1" speed="2.78" allow="pedestrian" oneway="1" width="2.00"/>
    <type id="highway.primary" priority="12" speed="27.78" disallow="pedestrian tram rail_urban rail rail_electric rail_fast ship" oneway="0"/>
    <type id="highway.primary_link" priority="7" speed="22.22" disallow="pedestrian tram rail_urban rail rail_electric rail_fast ship" oneway="0"/>
    <type id="highway.raceway" priority="15" speed="83.33" allow="vip" oneway="0"/>
    <type id="highway.residential" priority="3" speed="13.89" disallow="pedestrian tram rail_urban rail rail_electric rail_fast ship" oneway="0"/>
    <type id="highway.secondary" priority="11" speed="27.78" disallow="pedestrian tram rail_urban rail rail_electric rail_fast ship" oneway="0"/>
    <type id="highway.secondary_link" priority="6" speed="22.22" disallow="pedestrian tram rail_urban rail rail_electric rail_fast ship" oneway="0"/>
    <type id="highway.service" priority="1" speed="5.56" allow="pedestrian delivery bicycle" oneway="0"/>
    <type id="highway.stairs" priority="1" speed="1.39" allow="pedestrian" oneway="1" width="2.00"/>
    <type id="highway.step" priority="1" speed="1.39" allow="pedestrian" oneway="1" width="2.00"/>
    <type id="highway.steps" priority="1" speed="1.39" allow="pedestrian" oneway="1" width="2.00"/>
    <type id="highway.tertiary" priority="10" speed="22.22" disallow="pedestrian tram rail_urban rail rail_electric rail_fast ship" oneway="0"/>
    <type id="highway.tertiary_link" priority="5" speed="22.22" disallow="pedestrian tram rail_urban rail rail_electric rail_fast ship" oneway="0"/>
    <type id="highway.track" priority="1" speed="5.56" allow="pedestrian motorcycle moped bicycle" oneway="0"/>
    <type id="highway.trunk" priority="13" speed="27.78" disallow="pedestrian bicycle tram rail_urban rail rail_electric rail_fast ship" oneway="0"/>
    <type id="highway.trunk_link" priority="8" speed="22.22" disallow="pedestrian bicycle tram rail_urban rail rail_electric rail_fast ship" oneway="0"/>
    <type id="highway.unclassified" priority="4" speed="13.89" disallow="pedestrian tram rail_urban rail rail_electric rail_fast ship" oneway="0"/>
    <type id="highway.unsurfaced" priority="1" speed="8.33" disallow="tram rail_urban rail rail_electric rail_fast ship" oneway="0"/>
    <type id="railway.highspeed" priority="21" speed="69.44" allow="rail_fast" oneway="1"/>
    <type id="railway.light_rail" priority="19" speed="27.78" allow="rail_urban" oneway="1"/>
    <type id="railway.preserved" priority="16" speed="27.78" allow="rail" oneway="1"/>
    <type id="railway.rail" priority="20" speed="44.44" allow="rail" oneway="1"/>
    <type id="railway.subway" priority="18" speed="27.78" allow="rail_urban" oneway="1"/>
    <type id="railway.tram" priority="17" speed="13.89" allow="tram" oneway="1"/>

    <edge id=":30_0" function="internal">
        <lane id=":30_0_0" index="0" disallow="pedestrian tram rail_urban rail rail_electric rail_fast ship" speed="36.11" length="3.03" width="3.50" shape="-348.57,-619.25 -346.96,-616.68"/>
        <lane id=":30_0_1" index="1" disallow="pedestrian tram rail_urban rail rail_electric rail_fast ship" speed="36.11" length="3.00" width="3.50" shape="-351.52,-617.36 -349.92,-614.82"/>
    </edge>
    <edge id=":36_0" function="internal">
        <lane id=":36_0_0" index="0" disallow="pedestrian tram rail_urban rail rail_electric rail_fast ship" speed="36.11" length="4.09" width="3.50" shape="-334.44,-593.29 -333.43,-591.57 -332.39,-589.75"/>
        <lane id=":36_0_1" index="1" disallow="pedestrian tram rail_urban rail rail_electric rail_fast ship" speed="36.11" length="4.05" width="3.50" shape="-337.46,-591.43 -336.47,-589.84 -335.38,-587.95"/>
    </edge>
    <edge id=":36_2" function="internal">
        <lane id=":36_2_0" index="0" disallow="pedestrian tram rail_urban rail rail_electric rail_fast ship" speed="5.21" length="5.04" width="3.50" shape="-339.98,-589.19 -339.63,-589.34 -339.02,-589.49 -338.38,-589.52 -337.76,-589.43 -337.16,-589.21 -336.12,-588.49 -335.54,-587.85"/>
    </edge>
    <edge id=":37_0" function="internal">
        <lane id=":37_0_0" index="0" disallow="pedestrian tram rail_urban rail rail_electric rail_fast ship" speed="10.32" length="9.39" width="3.45" shape="-345.54,-596.91 -346.16,-597.05 -346.67,-597.23 -347.09,-597.45 -347.43,-597.71 -347.70,-598.00 -347.90,-598.33 -348.05,-598.68 -348.16,-599.06 -348.24,-599.47 -348.30,-599.90 -348.36,-600.36 -348.41,-600.83 -348.47,-601.32 -348.56,-601.83 -348.68,-602.35 -348.85,-602.88 -349.07,-603.42 -349.35,-603.97 -349.71,-604.53"/>
    </edge>
    <edge id=":37_1" function="internal">
        <lane id=":37_1_0" index="0" disallow="pedestrian tram rail_urban rail rail_electric rail_fast ship" speed="5.30" length="8.95" width="3.43" shape="-343.61,-596.59 -344.86,-596.89 -345.71,-597.19 -346.50,-597.63 -347.08,-598.30 -347.11,-599.18 -346.67,-599.96 -346.05,-600.61 -344.21,-601.99"/>
    </edge>
    <edge id=":37_2" function="internal">
        <lane id=":37_2_0" index="0" disallow="pedestrian tram rail_urban rail rail_electric rail_fast ship" speed="7.54" length="11.73" width="3.50" shape="-353.15,-595.81 -352.54,-596.28 -351.99,-596.75 -351.49,-597.23 -351.04,-597.72 -350.65,-598.21 -350.31,-598.71 -350.03,-599.22 -349.79,-599.74 -349.61,-600.26 -349.49,-600.79 -349.41,-601.33 -349.39,-601.88 -349.43,-602.43 -349.51,-602.99 -349.65,-603.56 -349.84,-604.14 -350.09,-604.72 -350.39,-605.31 -350.74,-605.91"/>
    </edge>
    <edge id=":37_3" function="internal">
        <lane id=":37_3_0" index="0" disallow="pedestrian tram rail_urban rail rail_electric rail_fast ship" speed="36.11" length="10.87" width="3.43" shape="-353.15,-595.81 -347.35,-599.88 -344.21,-601.99"/>
    </edge>
    <edge id=":39_0" function="internal">
        <lane id=":39_0_0" index="0" disallow="pedestrian tram rail_urban rail rail_electric rail_fast ship" speed="5.22" length="6.04" width="3.48" shape="-333.00,-597.93 -334.39,-597.25 -334.95,-596.85 -335.38,-596.34 -335.57,-595.69 -334.54,-593.46"/>
    </edge>
    <edge id=":39_1" function="internal">
        <lane id=":39_1_0" index="0" disallow="pedestrian tram rail_urban rail rail_electric rail_fast ship" speed="16.71" length="12.58" width="3.45" shape="-333.00,-597.93 -336.06,-597.01 -339.17,-596.41 -341.27,-596.29 -345.34,-596.88"/>
    </edge>
    <edge id=":39_2" function="internal">
        <lane id=":39_2_0" index="0" disallow="pedestrian tram rail_urban rail rail_electric rail_fast ship" speed="36.11" length="7.49" width="3.48" shape="-338.07,-600.07 -336.97,-598.00 -334.54,-593.46"/>
        <lane id=":39_2_1" index="1" disallow="pedestrian tram rail_urban rail rail_electric rail_fast ship" speed="36.11" length="7.73" width="3.50" shape="-341.16,-598.44 -340.07,-596.36 -337.55,-591.60"/>
    </edge>
    <edge id=":39_4" function="internal">
        <lane id=":39_4_0" index="0" disallow="pedestrian tram rail_urban rail rail_electric rail_fast ship" speed="4.71" length="6.21" width="3.45" shape="-341.16,-598.44 -341.24,-598.49 -340.98,-597.62 -341.14,-596.75 -341.94,-596.37 -345.34,-596.88"/>
    </edge>
    <edge id=":40_0" function="internal">
        <lane id=":40_0_0" index="0" disallow="pedestrian tram rail_urban rail rail_electric rail_fast ship" speed="22.84" length="31.78" width="3.50" shape="-329.55,-595.14 -329.51,-589.34 -328.88,-586.84 -327.58,-583.47 -325.29,-578.84 -321.93,-573.03 -317.67,-566.36"/>
    </edge>
    <edge id=":40_1" function="internal">
        <lane id=":40_1_0" index="0" disallow="pedestrian tram rail_urban rail rail_electric rail_fast ship" speed="36.11" length="29.97" width="3.50" shape="-333.63,-591.72 -324.13,-576.32 -317.67,-566.36"/>
        <lane id=":40_1_1" index="1" disallow="pedestrian tram rail_urban rail rail_electric rail_fast ship" speed="36.11" length="30.11" width="3.50" shape="-336.61,-589.93 -327.07,-574.43 -320.59,-564.44"/>
    </edge>
    <edge id=":41_0" function="internal">
        <lane id=":41_0_0" index="0" disallow="pedestrian tram rail_urban rail rail_electric rail_fast ship" speed="6.40" length="9.24" width="3.50" shape="-342.82,-609.68 -341.56,-607.21 -341.14,-606.75 -340.62,-606.41 -340.02,-606.24 -339.40,-606.22 -338.18,-606.49 -336.49,-607.29 -335.76,-607.75"/>
    </edge>
    <edge id=":41_1" function="internal">
        <lane id=":41_1_0" index="0" disallow="pedestrian tram rail_urban rail rail_electric rail_fast ship" speed="36.11" length="10.52" width="3.50" shape="-342.82,-609.68 -339.22,-602.27 -338.16,-600.25"/>
        <lane id=":41_1_1" index="1" disallow="pedestrian tram rail_urban rail rail_electric rail_fast ship" speed="36.11" length="10.71" width="3.50" shape="-346.00,-608.22 -342.33,-600.66 -341.25,-598.62"/>
    </edge>
    <edge id=":41_3" function="internal">
        <lane id=":41_3_0" index="0" disallow="pedestrian tram rail_urban rail rail_electric rail_fast ship" speed="36.11" length="10.01" width="3.50" shape="-344.04,-602.11 -339.92,-604.91 -335.76,-607.74"/>
    </edge>
    <edge id=":41_4" function="internal">
        <lane id=":41_4_0" index="0" disallow="pedestrian tram rail_urban rail rail_electric rail_fast ship" speed="4.74" length="4.57" width="3.50" shape="-344.04,-602.11 -343.79,-601.96 -343.23,-601.65 -342.40,-600.66 -341.25,-598.62"/>
    </edge>
    <edge id=":42_0" function="internal">
        <lane id=":42_0_0" index="0" disallow="pedestrian tram rail_urban rail rail_electric rail_fast ship" speed="36.11" length="20.40" width="3.50" shape="-294.38,-629.95 -300.20,-625.06 -307.29,-618.53 -309.58,-616.35"/>
    </edge>
    <edge id=":42_1" function="internal">
        <lane id=":42_1_0" index="0" disallow="pedestrian tram rail_urban rail rail_electric rail_fast ship" speed="36.11" length="20.89" width="3.50" shape="-313.94,-621.10 -309.03,-624.00 -302.67,-628.16 -297.36,-632.06 -296.57,-632.68"/>
    </edge>
    <edge id=":43_0" function="internal">
        <lane id=":43_0_0" index="0" disallow="pedestrian tram rail_urban rail rail_electric rail_fast ship" speed="8.38" length="6.69" width="3.50" shape="-325.60,-600.89 -326.27,-600.09 -327.73,-597.82 -328.66,-595.87 -328.89,-595.12"/>
    </edge>
    <edge id=":43_1" function="internal">
        <lane id=":43_1_0" index="0" disallow="pedestrian tram rail_urban rail rail_electric rail_fast ship" speed="18.06" length="7.59" width="3.49" shape="-326.08,-601.44 -327.62,-600.40 -330.37,-598.95 -332.81,-597.99"/>
    </edge>
    <edge id=":44_0" function="internal">
        <lane id=":44_0_0" index="0" disallow="pedestrian tram rail_urban rail rail_electric rail_fast ship" speed="36.11" length="4.99" width="3.50" shape="-357.75,-592.31 -357.49,-592.58 -357.25,-592.81 -357.03,-593.02 -356.82,-593.20 -356.64,-593.37 -356.46,-593.51 -356.29,-593.65 -356.12,-593.77 -355.96,-593.88 -355.79,-593.99 -355.63,-594.10 -355.45,-594.22 -355.27,-594.33 -355.07,-594.46 -354.86,-594.60 -354.63,-594.75 -354.38,-594.92 -354.10,-595.12 -353.80,-595.33"/>
    </edge>
    <edge id=":44_1" function="internal">
        <lane id=":44_1_0" index="0" disallow="pedestrian tram rail_urban rail rail_electric rail_fast ship" speed="36.11" length="3.01" width="3.50" shape="-350.34,-582.42 -347.93,-584.22"/>
    </edge>

    <edge id="95864" from="43" to="40" priority="3" type="highway.residential" spreadType="center" length="0.20">
        <lane id="95864_0" index="0" disallow="pedestrian tram rail_urban rail rail_electric rail_fast ship" speed="36.11" length="0.20" width="3.50" customShape="1" shape="-329.55,-595.34 -329.55,-595.14"/>
    </edge>
    <edge id="95866" from="41" to="42" priority="3" type="highway.residential" spreadType="center" length="25.38">
        <lane id="95866_0" index="0" disallow="pedestrian tram rail_urban rail rail_electric rail_fast ship" speed="36.11" length="25.38" width="3.50" customShape="1" shape="-335.76,-607.74 -334.80,-608.38 -314.74,-621.97"/>
    </edge>
    <edge id="95904" from="39" to="37" priority="3" type="highway.residential" spreadType="center" length="0.20">
        <lane id="95904_0" index="0" disallow="pedestrian tram rail_urban rail rail_electric rail_fast ship" speed="36.11" length="0.20" width="3.45" customShape="1" shape="-345.34,-596.88 -345.54,-596.91"/>
    </edge>
    <edge id="95923" from="31" to="30" priority="3" type="highway.residential" spreadType="center" length="68.50">
        <lane id="95923_0" index="0" disallow="pedestrian tram rail_urban rail rail_electric rail_fast ship" speed="36.11" length="68.50" width="3.50" customShape="1" shape="-385.68,-676.83 -378.18,-665.19 -348.57,-619.25"/>
        <lane id="95923_1" index="1" disallow="pedestrian tram rail_urban rail rail_electric rail_fast ship" speed="36.11" length="68.50" width="3.50" customShape="1" shape="-388.63,-674.94 -381.12,-663.29 -351.52,-617.36"/>
    </edge>
    <edge id="95989" from="42" to="43" priority="3" type="highway.residential" spreadType="center" length="22.25">
        <lane id="95989_0" index="0" disallow="pedestrian tram rail_urban rail rail_electric rail_fast ship" speed="36.11" length="22.25" width="3.50" customShape="1" shape="-309.27,-616.01 -322.14,-604.52 -325.86,-601.19"/>
    </edge>
    <edge id="95991" from="43" to="39" priority="3" type="highway.residential" spreadType="center" length="0.20">
        <lane id="95991_0" index="0" disallow="pedestrian tram rail_urban rail rail_electric rail_fast ship" speed="36.11" length="0.20" width="3.49" customShape="1" shape="-332.81,-597.99 -333.00,-597.93"/>
    </edge>
    <edge id="95995" from="44" to="37" priority="3" type="highway.residential" spreadType="center" length="0.81">
        <lane id="95995_0" index="0" disallow="pedestrian tram rail_urban rail rail_electric rail_fast ship" speed="36.11" length="0.81" width="3.50" customShape="1" shape="-353.80,-595.33 -353.54,-595.53 -353.15,-595.81"/>
    </edge>
    <edge id="95997" from="37" to="41" priority="3" type="highway.residential" spreadType="center" length="0.21">
        <lane id="95997_0" index="0" disallow="pedestrian tram rail_urban rail rail_electric rail_fast ship" speed="36.11" length="0.21" width="3.43" customShape="1" shape="-344.21,-601.99 -344.04,-602.11"/>
    </edge>
    <edge id="96005" from="27" to="42" priority="3" type="highway.residential" spreadType="center" length="70.00" shape="-239.77,-673.75 -310.73,-617.62">
        <lane id="96005_0" index="0" disallow="pedestrian tram rail_urban rail rail_electric rail_fast ship" speed="36.11" length="70.00" width="3.50" customShape="1" shape="-239.77,-673.75 -294.38,-629.95"/>
    </edge>
    <edge id="96006" from="42" to="24" priority="3" type="highway.residential" spreadType="center" length="70.00" shape="-312.90,-620.36 -241.96,-676.47">
        <lane id="96006_0" index="0" disallow="pedestrian tram rail_urban rail rail_electric rail_fast ship" speed="36.11" length="70.00" width="3.50" customShape="1" shape="-296.57,-632.68 -241.96,-676.47"/>
    </edge>
    <edge id="96029" from="30" to="41" priority="3" type="highway.residential" spreadType="center" length="7.68">
        <lane id="96029_0" index="0" disallow="pedestrian tram rail_urban rail rail_electric rail_fast ship" speed="36.11" length="8.14" width="3.50" customShape="1" shape="-346.96,-616.68 -344.12,-612.08 -342.82,-609.68"/>
        <lane id="96029_1" index="1" disallow="pedestrian tram rail_urban rail rail_electric rail_fast ship" speed="36.11" length="7.68" width="3.50" customShape="1" shape="-349.92,-614.82 -347.21,-610.43 -346.00,-608.22"/>
    </edge>
    <edge id="96088" from="41" to="39" priority="3" type="highway.residential" spreadType="center" length="0.20">
        <lane id="96088_0" index="0" disallow="pedestrian tram rail_urban rail rail_electric rail_fast ship" speed="36.11" length="0.20" width="3.50" customShape="1" shape="-338.16,-600.25 -338.07,-600.07"/>
        <lane id="96088_1" index="1" disallow="pedestrian tram rail_urban rail rail_electric rail_fast ship" speed="36.11" length="0.20" width="3.50" customShape="1" shape="-341.25,-598.62 -341.16,-598.44"/>
    </edge>
    <edge id="96091" from="39" to="36" priority="3" type="highway.residential" spreadType="center" length="0.19">
        <lane id="96091_0" index="0" disallow="pedestrian tram rail_urban rail rail_electric rail_fast ship" speed="36.11" length="0.20" width="3.48" customShape="1" shape="-334.54,-593.46 -334.44,-593.29"/>
        <lane id="96091_1" index="1" disallow="pedestrian tram rail_urban rail rail_electric rail_fast ship" speed="36.11" length="0.19" width="3.50" customShape="1" shape="-337.55,-591.60 -337.46,-591.43"/>
    </edge>
    <edge id="96094" from="36" to="40" priority="3" type="highway.residential" spreadType="center" length="0.20">
        <lane id="96094_0" index="0" disallow="pedestrian tram rail_urban rail rail_electric rail_fast ship" speed="36.11" length="0.20" width="3.50" acceleration="1" customShape="1" shape="-333.73,-591.89 -333.63,-591.72"/>
        <lane id="96094_1" index="1" disallow="pedestrian tram rail_urban rail rail_electric rail_fast ship" speed="36.11" length="0.20" width="3.50" customShape="1" shape="-336.71,-590.10 -336.61,-589.93"/>
    </edge>
    <edge id="96097" from="40" to="23" priority="3" type="highway.residential" spreadType="center" length="38.63">
        <lane id="96097_0" index="0" disallow="pedestrian tram rail_urban rail rail_electric rail_fast ship" speed="36.11" length="38.63" width="3.50" customShape="1" shape="-317.67,-566.36 -307.38,-550.73 -296.43,-534.09"/>
        <lane id="96097_1" index="1" disallow="pedestrian tram rail_urban rail rail_electric rail_fast ship" speed="36.11" length="38.63" width="3.50" customShape="1" shape="-320.59,-564.44 -310.31,-548.81 -299.36,-532.17"/>
    </edge>
    <edge id="96137" from="44" to="36" priority="3" type="highway.residential" spreadType="center" length="9.38">
        <lane id="96137_0" index="0" disallow="pedestrian tram rail_urban rail rail_electric rail_fast ship" speed="36.11" length="9.38" width="3.50" customShape="1" shape="-347.93,-584.22 -344.44,-586.64 -340.90,-588.74 -340.44,-588.97 -340.33,-589.03 -339.99,-589.20"/>
    </edge>
    <edge id="97429" from="45" to="44" priority="3" type="highway.residential" spreadType="center" length="64.25">
        <lane id="97429_0" index="0" disallow="pedestrian tram rail_urban rail rail_electric rail_fast ship" speed="36.11" length="64.25" width="3.50" customShape="1" shape="-379.59,-526.55 -377.66,-534.28 -375.46,-541.68 -373.08,-548.48 -370.54,-554.67 -367.87,-560.23 -365.11,-565.18 -362.33,-569.50 -359.24,-573.62 -356.19,-577.10 -352.88,-580.33 -350.34,-582.42"/>
    </edge>
    <edge id="97434" from="45" to="44" priority="3" type="highway.residential" spreadType="center" length="69.73">
        <lane id="97434_0" index="0" disallow="pedestrian tram rail_urban rail rail_electric rail_fast ship" speed="36.11" length="69.73" width="3.50" customShape="1" shape="-379.60,-526.55 -375.56,-543.57 -371.95,-557.31 -368.80,-568.02 -366.05,-576.19 -363.64,-582.33 -361.71,-586.47 -359.95,-589.56 -358.45,-591.60 -357.75,-592.31"/>
    </edge>
    <edge id="97441" from="37" to="38" priority="3" type="highway.residential" spreadType="center" length="0.40">
        <lane id="97441_0" index="0" disallow="pedestrian tram rail_urban rail rail_electric rail_fast ship" speed="36.11" length="0.40" width="3.50" customShape="1" shape="-350.74,-605.91 -350.95,-606.25"/>
    </edge>
    <edge id="97919" from="37" to="38" priority="3" type="highway.residential" spreadType="center" length="2.12">
        <lane id="97919_0" index="0" disallow="pedestrian tram rail_urban rail rail_electric rail_fast ship" speed="36.11" length="2.12" width="3.45" customShape="1" shape="-349.71,-604.53 -350.95,-606.25"/>
    </edge>

    <junction id="23" type="dead_end" x="-297.90" y="-533.13" incLanes="96097_0 96097_1" intLanes="" shape="-294.97,-535.06 -300.82,-531.21" rightOfWay="edgePriority"/>
    <junction id="24" type="dead_end" x="-241.96" y="-676.47" incLanes="96006_0" intLanes="" shape="-243.06,-677.84 -240.87,-675.11" rightOfWay="edgePriority"/>
    <junction id="27" type="dead_end" x="-239.77" y="-673.75" incLanes="" intLanes="" shape="-240.86,-675.11 -238.67,-672.38" rightOfWay="edgePriority"/>
    <junction id="30" type="priority" x="-349.24" y="-617.04" incLanes="95923_0 95923_1" intLanes=":30_0_0 :30_0_1" shape="-351.41,-613.89 -345.48,-617.61 -347.10,-620.19 -352.99,-616.41" rightOfWay="edgePriority">
        <request index="0" response="00" foes="00" cont="0"/>
        <request index="1" response="00" foes="00" cont="0"/>
    </junction>
    <junction id="31" type="dead_end" x="-387.16" y="-675.88" incLanes="" intLanes="" shape="-390.10,-673.99 -384.21,-677.78" rightOfWay="edgePriority"/>
    <junction id="36" type="priority" x="-336.70" y="-590.16" incLanes="96091_0 96091_1 96137_0" intLanes=":36_0_0 :36_0_1 :36_2_0" shape="-336.91,-587.03 -330.92,-590.63 -334.00,-596.09 -340.14,-592.78 -340.78,-590.76 -339.19,-587.65 -338.29,-587.91 -337.89,-587.87 -337.53,-587.70 -337.20,-587.42">
        <request index="0" response="000" foes="100" cont="0"/>
        <request index="1" response="000" foes="100" cont="0"/>
        <request index="2" response="011" foes="011" cont="0"/>
    </junction>
    <junction id="37" type="priority" x="-345.93" y="-598.75" incLanes="95904_0 95995_0" intLanes=":37_0_0 :37_1_0 :37_2_0 :37_3_0" shape="-343.92,-594.87 -343.31,-598.27 -342.88,-600.82 -344.79,-603.66 -347.96,-604.68 -353.61,-607.18 -348.71,-606.09 -350.71,-602.97 -350.42,-601.40 -350.81,-600.49 -351.55,-599.50 -352.66,-598.42 -354.12,-597.27 -352.17,-594.36 -350.28,-595.12 -349.02,-595.28 -347.53,-595.29 -345.83,-595.16">
        <request index="0" response="1100" foes="1100" cont="0"/>
        <request index="1" response="1000" foes="1000" cont="0"/>
        <request index="2" response="0000" foes="0001" cont="0"/>
        <request index="3" response="0000" foes="0011" cont="0"/>
    </junction>
    <junction id="38" type="dead_end" x="-350.95" y="-606.25" incLanes="97441_0 97919_0" intLanes="" shape="-352.43,-605.31 -349.47,-607.18 -352.35,-605.24 -349.55,-607.26"/>
    <junction id="39" type="priority" x="-338.10" y="-597.22" incLanes="95991_0 96088_0 96088_1" intLanes=":39_0_0 :39_1_0 :39_2_0 :39_2_1 :39_4_0" shape="-338.19,-589.05 -331.90,-592.28 -330.06,-597.11 -331.22,-600.41 -338.70,-605.01 -344.89,-601.75 -346.96,-598.92 -347.57,-595.52">
        <request index="0" response="01100" foes="01100" cont="0"/>
        <request index="1" response="11100" foes="11100" cont="0"/>
        <request index="2" response="00000" foes="00011" cont="0"/>
        <request index="3" response="00000" foes="00011" cont="0"/>
        <request index="4" response="00000" foes="00010" cont="0"/>
    </junction>
    <junction id="40" type="priority" x="-326.96" y="-581.81" incLanes="95864_0 96094_0 96094_1" intLanes=":40_0_0 :40_1_0 :40_1_1" shape="-322.06,-563.48 -316.20,-567.32 -327.80,-595.31 -331.30,-595.37 -333.44,-594.79 -339.40,-591.19">
        <request index="0" response="110" foes="110" cont="0"/>
        <request index="1" response="000" foes="001" cont="0"/>
        <request index="2" response="000" foes="001" cont="0"/>
    </junction>
    <junction id="41" type="priority" x="-340.87" y="-604.30" incLanes="96029_0 96029_1 95997_0" intLanes=":41_0_0 :41_1_0 :41_1_1 :41_3_0 :41_4_0" shape="-342.33,-596.91 -336.15,-600.18 -334.77,-606.29 -336.74,-609.19 -338.48,-608.48 -339.26,-608.55 -339.98,-608.89 -340.63,-609.51 -341.23,-610.41 -347.60,-607.49 -348.88,-600.91 -346.96,-598.07">
        <request index="0" response="00000" foes="01000" cont="0"/>
        <request index="1" response="00000" foes="11000" cont="0"/>
        <request index="2" response="00000" foes="11000" cont="0"/>
        <request index="3" response="00111" foes="00111" cont="0"/>
        <request index="4" response="00110" foes="00110" cont="0"/>
    </junction>
    <junction id="42" type="priority" x="-311.79" y="-619.01" incLanes="96005_0 95866_0" intLanes=":42_0_0 :42_1_0" shape="-293.29,-628.59 -297.67,-634.05 -301.28,-631.36 -304.13,-629.63 -306.61,-628.40 -309.13,-627.23 -312.11,-625.67 -315.93,-623.27 -308.09,-614.73">
        <request index="0" response="00" foes="00" cont="0"/>
        <request index="1" response="00" foes="00" cont="0"/>
    </junction>
    <junction id="43" type="priority" x="-328.05" y="-597.91" incLanes="95989_0" intLanes=":43_0_0 :43_1_0" shape="-331.30,-595.17 -327.81,-595.10 -327.44,-596.54 -327.01,-597.31 -326.41,-598.13 -325.64,-598.99 -324.69,-599.88 -327.03,-602.49 -333.86,-599.48 -332.70,-596.18">
        <request index="0" response="00" foes="00" cont="0"/>
        <request index="1" response="00" foes="00" cont="0"/>
    </junction>
    <junction id="44" type="priority" x="-353.14" y="-588.13" incLanes="97434_0 97429_0" intLanes=":44_0_0 :44_1_0" shape="-346.88,-582.81 -348.97,-585.62 -352.77,-593.92 -354.83,-596.75 -356.37,-595.71 -356.92,-595.35 -357.45,-594.98 -358.05,-594.47 -358.81,-593.73 -349.29,-581.02">
        <request index="0" response="00" foes="00" cont="0"/>
        <request index="1" response="00" foes="00" cont="0"/>
    </junction>
    <junction id="45" type="dead_end" x="-379.60" y="-526.54" incLanes="" intLanes="" shape="-377.90,-526.14 -381.31,-526.94 -377.90,-526.12 -381.29,-526.96"/>

    <connection from="95864" to="96097" fromLane="0" toLane="0" contPos="-4.00" shape="-329.63,-590.88 -329.51,-589.34 -328.88,-586.84 -327.58,-583.47 -325.29,-578.84 -321.93,-573.03 -318.33,-567.37" via=":40_0_0" dir="s" state="m"/>
    <connection from="95866" to="96006" fromLane="0" toLane="0" contPos="-4.00" shape="-334.18,-608.81 -327.35,-613.17 -309.03,-624.00 -302.67,-628.16 -297.36,-632.06 -296.57,-632.68" via=":42_1_0" dir="s" state="M"/>
    <connection from="95904" to="97919" fromLane="0" toLane="0" contPos="-4.00" via=":37_0_0" dir="L" state="m"/>
    <connection from="95904" to="95997" fromLane="0" toLane="0" contPos="-4.00" shape="-343.10,-596.48 -344.86,-596.89 -345.71,-597.19 -346.50,-597.63 -347.08,-598.30 -347.11,-599.18 -346.67,-599.96 -346.05,-600.61 -344.62,-601.71" via=":37_1_0" dir="l" state="m"/>
    <connection from="95923" to="96029" fromLane="0" toLane="0" contPos="-4.00" via=":30_0_0" dir="s" state="M"/>
    <connection from="95923" to="96029" fromLane="1" toLane="1" contPos="-4.00" via=":30_0_1" dir="s" state="M"/>
    <connection from="95989" to="95864" fromLane="0" toLane="0" contPos="-4.00" shape="-322.23,-604.43 -324.54,-602.16 -326.27,-600.09 -327.73,-597.82 -328.66,-595.87 -329.30,-593.81 -329.60,-591.67 -329.63,-591.13" via=":43_0_0" dir="s" state="M"/>
    <connection from="95989" to="95991" fromLane="0" toLane="0" contPos="-4.00" shape="-322.23,-604.43 -325.04,-602.14 -327.62,-600.40 -330.37,-598.95 -332.29,-598.18" via=":43_1_0" dir="l" state="M"/>