<routes>
	<vehicle depart="0.1" departLane="0" departPos="46.302893506081055" departSpeed="0.27277213" id="34" type="passenger">
		<route edges="47803 47680"/>
	</vehicle>
	<vehicle depart="0.1" departLane="0" departPos="28.664071260398334" departSpeed="0.087060211" id="310" type="passenger">
		<route edges="47677 47804"/>
	</vehicle>
	<vehicle depart="0.1" departLane="0" departPos="15.137190901308267" departSpeed="5.4581946" id="317" type="passenger">
		<route edges=":37_0 47676"/>
	</vehicle>
	<vehicle depart="0.1" departLane="0" departPos="27.33584924925127" departSpeed="2.2756019" id="318" type="passenger">
		<route edges="47803 47680"/>
	</vehicle>
	<vehicle depart="0.1" departLane="0" departPos="15.044699447109725" departSpeed="0.079857559" id="322" type="passenger">
		<route edges=":37_5 47804"/>
	</vehicle>
	<vehicle depart="0.1" departLane="0" departPos="23.26030213394107" departSpeed="13.717123" id="344" type="passenger">
		<route edges=":37_2 47804"/>
	</vehicle>
	<vehicle depart="0.1" departLane="0" departPos="13.445776900828982" departSpeed="10.679388" id="346" type="passenger">
		<route edges="47679 47804"/>
	</vehicle>
	<vehicle depart="0.1" departLane="0" departPos="23.684028701196414" departSpeed="7.3401992" id="348" type="passenger">
		<route edges="47936 47679 47804"/>
	</vehicle>
	<vehicle depart="0.1" departLane="0" departPos="10.326772785247458" departSpeed="3.7625481" id="350" type="passenger">
		<route edges="47936 47679 47676"/>
	</vehicle>
	<vehicle depart="0.1" departLane="0" departPos="65.77911500060125" departSpeed="2.310071" id="33" type="motorcycle">
		<route edges="47803 47676"/>
	</vehicle>
</routes>
