<routes>
	<vehicle depart="0.1" departLane="0" departPos="10.677620417464308" departSpeed="0.63316189" id="36" type="bicycle">
		<route edges=":43_4 38565"/>
	</vehicle>
	<vehicle depart="0.1" departLane="0" departPos="44.04384562412775" departSpeed="1.158713" id="38" type="bicycle">
		<route edges="38564 38561"/>
	</vehicle>
	<vehicle depart="0.1" departLane="0" departPos="26.163410710600164" departSpeed="4.7211596" id="343" type="bicycle">
		<route edges="38562 38565"/>
	</vehicle>
	<vehicle depart="0.1" departLane="0" departPos="10.324622154799195" departSpeed="1.6637424" id="37" type="passenger">
		<route edges=":43_4 38565"/>
	</vehicle>
	<vehicle depart="0.1" departLane="0" departPos="8.262509653584784" departSpeed="5.2023758" id="312" type="passenger">
		<route edges="38561"/>
	</vehicle>
	<vehicle depart="0.1" departLane="0" departPos="69.4335149653922" departSpeed="1.1395289" id="323" type="passenger">
		<route edges="38564 38561"/>
	</vehicle>
	<vehicle depart="0.1" departLane="0" departPos="47.463515809911826" departSpeed="0.88197124" id="324" type="passenger">
		<route edges="38562 38565"/>
	</vehicle>
	<vehicle depart="0.1" departLane="0" departPos="31.140567337207926" departSpeed="3.1537921" id="329" type="passenger">
		<route edges="38562 38565"/>
	</vehicle>
	<vehicle depart="0.1" departLane="0" departPos="8.092837900459216" departSpeed="0.78139996" id="30" type="truck">
		<route edges=":43_2 38163"/>
	</vehicle>
</routes>
