<!-- generated on Tue Feb  9 22:06:15 2021 by Eclipse SUMO netconvert Version 1.8.0
<configuration xmlns:xsi="http://www.w3.org/2001/XMLSchema-instance" xsi:noNamespaceSchemaLocation="http://sumo.dlr.de/xsd/netconvertConfiguration.xsd">

    <input>
        <node-files value="./converted_scenarios/scenario-factory/ESP_SantBoideLlobregat-6_1_I-1-1/ESP_SantBoideLlobregat-6_1_I-1-1.nod.xml"/>
        <edge-files value="./converted_scenarios/scenario-factory/ESP_SantBoideLlobregat-6_1_I-1-1/ESP_SantBoideLlobregat-6_1_I-1-1.edg.xml"/>
        <connection-files value="./converted_scenarios/scenario-factory/ESP_SantBoideLlobregat-6_1_I-1-1/ESP_SantBoideLlobregat-6_1_I-1-1.con.xml"/>
        <tllogic-files value="./converted_scenarios/scenario-factory/ESP_SantBoideLlobregat-6_1_I-1-1/ESP_SantBoideLlobregat-6_1_I-1-1.tll.xml"/>
        <type-files value="/home/zen/commonroad-interactive-benchmarks/install/commonroad-map-tool/crmapconverter/sumo_map/templates/DEU.typ.xml"/>
    </input>

    <output>
        <output-file value="./converted_scenarios/scenario-factory/ESP_SantBoideLlobregat-6_1_I-1-1/ESP_SantBoideLlobregat-6_1_I-1-1.net.xml"/>
    </output>

    <processing>
        <geometry.remove.keep-edges.explicit value="true"/>
        <geometry.avoid-overlap value="true"/>
        <offset.disable-normalization value="true"/>
    </processing>

    <junctions>
        <no-turnarounds value="true"/>
        <junctions.internal-link-detail value="20"/>
    </junctions>

    <report>
        <aggregate-warnings value="5"/>
    </report>

    <random_number>
        <seed value="1234"/>
    </random_number>

</configuration>
--><net xmlns:xsi="http://www.w3.org/2001/XMLSchema-instance" version="1.6" junctionCornerDetail="5" junctionLinkDetail="20" limitTurnSpeed="5.50" xsi:noNamespaceSchemaLocation="http://sumo.dlr.de/xsd/net_file.xsd">

    <location netOffset="0.00,0.00" convBoundary="789.84,-535.96,930.06,-378.89" origBoundary="787.19,-538.25,932.55,-378.89" projParameter="!"/>

    <type id="highway.bridleway" priority="1" speed="2.78" allow="pedestrian" oneway="1" width="2.00"/>
    <type id="highway.bus_guideway" priority="1" speed="27.78" allow="bus" oneway="1"/>
    <type id="highway.cycleway" priority="1" speed="8.33" allow="bicycle" oneway="0" width="1.00"/>
    <type id="highway.footway" priority="1" speed="2.78" allow="pedestrian" oneway="1" width="2.00"/>
    <type id="highway.ford" priority="1" speed="2.78" allow="army" oneway="0"/>
    <type id="highway.living_street" priority="2" speed="2.78" disallow="tram rail_urban rail rail_electric rail_fast ship" oneway="0"/>
    <type id="highway.motorway" priority="14" speed="39.44" allow="private emergency authority army vip passenger hov taxi bus coach delivery truck trailer motorcycle evehicle custom1 custom2" oneway="1"/>
    <type id="highway.motorway_link" priority="9" speed="22.22" allow="private emergency authority army vip passenger hov taxi bus coach delivery truck trailer motorcycle evehicle custom1 custom2" oneway="1"/>
    <type id="highway.path" priority="1" speed="2.78" allow="pedestrian bicycle" oneway="0" width="2.00"/>
    <type id="highway.pedestrian" priority="1" speed="2.78" allow="pedestrian" oneway="1" width="2.00"/>
    <type id="highway.primary" priority="12" speed="27.78" disallow="pedestrian tram rail_urban rail rail_electric rail_fast ship" oneway="0"/>
    <type id="highway.primary_link" priority="7" speed="22.22" disallow="pedestrian tram rail_urban rail rail_electric rail_fast ship" oneway="0"/>
    <type id="highway.raceway" priority="15" speed="83.33" allow="vip" oneway="0"/>
    <type id="highway.residential" priority="3" speed="13.89" disallow="pedestrian tram rail_urban rail rail_electric rail_fast ship" oneway="0"/>
    <type id="highway.secondary" priority="11" speed="27.78" disallow="pedestrian tram rail_urban rail rail_electric rail_fast ship" oneway="0"/>
    <type id="highway.secondary_link" priority="6" speed="22.22" disallow="pedestrian tram rail_urban rail rail_electric rail_fast ship" oneway="0"/>
    <type id="highway.service" priority="1" speed="5.56" allow="pedestrian delivery bicycle" oneway="0"/>
    <type id="highway.stairs" priority="1" speed="1.39" allow="pedestrian" oneway="1" width="2.00"/>
    <type id="highway.step" priority="1" speed="1.39" allow="pedestrian" oneway="1" width="2.00"/>
    <type id="highway.steps" priority="1" speed="1.39" allow="pedestrian" oneway="1" width="2.00"/>
    <type id="highway.tertiary" priority="10" speed="22.22" disallow="pedestrian tram rail_urban rail rail_electric rail_fast ship" oneway="0"/>
    <type id="highway.tertiary_link" priority="5" speed="22.22" disallow="pedestrian tram rail_urban rail rail_electric rail_fast ship" oneway="0"/>
    <type id="highway.track" priority="1" speed="5.56" allow="pedestrian motorcycle moped bicycle" oneway="0"/>
    <type id="highway.trunk" priority="13" speed="27.78" disallow="pedestrian bicycle tram rail_urban rail rail_electric rail_fast ship" oneway="0"/>
    <type id="highway.trunk_link" priority="8" speed="22.22" disallow="pedestrian bicycle tram rail_urban rail rail_electric rail_fast ship" oneway="0"/>
    <type id="highway.unclassified" priority="4" speed="13.89" disallow="pedestrian tram rail_urban rail rail_electric rail_fast ship" oneway="0"/>
    <type id="highway.unsurfaced" priority="1" speed="8.33" disallow="tram rail_urban rail rail_electric rail_fast ship" oneway="0"/>
    <type id="railway.highspeed" priority="21" speed="69.44" allow="rail_fast" oneway="1"/>
    <type id="railway.light_rail" priority="19" speed="27.78" allow="rail_urban" oneway="1"/>
    <type id="railway.preserved" priority="16" speed="27.78" allow="rail" oneway="1"/>
    <type id="railway.rail" priority="20" speed="44.44" allow="rail" oneway="1"/>
    <type id="railway.subway" priority="18" speed="27.78" allow="rail_urban" oneway="1"/>
    <type id="railway.tram" priority="17" speed="13.89" allow="tram" oneway="1"/>

    <edge id=":5_0" function="internal">
        <lane id=":5_0_0" index="0" disallow="pedestrian tram rail_urban rail rail_electric rail_fast ship" speed="36.11" length="2.99" width="3.50" shape="872.28,-433.11 870.34,-435.39"/>
    </edge>
    <edge id=":7_0" function="internal">
        <lane id=":7_0_0" index="0" disallow="pedestrian tram rail_urban rail rail_electric rail_fast ship" speed="36.11" length="3.03" width="3.50" shape="879.38,-432.67 877.26,-434.83"/>
        <lane id=":7_0_1" index="1" disallow="pedestrian tram rail_urban rail rail_electric rail_fast ship" speed="36.11" length="3.03" width="3.50" shape="881.88,-435.12 879.75,-437.28"/>
        <lane id=":7_0_2" index="2" disallow="pedestrian tram rail_urban rail rail_electric rail_fast ship" speed="36.11" length="3.05" width="3.50" shape="884.38,-437.57 882.24,-439.74"/>
    </edge>
    <edge id=":9_0" function="internal">
        <lane id=":9_0_0" index="0" disallow="pedestrian tram rail_urban rail rail_electric rail_fast ship" speed="36.11" length="50.13" width="3.50" shape="865.43,-441.23 833.00,-479.46"/>
    </edge>
    <edge id=":9_1" function="internal">
        <lane id=":9_1_0" index="0" disallow="pedestrian tram rail_urban rail rail_electric rail_fast ship" speed="36.11" length="50.10" width="3.50" shape="868.25,-443.87 850.36,-461.21 841.18,-470.54 835.25,-476.94 833.01,-479.46"/>
        <lane id=":9_1_1" index="1" disallow="pedestrian tram rail_urban rail rail_electric rail_fast ship" speed="36.11" length="49.75" width="3.50" shape="870.65,-446.41 852.86,-463.66 843.76,-472.91 837.87,-479.25 835.66,-481.76"/>
        <lane id=":9_1_2" index="2" disallow="pedestrian tram rail_urban rail rail_electric rail_fast ship" speed="36.11" length="49.41" width="3.50" shape="873.06,-448.95 855.35,-466.12 846.33,-475.29 840.49,-481.57 838.30,-484.05"/>
    </edge>

    <edge id="121433" from="9" to="3" priority="3" type="highway.residential" spreadType="center" length="70.85">
        <lane id="121433_0" index="0" disallow="pedestrian tram rail_urban rail rail_electric rail_fast ship" speed="36.11" length="71.11" width="3.50" customShape="1" shape="833.00,-479.46 807.39,-509.13 794.17,-524.97 787.11,-533.77"/>
        <lane id="121433_1" index="1" disallow="pedestrian tram rail_urban rail rail_electric rail_fast ship" speed="36.11" length="70.98" width="3.50" customShape="1" shape="835.65,-481.75 810.08,-511.37 796.88,-527.19 789.84,-535.96"/>
        <lane id="121433_2" index="2" disallow="pedestrian tram rail_urban rail rail_electric rail_fast ship" speed="36.11" length="70.85" width="3.50" customShape="1" shape="838.30,-484.04 812.77,-513.61 799.60,-529.39 792.57,-538.15"/>
    </edge>
    <edge id="121533" from="5" to="9" priority="3" type="highway.residential" spreadType="center" length="7.63">
        <lane id="121533_0" index="0" disallow="pedestrian tram rail_urban rail rail_electric rail_fast ship" speed="36.11" length="7.63" width="3.50" customShape="1" shape="870.34,-435.39 865.56,-441.08 865.43,-441.23"/>
    </edge>
    <edge id="121562" from="8" to="7" priority="3" type="highway.residential" spreadType="center" length="68.48">
        <lane id="121562_0" index="0" disallow="pedestrian tram rail_urban rail rail_electric rail_fast ship" speed="36.11" length="68.57" width="3.50" customShape="1" shape="927.62,-383.94 917.73,-393.53 901.79,-409.61 879.38,-432.67"/>
        <lane id="121562_1" index="1" disallow="pedestrian tram rail_urban rail rail_electric rail_fast ship" speed="36.11" length="68.49" width="3.50" customShape="1" shape="930.06,-386.45 920.16,-396.05 904.25,-412.10 881.88,-435.12"/>
        <lane id="121562_2" index="2" disallow="pedestrian tram rail_urban rail rail_electric rail_fast ship" speed="36.11" length="68.48" width="3.50" customShape="1" shape="932.55,-388.90 922.62,-398.54 906.74,-414.56 884.38,-437.57"/>
    </edge>
    <edge id="121702" from="6" to="5" priority="3" type="highway.residential" spreadType="center" length="68.50">
        <lane id="121702_0" index="0" disallow="pedestrian tram rail_urban rail rail_electric rail_fast ship" speed="36.11" length="68.50" width="3.50" customShape="1" shape="913.99,-378.89 913.12,-380.41 906.85,-390.20 902.46,-396.38 895.03,-405.98 885.40,-417.70 872.28,-433.11"/>
    </edge>
    <edge id="121716" from="7" to="9" priority="3" type="highway.residential" spreadType="center" length="12.76">
        <lane id="121716_0" index="0" disallow="pedestrian tram rail_urban rail rail_electric rail_fast ship" speed="36.11" length="12.76" width="3.50" customShape="1" shape="877.26,-434.83 868.25,-443.87"/>
        <lane id="121716_1" index="1" disallow="pedestrian tram rail_urban rail rail_electric rail_fast ship" speed="36.11" length="12.89" width="3.50" customShape="1" shape="879.75,-437.28 870.65,-446.41"/>
        <lane id="121716_2" index="2" disallow="pedestrian tram rail_urban rail rail_electric rail_fast ship" speed="36.11" length="13.00" width="3.50" customShape="1" shape="882.24,-439.74 873.06,-448.95"/>
    </edge>

    <junction id="3" type="dead_end" x="789.84" y="-535.96" incLanes="121433_0 121433_1 121433_2" intLanes="" shape="785.75,-532.67 793.93,-539.25" rightOfWay="edgePriority"/>
    <junction id="5" type="priority" x="871.31" y="-434.25" incLanes="121702_0" intLanes=":5_0_0" shape="870.95,-431.97 873.61,-434.24 871.68,-436.52 869.00,-434.27" rightOfWay="edgePriority">
        <request index="0" response="0" foes="0" cont="0"/>
    </junction>
    <junction id="6" type="dead_end" x="913.99" y="-378.89" incLanes="" intLanes="" shape="915.51,-379.76 912.47,-378.02" rightOfWay="edgePriority"/>
    <junction id="7" type="priority" x="880.82" y="-436.21" incLanes="121562_0 121562_1 121562_2" intLanes=":7_0_0 :7_0_1 :7_0_2" shape="878.12,-431.45 885.63,-438.79 883.49,-440.97 876.01,-433.60" rightOfWay="edgePriority">
        <request index="0" response="000" foes="000" cont="0"/>
        <request index="1" response="000" foes="000" cont="0"/>
        <request index="2" response="000" foes="000" cont="0"/>
    </junction>
    <junction id="8" type="dead_end" x="930.06" y="-386.45" incLanes="" intLanes="" shape="933.71,-390.22 926.40,-382.68" rightOfWay="edgePriority"/>
    <junction id="9" type="priority" x="852.80" y="-461.24" incLanes="121533_0 121716_0 121716_1 121716_2" intLanes=":9_0_0 :9_1_0 :9_1_1 :9_1_2" shape="864.09,-440.10 866.77,-442.35 867.04,-442.60 874.27,-450.22 839.62,-485.18 831.68,-478.31">
        <request index="0" response="1110" foes="1110" cont="0"/>
        <request index="1" response="0000" foes="0001" cont="0"/>
        <request index="2" response="0000" foes="0001" cont="0"/>
        <request index="3" response="0000" foes="0001" cont="0"/>
    </junction>

    <connection from="121533" to="121433" fromLane="0" toLane="0" contPos="-4.00" shape="859.65,-448.10 833.02,-479.44 832.36,-480.20" via=":9_0_0" dir="s" state="m"/>
    <connection from="121562" to="121716" fromLane="0" toLane="0" contPos="-4.00" via=":7_0_0" dir="s" state="M"/>
    <connection from="121562" to="121716" fromLane="1" toLane="1" contPos="-4.00" via=":7_0_1" dir="s" state="M"/>
    <connection from="121562" to="121716" fromLane="2" toLane="2" contPos="-4.00" via=":7_0_2" dir="s" state="M"/>
    <connection from="121702" to="121533" fromLane="0" toLane="0" contPos="-4.00" via=":5_0_0" dir="s" state="M"/>
    <connection from="121716" to="121433" fromLane="0" toLane="0" contPos="-4.00" shape="861.32,-450.61 850.36,-461.21 841.18,-470.54 835.25,-476.94 832.36,-480.20" via=":9_1_0" dir="s" state="M"/>
    <connection from="121716" to="121433" fromLane="1" toLane="1" contPos="-4.00" shape="863.73,-453.15 852.86,-463.66 843.76,-472.91 837.87,-479.25 835.01,-482.49" via=":9_1_1" dir="s" state="M"/>
    <connection from="121716" to="121433" fromLane="2" toLane="2" contPos="-4.00" shape="866.14,-455.68 855.35,-466.12 846.33,-475.29 840.49,-481.57 837.65,-484.78" via=":9_1_2" dir="s" state="M"/>

    <connection from=":5_0" to="121533" fromLane="0" toLane="0" dir="s" state="M"/>
    <connection from=":7_0" to="121716" fromLane="0" toLane="0" dir="s" state="M"/>
    <connection from=":7_0" to="121716" fromLane="1" toLane="1" dir="s" state="M"/>
    <connection from=":7_0" to="121716" fromLane="2" toLane="2" dir="s" state="M"/>
    <connection from=":9_0" to="121433" fromLane="0" toLane="0" dir="s" state="M"/>
    <connection from=":9_1" to="121433" fromLane="0" toLane="0" dir="s" state="M"/>
    <connection from=":9_1" to="121433" fromLane="1" toLane="1" dir="s" state="M"/>
    <connection from=":9_1" to="121433" fromLane="2" toLane="2" dir="s" state="M"/>

</net>