<routes>
	<vehicle depart="0.1" departLane="1" departPos="37.711464469698015" departSpeed="9.1443616" id="35" type="bicycle">
		<route edges=":9_1 121433"/>
	</vehicle>
	<vehicle depart="0.1" departLane="0" departPos="6.071882524450711" departSpeed="22.682095" id="352" type="passenger">
		<route edges="121716 121433"/>
	</vehicle>
	<vehicle depart="0.1" departLane="2" departPos="60.18115212410311" departSpeed="32.449209" id="354" type="passenger">
		<route edges="121562 121716 121433"/>
	</vehicle>
	<vehicle depart="0.1" departLane="2" departPos="32.40779798718883" departSpeed="30.543165" id="356" type="passenger">
		<route edges="121562 121716 121433"/>
	</vehicle>
</routes>
