<routes>
	<vehicle depart="0.1" departLane="0" departPos="20.032003773618754" departSpeed="5.4433489" id="1" type="passenger">
		<route edges="50201 50213 50197"/>
	</vehicle>
	<vehicle depart="0.1" departLane="0" departPos="106.89237269240317" departSpeed="1.2678342" id="2" type="passenger">
		<route edges="50195 50211 50199"/>
	</vehicle>
	<vehicle depart="0.1" departLane="0" departPos="147.39860594348445" departSpeed="1.3869128" id="4" type="passenger">
		<route edges="50205 50207 50197"/>
	</vehicle>
	<vehicle depart="0.1" departLane="0" departPos="155.39876779818238" departSpeed="5.7373873" id="5" type="passenger">
		<route edges="50205 50217 50199"/>
	</vehicle>
	<vehicle depart="0.1" departLane="0" departPos="12.029682881257187" departSpeed="3.645362" id="7" type="passenger">
		<route edges="50201 50213 50197"/>
	</vehicle>
</routes>
