<routes>
	<vehicle depart="0.1" departLane="0" departPos="9.375711521493617" departSpeed="1.5449292" id="326" type="bicycle">
		<route edges=":37_3 74499"/>
	</vehicle>
	<vehicle depart="0.1" departLane="0" departPos="59.894225505573786" departSpeed="3.8292161" id="31" type="passenger">
		<route edges="74198 74499"/>
	</vehicle>
	<vehicle depart="0.1" departLane="0" departPos="39.983519083147" departSpeed="1.6131786" id="319" type="passenger">
		<route edges="74198 74499"/>
	</vehicle>
	<vehicle depart="0.1" departLane="0" departPos="47.95514971778108" departSpeed="2.0578435" id="328" type="passenger">
		<route edges="74198 74499"/>
	</vehicle>
	<vehicle depart="0.1" departLane="0" departPos="33.87798661201441" departSpeed="1.7665558" id="334" type="passenger">
		<route edges="74198 74499"/>
	</vehicle>
	<vehicle depart="0.1" departLane="0" departPos="27.035868355328567" departSpeed="1.1661251" id="338" type="passenger">
		<route edges="74198 74499"/>
	</vehicle>
</routes>
