<!-- generated on Tue Feb  9 22:11:12 2021 by Eclipse SUMO netconvert Version 1.8.0
<configuration xmlns:xsi="http://www.w3.org/2001/XMLSchema-instance" xsi:noNamespaceSchemaLocation="http://sumo.dlr.de/xsd/netconvertConfiguration.xsd">

    <input>
        <node-files value="./converted_scenarios/scenario-factory/ESP_Berga-4_2_I-1-1/ESP_Berga-4_2_I-1-1.nod.xml"/>
        <edge-files value="./converted_scenarios/scenario-factory/ESP_Berga-4_2_I-1-1/ESP_Berga-4_2_I-1-1.edg.xml"/>
        <connection-files value="./converted_scenarios/scenario-factory/ESP_Berga-4_2_I-1-1/ESP_Berga-4_2_I-1-1.con.xml"/>
        <tllogic-files value="./converted_scenarios/scenario-factory/ESP_Berga-4_2_I-1-1/ESP_Berga-4_2_I-1-1.tll.xml"/>
        <type-files value="/home/zen/commonroad-interactive-benchmarks/install/commonroad-map-tool/crmapconverter/sumo_map/templates/DEU.typ.xml"/>
    </input>

    <output>
        <output-file value="./converted_scenarios/scenario-factory/ESP_Berga-4_2_I-1-1/ESP_Berga-4_2_I-1-1.net.xml"/>
    </output>

    <processing>
        <geometry.remove.keep-edges.explicit value="true"/>
        <geometry.avoid-overlap value="true"/>
        <offset.disable-normalization value="true"/>
    </processing>

    <junctions>
        <no-turnarounds value="true"/>
        <junctions.internal-link-detail value="20"/>
    </junctions>

    <report>
        <aggregate-warnings value="5"/>
    </report>

    <random_number>
        <seed value="1234"/>
    </random_number>

</configuration>
--><net xmlns:xsi="http://www.w3.org/2001/XMLSchema-instance" version="1.6" junctionCornerDetail="5" junctionLinkDetail="20" limitTurnSpeed="5.50" xsi:noNamespaceSchemaLocation="http://sumo.dlr.de/xsd/net_file.xsd">

    <location netOffset="0.00,0.00" convBoundary="-671.09,-166.36,-512.26,46.03" origBoundary="-671.09,-166.36,-494.46,46.03" projParameter="!"/>

    <type id="highway.bridleway" priority="1" speed="2.78" allow="pedestrian" oneway="1" width="2.00"/>
    <type id="highway.bus_guideway" priority="1" speed="27.78" allow="bus" oneway="1"/>
    <type id="highway.cycleway" priority="1" speed="8.33" allow="bicycle" oneway="0" width="1.00"/>
    <type id="highway.footway" priority="1" speed="2.78" allow="pedestrian" oneway="1" width="2.00"/>
    <type id="highway.ford" priority="1" speed="2.78" allow="army" oneway="0"/>
    <type id="highway.living_street" priority="2" speed="2.78" disallow="tram rail_urban rail rail_electric rail_fast ship" oneway="0"/>
    <type id="highway.motorway" priority="14" speed="39.44" allow="private emergency authority army vip passenger hov taxi bus coach delivery truck trailer motorcycle evehicle custom1 custom2" oneway="1"/>
    <type id="highway.motorway_link" priority="9" speed="22.22" allow="private emergency authority army vip passenger hov taxi bus coach delivery truck trailer motorcycle evehicle custom1 custom2" oneway="1"/>
    <type id="highway.path" priority="1" speed="2.78" allow="pedestrian bicycle" oneway="0" width="2.00"/>
    <type id="highway.pedestrian" priority="1" speed="2.78" allow="pedestrian" oneway="1" width="2.00"/>
    <type id="highway.primary" priority="12" speed="27.78" disallow="pedestrian tram rail_urban rail rail_electric rail_fast ship" oneway="0"/>
    <type id="highway.primary_link" priority="7" speed="22.22" disallow="pedestrian tram rail_urban rail rail_electric rail_fast ship" oneway="0"/>
    <type id="highway.raceway" priority="15" speed="83.33" allow="vip" oneway="0"/>
    <type id="highway.residential" priority="3" speed="13.89" disallow="pedestrian tram rail_urban rail rail_electric rail_fast ship" oneway="0"/>
    <type id="highway.secondary" priority="11" speed="27.78" disallow="pedestrian tram rail_urban rail rail_electric rail_fast ship" oneway="0"/>
    <type id="highway.secondary_link" priority="6" speed="22.22" disallow="pedestrian tram rail_urban rail rail_electric rail_fast ship" oneway="0"/>
    <type id="highway.service" priority="1" speed="5.56" allow="pedestrian delivery bicycle" oneway="0"/>
    <type id="highway.stairs" priority="1" speed="1.39" allow="pedestrian" oneway="1" width="2.00"/>
    <type id="highway.step" priority="1" speed="1.39" allow="pedestrian" oneway="1" width="2.00"/>
    <type id="highway.steps" priority="1" speed="1.39" allow="pedestrian" oneway="1" width="2.00"/>
    <type id="highway.tertiary" priority="10" speed="22.22" disallow="pedestrian tram rail_urban rail rail_electric rail_fast ship" oneway="0"/>
    <type id="highway.tertiary_link" priority="5" speed="22.22" disallow="pedestrian tram rail_urban rail rail_electric rail_fast ship" oneway="0"/>
    <type id="highway.track" priority="1" speed="5.56" allow="pedestrian motorcycle moped bicycle" oneway="0"/>
    <type id="highway.trunk" priority="13" speed="27.78" disallow="pedestrian bicycle tram rail_urban rail rail_electric rail_fast ship" oneway="0"/>
    <type id="highway.trunk_link" priority="8" speed="22.22" disallow="pedestrian bicycle tram rail_urban rail rail_electric rail_fast ship" oneway="0"/>
    <type id="highway.unclassified" priority="4" speed="13.89" disallow="pedestrian tram rail_urban rail rail_electric rail_fast ship" oneway="0"/>
    <type id="highway.unsurfaced" priority="1" speed="8.33" disallow="tram rail_urban rail rail_electric rail_fast ship" oneway="0"/>
    <type id="railway.highspeed" priority="21" speed="69.44" allow="rail_fast" oneway="1"/>
    <type id="railway.light_rail" priority="19" speed="27.78" allow="rail_urban" oneway="1"/>
    <type id="railway.preserved" priority="16" speed="27.78" allow="rail" oneway="1"/>
    <type id="railway.rail" priority="20" speed="44.44" allow="rail" oneway="1"/>
    <type id="railway.subway" priority="18" speed="27.78" allow="rail_urban" oneway="1"/>
    <type id="railway.tram" priority="17" speed="13.89" allow="tram" oneway="1"/>

    <edge id=":37_0" function="internal">
        <lane id=":37_0_0" index="0" disallow="pedestrian tram rail_urban rail rail_electric rail_fast ship" speed="11.33" length="28.76" width="3.50" shape="-510.85,-84.91 -512.52,-86.50 -514.28,-87.93 -516.14,-89.17 -518.10,-90.18 -520.17,-90.90 -521.19,-91.13 -522.24,-91.28 -523.30,-91.34 -524.36,-91.31 -525.42,-91.19 -526.47,-90.99 -527.48,-90.71 -529.55,-89.91 -531.51,-88.85 -533.37,-87.60 -536.02,-85.39"/>
    </edge>
    <edge id=":37_1" function="internal">
        <lane id=":37_1_0" index="0" disallow="pedestrian tram rail_urban rail rail_electric rail_fast ship" speed="36.11" length="38.23" width="3.50" shape="-510.85,-84.91 -528.86,-103.44 -537.33,-112.48"/>
    </edge>
    <edge id=":37_2" function="internal">
        <lane id=":37_2_0" index="0" disallow="pedestrian tram rail_urban rail rail_electric rail_fast ship" speed="36.11" length="38.09" width="3.50" shape="-534.75,-114.85 -526.31,-105.85 -508.37,-87.37"/>
    </edge>
    <edge id=":37_3" function="internal">
        <lane id=":37_3_0" index="0" disallow="pedestrian tram rail_urban rail rail_electric rail_fast ship" speed="12.11" length="33.70" width="3.50" shape="-534.75,-114.85 -533.12,-112.94 -531.63,-110.89 -530.32,-108.69 -529.25,-106.32 -528.52,-103.83 -528.28,-102.48 -528.16,-101.15 -528.16,-99.81 -528.28,-98.47 -528.51,-97.15 -528.85,-95.86 -529.30,-94.58 -530.42,-92.25 -531.80,-90.08 -533.40,-88.08 -536.02,-85.39"/>
    </edge>
    <edge id=":37_4" function="internal">
        <lane id=":37_4_0" index="0" disallow="pedestrian tram rail_urban rail rail_electric rail_fast ship" speed="11.09" length="28.12" width="3.50" shape="-538.39,-87.96 -536.12,-90.29 -534.78,-91.98 -533.61,-93.80 -532.68,-95.75 -532.32,-96.77 -532.05,-97.82 -531.86,-98.88 -531.76,-99.96 -531.76,-101.04 -531.86,-102.12 -532.04,-103.19 -532.65,-105.26 -533.54,-107.23 -534.65,-109.09 -535.93,-110.84 -537.33,-112.48"/>
    </edge>
    <edge id=":37_5" function="internal">
        <lane id=":37_5_0" index="0" disallow="pedestrian tram rail_urban rail rail_electric rail_fast ship" speed="12.32" length="34.21" width="3.50" shape="-538.39,-87.96 -535.36,-90.49 -533.18,-91.96 -530.86,-93.20 -528.41,-94.16 -527.14,-94.51 -525.85,-94.76 -524.54,-94.90 -523.23,-94.94 -521.91,-94.86 -520.61,-94.67 -519.33,-94.38 -516.85,-93.51 -514.51,-92.31 -512.32,-90.85 -510.28,-89.19 -508.37,-87.37"/>
    </edge>
    <edge id=":38_0" function="internal">
        <lane id=":38_0_0" index="0" disallow="pedestrian tram rail_urban rail rail_electric rail_fast ship" speed="36.11" length="38.84" width="3.50" shape="-597.27,-5.37 -610.48,-19.63 -623.67,-33.86"/>
    </edge>
    <edge id=":38_1" function="internal">
        <lane id=":38_1_0" index="0" disallow="pedestrian tram rail_urban rail rail_electric rail_fast ship" speed="12.18" length="34.36" width="3.50" shape="-597.27,-5.37 -599.83,-8.43 -601.30,-10.62 -602.54,-12.95 -603.46,-15.42 -603.78,-16.70 -604.00,-18.00 -604.11,-19.32 -604.10,-20.64 -603.97,-21.95 -603.72,-23.25 -603.37,-24.52 -602.38,-26.96 -601.07,-29.25 -599.51,-31.38 -597.76,-33.35 -595.85,-35.22"/>
    </edge>
    <edge id=":38_2" function="internal">
        <lane id=":38_2_0" index="0" disallow="pedestrian tram rail_urban rail rail_electric rail_fast ship" speed="11.17" length="28.75" width="3.50" shape="-593.49,-32.64 -595.16,-31.01 -596.67,-29.31 -597.99,-27.50 -599.09,-25.59 -599.92,-23.55 -600.19,-22.56 -600.39,-21.52 -600.49,-20.47 -600.50,-19.41 -600.42,-18.36 -600.25,-17.31 -599.99,-16.30 -599.22,-14.23 -598.19,-12.28 -596.94,-10.42 -594.71,-7.75"/>
    </edge>
    <edge id=":38_3" function="internal">
        <lane id=":38_3_0" index="0" disallow="pedestrian tram rail_urban rail rail_electric rail_fast ship" speed="12.27" length="34.61" width="3.50" shape="-593.49,-32.64 -596.60,-30.08 -598.81,-28.61 -601.16,-27.37 -603.65,-26.43 -604.94,-26.10 -606.25,-25.87 -607.58,-25.75 -608.91,-25.74 -610.23,-25.86 -611.54,-26.08 -612.83,-26.42 -615.31,-27.39 -617.63,-28.68 -619.79,-30.23 -621.80,-31.97 -623.67,-33.86"/>
    </edge>
    <edge id=":38_4" function="internal">
        <lane id=":38_4_0" index="0" disallow="pedestrian tram rail_urban rail rail_electric rail_fast ship" speed="11.28" length="29.07" width="3.50" shape="-621.12,-36.25 -619.47,-34.59 -617.74,-33.08 -615.90,-31.77 -613.96,-30.68 -611.89,-29.88 -610.88,-29.62 -609.82,-29.44 -608.76,-29.34 -607.69,-29.35 -606.62,-29.44 -605.56,-29.63 -604.53,-29.89 -602.44,-30.68 -600.45,-31.73 -598.57,-32.98 -595.85,-35.22"/>
    </edge>
    <edge id=":38_5" function="internal">
        <lane id=":38_5_0" index="0" disallow="pedestrian tram rail_urban rail rail_electric rail_fast ship" speed="36.11" length="38.86" width="3.50" shape="-621.12,-36.25 -607.92,-22.01 -594.71,-7.75"/>
    </edge>
    <edge id=":39_0" function="internal">
        <lane id=":39_0_0" index="0" disallow="pedestrian tram rail_urban rail rail_electric rail_fast ship" speed="36.11" length="44.56" width="3.50" shape="-498.82,-25.05 -502.06,-10.87 -505.21,4.35 -507.78,18.59"/>
    </edge>
    <edge id=":39_1" function="internal">
        <lane id=":39_1_0" index="0" disallow="pedestrian tram rail_urban rail rail_electric rail_fast ship" speed="19.25" length="43.36" width="3.50" shape="-525.46,-19.47 -521.85,-15.41 -518.42,-11.17 -515.24,-6.72 -512.92,-2.97 -510.88,0.95 -509.58,4.05 -508.53,7.26 -507.81,10.58 -507.48,13.98 -507.52,16.31 -507.78,18.59"/>
    </edge>
    <edge id=":39_2" function="internal">
        <lane id=":39_2_0" index="0" disallow="pedestrian tram rail_urban rail rail_electric rail_fast ship" speed="18.54" length="40.19" width="3.50" shape="-511.24,18.03 -511.01,15.99 -510.98,13.93 -511.30,10.85 -511.99,7.84 -512.98,4.91 -514.21,2.07 -516.14,-1.57 -518.33,-5.06 -521.34,-9.24 -524.60,-13.24 -528.03,-17.08"/>
    </edge>
    <edge id=":39_3" function="internal">
        <lane id=":39_3_0" index="0" disallow="pedestrian tram rail_urban rail rail_electric rail_fast ship" speed="36.11" length="44.76" width="3.50" shape="-511.24,18.03 -508.64,3.69 -505.48,-11.61 -502.23,-25.81"/>
    </edge>
    <edge id=":40_0" function="internal">
        <lane id=":40_0_0" index="0" disallow="pedestrian tram rail_urban rail rail_electric rail_fast ship" speed="11.27" length="28.89" width="3.50" shape="-553.79,-44.79 -555.42,-46.43 -557.14,-47.93 -558.97,-49.24 -560.90,-50.33 -562.96,-51.15 -563.97,-51.42 -565.02,-51.61 -566.07,-51.71 -567.14,-51.72 -568.20,-51.63 -569.26,-51.46 -570.28,-51.21 -572.36,-50.44 -574.34,-49.41 -576.22,-48.18 -578.91,-45.96"/>
    </edge>
    <edge id=":40_1" function="internal">
        <lane id=":40_1_0" index="0" disallow="pedestrian tram rail_urban rail rail_electric rail_fast ship" speed="36.11" length="38.83" width="3.50" shape="-553.79,-44.79 -558.66,-50.04 -580.02,-73.42"/>
    </edge>
    <edge id=":40_2" function="internal">
        <lane id=":40_2_0" index="0" disallow="pedestrian tram rail_urban rail rail_electric rail_fast ship" speed="12.21" length="34.43" width="3.50" shape="-553.79,-44.79 -555.47,-46.73 -557.01,-48.81 -558.37,-51.05 -559.48,-53.46 -560.25,-56.01 -560.50,-57.38 -560.63,-58.74 -560.63,-60.12 -560.52,-61.49 -560.28,-62.84 -559.94,-64.16 -559.48,-65.46 -558.34,-67.85 -556.92,-70.07 -555.28,-72.11 -552.62,-74.84"/>
    </edge>
    <edge id=":40_3" function="internal">
        <lane id=":40_3_0" index="0" disallow="pedestrian tram rail_urban rail rail_electric rail_fast ship" speed="11.21" length="28.83" width="3.50" shape="-550.24,-72.27 -552.56,-69.90 -553.94,-68.17 -555.14,-66.30 -556.10,-64.30 -556.46,-63.25 -556.75,-62.18 -556.94,-61.08 -557.03,-59.98 -557.03,-58.87 -556.92,-57.76 -556.73,-56.67 -556.09,-54.55 -555.16,-52.53 -554.01,-50.63 -552.68,-48.85 -551.23,-47.18"/>
    </edge>
    <edge id=":40_4" function="internal">
        <lane id=":40_4_0" index="0" disallow="pedestrian tram rail_urban rail rail_electric rail_fast ship" speed="36.11" length="38.91" width="3.50" shape="-550.24,-72.27 -564.56,-59.13 -578.91,-45.96"/>
    </edge>
    <edge id=":40_5" function="internal">
        <lane id=":40_5_0" index="0" disallow="pedestrian tram rail_urban rail rail_electric rail_fast ship" speed="12.14" length="34.17" width="3.50" shape="-550.24,-72.27 -552.15,-70.63 -554.21,-69.10 -556.43,-67.75 -558.81,-66.64 -561.33,-65.86 -562.68,-65.60 -564.04,-65.46 -565.40,-65.44 -566.76,-65.54 -568.10,-65.76 -569.42,-66.10 -570.72,-66.55 -573.09,-67.68 -575.30,-69.10 -577.32,-70.73 -580.02,-73.42"/>
    </edge>
    <edge id=":40_6" function="internal">
        <lane id=":40_6_0" index="0" disallow="pedestrian tram rail_urban rail rail_electric rail_fast ship" speed="11.13" length="28.53" width="3.50" shape="-577.42,-75.76 -575.09,-73.44 -573.38,-72.06 -571.53,-70.87 -569.55,-69.93 -568.51,-69.57 -567.44,-69.30 -566.36,-69.12 -565.26,-69.04 -564.16,-69.06 -563.07,-69.17 -561.99,-69.38 -559.90,-70.04 -557.91,-70.97 -556.03,-72.11 -554.27,-73.42 -552.62,-74.84"/>
    </edge>
    <edge id=":40_7" function="internal">
        <lane id=":40_7_0" index="0" disallow="pedestrian tram rail_urban rail rail_electric rail_fast ship" speed="36.11" length="38.77" width="3.50" shape="-577.42,-75.76 -556.08,-52.41 -551.23,-47.18"/>
    </edge>
    <edge id=":40_8" function="internal">
        <lane id=":40_8_0" index="0" disallow="pedestrian tram rail_urban rail rail_electric rail_fast ship" speed="12.21" length="34.18" width="3.50" shape="-577.42,-75.76 -574.94,-72.70 -573.50,-70.50 -572.29,-68.17 -571.39,-65.70 -571.07,-64.43 -570.86,-63.13 -570.75,-61.82 -570.76,-60.51 -570.88,-59.20 -571.12,-57.91 -571.46,-56.64 -572.43,-54.20 -573.73,-51.91 -575.28,-49.79 -577.01,-47.82 -578.91,-45.96"/>
    </edge>
    <edge id=":40_9" function="internal">
        <lane id=":40_9_0" index="0" disallow="pedestrian tram rail_urban rail rail_electric rail_fast ship" speed="11.20" length="28.63" width="3.50" shape="-581.27,-48.54 -579.62,-50.16 -578.12,-51.86 -576.81,-53.66 -575.72,-55.57 -574.91,-57.60 -574.65,-58.60 -574.45,-59.64 -574.36,-60.69 -574.35,-61.74 -574.43,-62.79 -574.61,-63.84 -574.86,-64.85 -575.62,-66.92 -576.63,-68.89 -577.86,-70.75 -580.02,-73.42"/>
    </edge>
    <edge id=":40_10" function="internal">
        <lane id=":40_10_0" index="0" disallow="pedestrian tram rail_urban rail rail_electric rail_fast ship" speed="36.11" length="38.89" width="3.50" shape="-581.27,-48.54 -566.93,-61.71 -552.62,-74.84"/>
    </edge>
    <edge id=":40_11" function="internal">
        <lane id=":40_11_0" index="0" disallow="pedestrian tram rail_urban rail rail_electric rail_fast ship" speed="12.27" length="34.43" width="3.50" shape="-581.27,-48.54 -578.18,-51.08 -575.97,-52.54 -573.63,-53.76 -571.14,-54.68 -569.86,-55.00 -568.55,-55.21 -567.23,-55.32 -565.91,-55.31 -564.59,-55.18 -563.29,-54.95 -562.01,-54.60 -559.55,-53.63 -557.24,-52.33 -555.09,-50.79 -553.09,-49.05 -551.23,-47.18"/>
    </edge>

    <edge id="74192" from="39" to="30" priority="3" type="highway.residential" spreadType="center" length="27.82" shape="-510.51,-8.45 -512.35,46.03">
        <lane id="74192_0" index="0" disallow="pedestrian tram rail_urban rail rail_electric rail_fast ship" speed="36.11" length="27.82" width="3.50" customShape="1" shape="-507.78,18.59 -510.07,32.32 -512.35,46.03"/>
    </edge>
    <edge id="74193" from="36" to="39" priority="3" type="highway.residential" spreadType="center" length="27.83" shape="-515.81,45.46 -514.00,-8.57">
        <lane id="74193_0" index="0" disallow="pedestrian tram rail_urban rail rail_electric rail_fast ship" speed="36.11" length="27.83" width="3.50" customShape="1" shape="-515.81,45.46 -513.52,31.75 -511.23,18.01"/>
    </edge>
    <edge id="74195" from="37" to="39" priority="3" type="highway.residential" spreadType="center" length="66.84" shape="-525.89,-95.80 -510.53,-8.73">
        <lane id="74195_0" index="0" disallow="pedestrian tram rail_urban rail rail_electric rail_fast ship" speed="36.11" length="66.84" width="3.50" customShape="1" shape="-508.37,-87.37 -507.64,-86.63 -504.13,-82.76 -501.25,-79.04 -499.00,-75.53 -497.31,-72.29 -496.16,-69.37 -495.31,-66.35 -494.78,-63.27 -494.47,-59.10 -494.46,-53.35 -494.80,-47.62 -495.54,-41.39 -496.79,-34.19 -498.83,-25.02"/>
    </edge>
    <edge id="74196" from="39" to="37" priority="3" type="highway.residential" spreadType="center" length="63.33" shape="-513.98,-8.12 -529.34,-95.19">
        <lane id="74196_0" index="0" disallow="pedestrian tram rail_urban rail rail_electric rail_fast ship" speed="36.11" length="63.33" width="3.50" customShape="1" shape="-502.23,-25.81 -500.26,-34.69 -499.05,-41.62 -498.32,-47.58 -497.97,-53.06 -497.96,-58.55 -498.21,-62.46 -498.67,-65.30 -499.41,-68.06 -500.45,-70.73 -502.00,-73.74 -504.11,-77.03 -506.83,-80.53 -510.18,-84.22 -510.87,-84.93"/>
    </edge>
    <edge id="74198" from="34" to="37" priority="3" type="highway.residential" spreadType="center" length="70.01" shape="-582.13,-166.36 -526.23,-96.56">
        <lane id="74198_0" index="0" disallow="pedestrian tram rail_urban rail rail_electric rail_fast ship" speed="36.11" length="70.01" width="3.50" customShape="1" shape="-582.13,-166.36 -534.74,-114.83"/>
    </edge>
    <edge id="74199" from="37" to="24" priority="3" type="highway.residential" spreadType="center" length="70.00" shape="-528.96,-94.37 -584.72,-164.00">
        <lane id="74199_0" index="0" disallow="pedestrian tram rail_urban rail rail_electric rail_fast ship" speed="36.11" length="70.00" width="3.50" customShape="1" shape="-537.33,-112.48 -584.72,-164.00"/>
    </edge>
    <edge id="74376" from="38" to="29" priority="3" type="highway.residential" spreadType="center" length="70.00" shape="-605.53,-23.89 -671.09,-85.35">
        <lane id="74376_0" index="0" disallow="pedestrian tram rail_urban rail rail_electric rail_fast ship" speed="36.11" length="70.00" width="3.50" customShape="1" shape="-623.67,-33.86 -653.78,-66.55 -671.09,-85.35"/>
    </edge>
    <edge id="74377" from="33" to="38" priority="3" type="highway.residential" spreadType="center" length="70.03" shape="-668.54,-87.74 -603.14,-26.44">
        <lane id="74377_0" index="0" disallow="pedestrian tram rail_urban rail rail_electric rail_fast ship" speed="36.11" length="70.03" width="3.50" customShape="1" shape="-668.54,-87.74 -651.20,-68.92 -621.10,-36.23"/>
    </edge>
    <edge id="74379" from="35" to="38" priority="3" type="highway.residential" spreadType="center" length="70.00" shape="-549.64,45.88 -605.74,-24.12">
        <lane id="74379_0" index="0" disallow="pedestrian tram rail_urban rail rail_electric rail_fast ship" speed="36.11" length="70.00" width="3.50" customShape="1" shape="-549.64,45.88 -569.43,24.59 -597.29,-5.40"/>
    </edge>
    <edge id="74380" from="38" to="26" priority="3" type="highway.residential" spreadType="center" length="69.99" shape="-603.01,-26.31 -547.06,43.52">
        <lane id="74380_0" index="0" disallow="pedestrian tram rail_urban rail rail_electric rail_fast ship" speed="36.11" length="69.99" width="3.50" customShape="1" shape="-594.71,-7.75 -566.86,22.21 -547.06,43.52"/>
    </edge>
    <edge id="74433" from="40" to="39" priority="3" type="highway.residential" spreadType="center" length="37.86" shape="-564.50,-61.63 -511.04,-9.71">
        <lane id="74433_0" index="0" disallow="pedestrian tram rail_urban rail rail_electric rail_fast ship" speed="36.11" length="37.86" width="3.50" customShape="1" shape="-551.23,-47.18 -538.35,-33.32 -525.45,-19.45"/>
    </edge>
    <edge id="74434" from="39" to="40" priority="3" type="highway.residential" spreadType="center" length="37.83" shape="-513.48,-7.20 -566.93,-59.12">
        <lane id="74434_0" index="0" disallow="pedestrian tram rail_urban rail rail_electric rail_fast ship" speed="36.11" length="37.83" width="3.50" customShape="1" shape="-528.03,-17.08 -540.91,-30.94 -553.79,-44.79"/>
    </edge>
    <edge id="74436" from="13" to="40" priority="3" type="highway.residential" spreadType="center" length="70.01" shape="-624.38,-127.68 -564.37,-61.50">
        <lane id="74436_0" index="0" disallow="pedestrian tram rail_urban rail rail_electric rail_fast ship" speed="36.11" length="70.01" width="3.50" customShape="1" shape="-624.38,-127.68 -607.38,-108.89 -577.42,-75.76"/>
    </edge>
    <edge id="74437" from="40" to="11" priority="3" type="highway.residential" spreadType="center" length="69.99" shape="-566.96,-59.15 -626.97,-125.33">
        <lane id="74437_0" index="0" disallow="pedestrian tram rail_urban rail rail_electric rail_fast ship" speed="36.11" length="69.99" width="3.50" customShape="1" shape="-580.02,-73.42 -609.98,-106.54 -626.97,-125.33"/>
    </edge>
    <edge id="74498" from="40" to="37" priority="3" type="highway.residential" spreadType="center" length="19.36" shape="-566.92,-61.59 -528.80,-96.78">
        <lane id="74498_0" index="0" disallow="pedestrian tram rail_urban rail rail_electric rail_fast ship" speed="36.11" length="19.36" width="3.50" customShape="1" shape="-552.62,-74.84 -545.50,-81.41 -538.39,-87.96"/>
    </edge>
    <edge id="74499" from="37" to="40" priority="3" type="highway.residential" spreadType="center" length="19.36" shape="-526.43,-94.21 -564.54,-59.02">
        <lane id="74499_0" index="0" disallow="pedestrian tram rail_urban rail rail_electric rail_fast ship" speed="36.11" length="19.36" width="3.50" customShape="1" shape="-536.02,-85.39 -543.12,-78.84 -550.25,-72.27"/>
    </edge>
    <edge id="74501" from="38" to="40" priority="3" type="highway.residential" spreadType="center" length="19.76" shape="-605.53,-26.48 -566.82,-61.68">
        <lane id="74501_0" index="0" disallow="pedestrian tram rail_urban rail rail_electric rail_fast ship" speed="36.11" length="19.76" width="3.50" customShape="1" shape="-595.85,-35.22 -588.56,-41.88 -581.26,-48.55"/>
    </edge>
    <edge id="74502" from="40" to="38" priority="3" type="highway.residential" spreadType="center" length="19.76" shape="-564.47,-59.09 -603.18,-23.89">
        <lane id="74502_0" index="0" disallow="pedestrian tram rail_urban rail rail_electric rail_fast ship" speed="36.11" length="19.76" width="3.50" customShape="1" shape="-578.91,-45.96 -586.20,-39.30 -593.50,-32.63"/>
    </edge>

    <junction id="11" type="dead_end" x="-626.97" y="-125.33" incLanes="74437_0" intLanes="" shape="-628.27,-124.16 -625.68,-126.50" rightOfWay="edgePriority"/>
    <junction id="13" type="dead_end" x="-624.38" y="-127.68" incLanes="" intLanes="" shape="-625.68,-126.50 -623.08,-128.85" rightOfWay="edgePriority"/>
    <junction id="24" type="dead_end" x="-584.72" y="-164.00" incLanes="74199_0" intLanes="" shape="-586.00,-162.82 -583.43,-165.19" rightOfWay="edgePriority"/>
    <junction id="26" type="dead_end" x="-547.06" y="43.52" incLanes="74380_0" intLanes="" shape="-545.78,42.33 -548.34,44.71" rightOfWay="edgePriority"/>
    <junction id="29" type="dead_end" x="-671.09" y="-85.35" incLanes="74376_0" intLanes="" shape="-672.38,-84.17 -669.81,-86.54" rightOfWay="edgePriority"/>
    <junction id="30" type="dead_end" x="-512.35" y="46.03" incLanes="74192_0" intLanes="" shape="-510.63,46.32 -514.08,45.74" rightOfWay="edgePriority"/>
    <junction id="33" type="dead_end" x="-668.54" y="-87.74" incLanes="" intLanes="" shape="-669.83,-86.56 -667.25,-88.93" rightOfWay="edgePriority"/>
    <junction id="34" type="dead_end" x="-582.13" y="-166.36" incLanes="" intLanes="" shape="-583.41,-165.17 -580.84,-167.54" rightOfWay="edgePriority"/>
    <junction id="35" type="dead_end" x="-549.64" y="45.88" incLanes="" intLanes="" shape="-548.36,44.69 -550.92,47.07" rightOfWay="edgePriority"/>
    <junction id="36" type="dead_end" x="-515.81" y="45.46" incLanes="" intLanes="" shape="-514.08,45.74 -517.53,45.17" rightOfWay="edgePriority"/>
    <junction id="37" type="priority" x="-527.62" y="-95.49" incLanes="74196_0 74198_0 74498_0" intLanes=":37_0_0 :37_1_0 :37_2_0 :37_3_0 :37_4_0 :37_5_0" shape="-512.12,-83.71 -507.11,-88.60 -533.47,-116.04 -538.62,-111.30 -535.72,-107.50 -534.04,-103.76 -533.59,-100.06 -534.36,-96.41 -536.36,-92.81 -539.58,-89.25 -534.83,-84.11 -530.94,-87.10 -527.09,-88.88 -523.29,-89.42 -519.52,-88.74 -515.80,-86.84">
        <request index="0" response="000000" foes="001000" cont="0"/>
        <request index="1" response="000000" foes="111000" cont="0"/>
        <request index="2" response="000000" foes="100000" cont="0"/>
        <request index="3" response="000011" foes="100011" cont="0"/>
        <request index="4" response="000010" foes="000010" cont="0"/>
        <request index="5" response="001110" foes="001110" cont="0"/>
    </junction>
    <junction id="38" type="priority" x="-604.36" y="-25.19" incLanes="74379_0 74502_0 74377_0" intLanes=":38_0_0 :38_1_0 :38_2_0 :38_3_0 :38_4_0 :38_5_0" shape="-598.55,-4.18 -593.43,-8.95 -596.38,-12.78 -598.08,-16.57 -598.52,-20.33 -597.71,-24.04 -595.64,-27.71 -592.31,-31.35 -597.03,-36.51 -600.97,-33.51 -604.86,-31.77 -608.68,-31.29 -612.45,-32.07 -616.16,-34.12 -619.81,-37.42 -624.96,-32.68">
        <request index="0" response="000000" foes="001000" cont="0"/>
        <request index="1" response="110000" foes="111000" cont="0"/>
        <request index="2" response="100000" foes="100000" cont="0"/>
        <request index="3" response="100011" foes="100011" cont="0"/>
        <request index="4" response="000000" foes="000010" cont="0"/>
        <request index="5" response="000000" foes="001110" cont="0"/>
    </junction>
    <junction id="39" type="priority" x="-512.26" y="-8.46" incLanes="74195_0 74433_0 74193_0" intLanes=":39_0_0 :39_1_0 :39_2_0 :39_3_0" shape="-497.11,-24.67 -503.94,-26.19 -505.77,-21.23 -508.55,-17.80 -512.03,-15.95 -515.97,-15.77 -520.10,-17.31 -524.18,-20.66 -529.31,-15.89 -523.68,-9.40 -519.22,-3.26 -515.91,2.52 -513.77,7.95 -512.78,13.02 -512.96,17.73 -506.05,18.88">
        <request index="0" response="0000" foes="0010" cont="0"/>
        <request index="1" response="1001" foes="1001" cont="0"/>
        <request index="2" response="0000" foes="0000" cont="0"/>
        <request index="3" response="0000" foes="0010" cont="0"/>
    </junction>
    <junction id="40" type="priority" x="-565.69" y="-60.35" incLanes="74434_0 74499_0 74436_0 74501_0" intLanes=":40_0_0 :40_1_0 :40_2_0 :40_3_0 :40_4_0 :40_5_0 :40_6_0 :40_7_0 :40_8_0 :40_9_0 :40_10_0 :40_11_0" shape="-555.07,-43.60 -549.94,-48.37 -552.95,-52.26 -554.70,-56.10 -555.18,-59.89 -554.40,-63.64 -552.36,-67.33 -549.06,-70.98 -553.81,-76.13 -557.70,-73.13 -561.52,-71.39 -565.27,-70.90 -568.96,-71.66 -572.58,-73.67 -576.13,-76.94 -581.32,-72.24 -578.41,-68.37 -576.74,-64.55 -576.31,-60.79 -577.12,-57.08 -579.16,-53.43 -582.45,-49.84 -577.73,-44.67 -573.85,-47.61 -570.01,-49.31 -566.21,-49.75 -562.45,-48.95 -558.74,-46.90">
        <request index="0" response="000000010000" foes="000100010000" cont="0"/>
        <request index="1" response="111000110000" foes="111100110000" cont="0"/>
        <request index="2" response="110011110000" foes="110011110000" cont="0"/>
        <request index="3" response="000000000000" foes="100010000000" cont="0"/>
        <request index="4" response="000000000000" foes="100110000111" cont="0"/>
        <request index="5" response="011000000000" foes="011110000110" cont="0"/>
        <request index="6" response="010000000000" foes="010000000100" cont="0"/>
        <request index="7" response="110000111000" foes="110000111100" cont="0"/>
        <request index="8" response="110000110011" foes="110000110011" cont="0"/>
        <request index="9" response="000000000000" foes="000000100010" cont="0"/>
        <request index="10" response="000000000000" foes="000111100110" cont="0"/>
        <request index="11" response="000000011000" foes="000110011110" cont="0"/>
    </junction>

    <connection from="74193" to="74434" fromLane="0" toLane="0" contPos="-4.00" shape="-511.24,18.03 -511.01,15.99 -510.98,13.93 -511.30,10.85 -511.99,7.84 -512.98,4.91 -514.21,2.07 -516.14,-1.57 -518.33,-5.06 -521.34,-9.24 -524.60,-13.24 -528.03,-17.08" via=":39_2_0" dir="r" state="M"/>