<routes>
	<vehicle depart="0.1" departLane="0" departPos="28.709118607224074" departSpeed="3.8100011" id="355" type="bicycle">
		<route edges="31614 31065"/>
	</vehicle>
	<vehicle depart="0.1" departLane="0" departPos="2.5" departSpeed="0.014188696" id="31" type="passenger">
		<route edges=":58_3 31062"/>
	</vehicle>
	<vehicle depart="0.1" departLane="0" departPos="2.5" departSpeed="12.432873" id="32" type="passenger">
		<route edges=":55_3 31611"/>
	</vehicle>
	<vehicle depart="0.1" departLane="0" departPos="23.24884393011399" departSpeed="0.075667912" id="314" type="passenger">
		<route edges="31615 35416"/>
	</vehicle>
	<vehicle depart="0.1" departLane="0" departPos="69.63726758010439" departSpeed="0.024457807" id="315" type="passenger">
		<route edges="31612 31615"/>
	</vehicle>
	<vehicle depart="0.1" departLane="0" departPos="13.516960698854671" departSpeed="10.434654" id="318" type="passenger">
		<route edges="31614 31611"/>
	</vehicle>
	<vehicle depart="0.1" departLane="0" departPos="61.84739119190769" departSpeed="0.037090954" id="322" type="passenger">
		<route edges="31612 31615"/>
	</vehicle>
	<vehicle depart="0.1" departLane="0" departPos="53.14909401352733" departSpeed="0.086221492" id="332" type="passenger">
		<route edges="31612 31615"/>
	</vehicle>
	<vehicle depart="0.1" departLane="0" departPos="22.389798667472796" departSpeed="0.066292029" id="338" type="passenger">
		<route edges=":55_2 31065"/>
	</vehicle>
	<vehicle depart="0.1" departLane="0" departPos="12.180775683866042" departSpeed="0.47461463" id="353" type="passenger">
		<route edges=":55_2 31065"/>
	</vehicle>
</routes>
