<routes>
	<vehicle depart="0.1" departLane="0" departPos="62.02607907524586" departSpeed="2.3460686" id="368" type="bicycle">
		<route edges="2650 2653"/>
	</vehicle>
	<vehicle depart="0.1" departLane="0" departPos="22.840122039053895" departSpeed="0.69103099" id="39" type="passenger">
		<route edges=":30_11 2649"/>
	</vehicle>
	<vehicle depart="0.1" departLane="0" departPos="25.66413559564984" departSpeed="11.535386" id="312" type="passenger">
		<route edges=":30_8 2061 2441"/>
	</vehicle>
	<vehicle depart="0.1" departLane="0" departPos="69.89979988602126" departSpeed="0.0" id="315" type="passenger">
		<route edges="2652 2065"/>
	</vehicle>
	<vehicle depart="0.1" departLane="0" departPos="2.5" departSpeed="6.2699885" id="371" type="passenger">
		<route edges="2650 2061"/>
	</vehicle>
	<vehicle depart="0.1" departLane="0" departPos="69.90135741330323" departSpeed="0.0" id="329" type="truck">
		<route edges="2064 2649"/>
	</vehicle>
	<vehicle depart="0.1" departLane="0" departPos="44.24259008792748" departSpeed="5.568764" id="369" type="truck">
		<route edges="2650 2061"/>
	</vehicle>
	<vehicle depart="0.1" departLane="0" departPos="29.864734925192366" departSpeed="6.0360238" id="370" type="truck">
		<route edges="2650 2061"/>
	</vehicle>
</routes>
