<!-- generated on Tue Feb  9 22:00:45 2021 by Eclipse SUMO netconvert Version 1.8.0
<configuration xmlns:xsi="http://www.w3.org/2001/XMLSchema-instance" xsi:noNamespaceSchemaLocation="http://sumo.dlr.de/xsd/netconvertConfiguration.xsd">

    <input>
        <node-files value="./converted_scenarios/scenario-factory/DEU_Hennigsdorf-3_4_I-1-1/DEU_Hennigsdorf-3_4_I-1-1.nod.xml"/>
        <edge-files value="./converted_scenarios/scenario-factory/DEU_Hennigsdorf-3_4_I-1-1/DEU_Hennigsdorf-3_4_I-1-1.edg.xml"/>
        <connection-files value="./converted_scenarios/scenario-factory/DEU_Hennigsdorf-3_4_I-1-1/DEU_Hennigsdorf-3_4_I-1-1.con.xml"/>
        <tllogic-files value="./converted_scenarios/scenario-factory/DEU_Hennigsdorf-3_4_I-1-1/DEU_Hennigsdorf-3_4_I-1-1.tll.xml"/>
        <type-files value="/home/zen/commonroad-interactive-benchmarks/install/commonroad-map-tool/crmapconverter/sumo_map/templates/DEU.typ.xml"/>
    </input>

    <output>
        <output-file value="./converted_scenarios/scenario-factory/DEU_Hennigsdorf-3_4_I-1-1/DEU_Hennigsdorf-3_4_I-1-1.net.xml"/>
    </output>

    <processing>
        <geometry.remove.keep-edges.explicit value="true"/>
        <geometry.avoid-overlap value="true"/>
        <offset.disable-normalization value="true"/>
    </processing>

    <junctions>
        <no-turnarounds value="true"/>
        <junctions.internal-link-detail value="20"/>
    </junctions>

    <report>
        <aggregate-warnings value="5"/>
    </report>

    <random_number>
        <seed value="1234"/>
    </random_number>

</configuration>
--><net xmlns:xsi="http://www.w3.org/2001/XMLSchema-instance" version="1.6" junctionCornerDetail="5" junctionLinkDetail="20" limitTurnSpeed="5.50" xsi:noNamespaceSchemaLocation="http://sumo.dlr.de/xsd/net_file.xsd">

    <location netOffset="0.00,0.00" convBoundary="-120.49,301.83,57.44,508.90" origBoundary="-120.49,301.83,57.44,508.90" projParameter="!"/>

    <type id="highway.bridleway" priority="1" speed="2.78" allow="pedestrian" oneway="1" width="2.00"/>
    <type id="highway.bus_guideway" priority="1" speed="27.78" allow="bus" oneway="1"/>
    <type id="highway.cycleway" priority="1" speed="8.33" allow="bicycle" oneway="0" width="1.00"/>
    <type id="highway.footway" priority="1" speed="2.78" allow="pedestrian" oneway="1" width="2.00"/>
    <type id="highway.ford" priority="1" speed="2.78" allow="army" oneway="0"/>
    <type id="highway.living_street" priority="2" speed="2.78" disallow="tram rail_urban rail rail_electric rail_fast ship" oneway="0"/>
    <type id="highway.motorway" priority="14" speed="39.44" allow="private emergency authority army vip passenger hov taxi bus coach delivery truck trailer motorcycle evehicle custom1 custom2" oneway="1"/>
    <type id="highway.motorway_link" priority="9" speed="22.22" allow="private emergency authority army vip passenger hov taxi bus coach delivery truck trailer motorcycle evehicle custom1 custom2" oneway="1"/>
    <type id="highway.path" priority="1" speed="2.78" allow="pedestrian bicycle" oneway="0" width="2.00"/>
    <type id="highway.pedestrian" priority="1" speed="2.78" allow="pedestrian" oneway="1" width="2.00"/>
    <type id="highway.primary" priority="12" speed="27.78" disallow="pedestrian tram rail_urban rail rail_electric rail_fast ship" oneway="0"/>
    <type id="highway.primary_link" priority="7" speed="22.22" disallow="pedestrian tram rail_urban rail rail_electric rail_fast ship" oneway="0"/>
    <type id="highway.raceway" priority="15" speed="83.33" allow="vip" oneway="0"/>
    <type id="highway.residential" priority="3" speed="13.89" disallow="pedestrian tram rail_urban rail rail_electric rail_fast ship" oneway="0"/>
    <type id="highway.secondary" priority="11" speed="27.78" disallow="pedestrian tram rail_urban rail rail_electric rail_fast ship" oneway="0"/>
    <type id="highway.secondary_link" priority="6" speed="22.22" disallow="pedestrian tram rail_urban rail rail_electric rail_fast ship" oneway="0"/>
    <type id="highway.service" priority="1" speed="5.56" allow="pedestrian delivery bicycle" oneway="0"/>
    <type id="highway.stairs" priority="1" speed="1.39" allow="pedestrian" oneway="1" width="2.00"/>
    <type id="highway.step" priority="1" speed="1.39" allow="pedestrian" oneway="1" width="2.00"/>
    <type id="highway.steps" priority="1" speed="1.39" allow="pedestrian" oneway="1" width="2.00"/>
    <type id="highway.tertiary" priority="10" speed="22.22" disallow="pedestrian tram rail_urban rail rail_electric rail_fast ship" oneway="0"/>
    <type id="highway.tertiary_link" priority="5" speed="22.22" disallow="pedestrian tram rail_urban rail rail_electric rail_fast ship" oneway="0"/>
    <type id="highway.track" priority="1" speed="5.56" allow="pedestrian motorcycle moped bicycle" oneway="0"/>
    <type id="highway.trunk" priority="13" speed="27.78" disallow="pedestrian bicycle tram rail_urban rail rail_electric rail_fast ship" oneway="0"/>
    <type id="highway.trunk_link" priority="8" speed="22.22" disallow="pedestrian bicycle tram rail_urban rail rail_electric rail_fast ship" oneway="0"/>
    <type id="highway.unclassified" priority="4" speed="13.89" disallow="pedestrian tram rail_urban rail rail_electric rail_fast ship" oneway="0"/>
    <type id="highway.unsurfaced" priority="1" speed="8.33" disallow="tram rail_urban rail rail_electric rail_fast ship" oneway="0"/>
    <type id="railway.highspeed" priority="21" speed="69.44" allow="rail_fast" oneway="1"/>
    <type id="railway.light_rail" priority="19" speed="27.78" allow="rail_urban" oneway="1"/>
    <type id="railway.preserved" priority="16" speed="27.78" allow="rail" oneway="1"/>
    <type id="railway.rail" priority="20" speed="44.44" allow="rail" oneway="1"/>
    <type id="railway.subway" priority="18" speed="27.78" allow="rail_urban" oneway="1"/>
    <type id="railway.tram" priority="17" speed="13.89" allow="tram" oneway="1"/>

    <edge id=":29_0" function="internal">
        <lane id=":29_0_0" index="0" disallow="pedestrian tram rail_urban rail rail_electric rail_fast ship" speed="11.13" length="29.09" width="3.50" shape="-44.33,447.01 -46.07,443.94 -47.38,442.08 -48.86,440.39 -50.54,438.90 -51.41,438.30 -52.34,437.75 -53.30,437.30 -54.30,436.93 -55.33,436.66 -56.39,436.48 -57.46,436.40 -58.52,436.41 -60.74,436.67 -62.92,437.22 -65.05,438.00 -68.20,439.54"/>
    </edge>
    <edge id=":29_1" function="internal">
        <lane id=":29_1_0" index="0" disallow="pedestrian tram rail_urban rail rail_electric rail_fast ship" speed="36.11" length="38.90" width="3.50" shape="-44.33,447.01 -52.30,431.52 -61.09,415.34 -62.59,412.66"/>
    </edge>
    <edge id=":29_2" function="internal">
        <lane id=":29_2_0" index="0" disallow="pedestrian tram rail_urban rail rail_electric rail_fast ship" speed="12.14" length="34.83" width="3.50" shape="-44.33,447.01 -45.97,443.31 -46.82,440.77 -47.42,438.17 -47.71,435.51 -47.72,434.17 -47.63,432.83 -47.42,431.51 -47.09,430.21 -46.65,428.95 -46.09,427.73 -45.42,426.58 -44.65,425.48 -43.79,424.45 -41.87,422.59 -39.73,420.98 -37.43,419.61 -35.03,418.41"/>
    </edge>
    <edge id=":29_3" function="internal">
        <lane id=":29_3_0" index="0" disallow="pedestrian tram rail_urban rail rail_electric rail_fast ship" speed="11.13" length="29.10" width="3.50" shape="-33.57,421.60 -35.67,422.64 -37.64,423.82 -39.44,425.17 -41.05,426.73 -41.72,427.55 -42.33,428.43 -42.86,429.36 -43.30,430.33 -43.65,431.34 -43.91,432.37 -44.07,433.43 -44.14,434.52 -44.14,435.58 -43.88,437.83 -43.37,440.04 -42.64,442.20 -41.20,445.43"/>
    </edge>
    <edge id=":29_4" function="internal">
        <lane id=":29_4_0" index="0" disallow="pedestrian tram rail_urban rail rail_electric rail_fast ship" speed="36.11" length="39.01" width="3.50" shape="-33.57,421.60 -41.93,425.59 -54.68,432.19 -68.20,439.54"/>
    </edge>
    <edge id=":29_5" function="internal">
        <lane id=":29_5_0" index="0" disallow="pedestrian tram rail_urban rail rail_electric rail_fast ship" speed="12.52" length="34.16" width="3.50" shape="-33.57,421.60 -37.13,423.00 -39.55,423.71 -42.03,424.21 -44.55,424.43 -47.08,424.35 -49.57,423.91 -51.96,423.11 -54.21,421.96 -56.27,420.50 -58.13,418.78 -59.80,416.88 -61.27,414.82 -62.59,412.66"/>
    </edge>
    <edge id=":29_6" function="internal">
        <lane id=":29_6_0" index="0" disallow="pedestrian tram rail_urban rail rail_electric rail_fast ship" speed="11.55" length="28.90" width="3.50" shape="-59.54,410.94 -58.39,412.83 -57.12,414.60 -55.70,416.23 -54.14,417.66 -52.43,418.87 -50.58,419.82 -48.62,420.47 -46.57,420.82 -44.47,420.88 -42.35,420.68 -40.22,420.26 -38.14,419.65 -35.03,418.41"/>
    </edge>
    <edge id=":29_7" function="internal">
        <lane id=":29_7_0" index="0" disallow="pedestrian tram rail_urban rail rail_electric rail_fast ship" speed="36.11" length="39.07" width="3.50" shape="-59.54,410.94 -58.03,413.65 -49.21,429.89 -41.20,445.43"/>
    </edge>
    <edge id=":29_8" function="internal">
        <lane id=":29_8_0" index="0" disallow="pedestrian tram rail_urban rail rail_electric rail_fast ship" speed="12.18" length="34.23" width="3.50" shape="-59.54,410.94 -58.92,412.09 -57.85,414.39 -56.96,416.83 -56.34,419.39 -56.06,422.01 -56.07,423.39 -56.19,424.74 -56.43,426.09 -56.79,427.41 -57.27,428.69 -57.85,429.91 -58.52,431.08 -59.30,432.21 -60.99,434.20 -62.91,435.97 -64.97,437.54 -68.20,439.54"/>
    </edge>
    <edge id=":29_9" function="internal">
        <lane id=":29_9_0" index="0" disallow="pedestrian tram rail_urban rail rail_electric rail_fast ship" speed="11.17" length="28.61" width="3.50" shape="-69.89,436.47 -67.08,434.74 -65.33,433.41 -63.71,431.91 -62.28,430.24 -61.66,429.34 -61.10,428.39 -60.63,427.39 -60.24,426.36 -59.95,425.30 -59.75,424.22 -59.65,423.12 -59.64,422.02 -59.87,419.83 -60.38,417.69 -61.13,415.63 -62.07,413.63 -62.59,412.66"/>
    </edge>
    <edge id=":29_10" function="internal">
        <lane id=":29_10_0" index="0" disallow="pedestrian tram rail_urban rail rail_electric rail_fast ship" speed="36.11" length="39.27" width="3.50" shape="-69.89,436.47 -56.30,429.08 -43.46,422.44 -35.03,418.41"/>
    </edge>
    <edge id=":29_11" function="internal">
        <lane id=":29_11_0" index="0" disallow="pedestrian tram rail_urban rail rail_electric rail_fast ship" speed="12.13" length="34.81" width="3.50" shape="-69.89,436.47 -66.28,434.72 -63.77,433.80 -61.17,433.14 -58.52,432.82 -57.18,432.81 -55.84,432.92 -54.52,433.14 -53.23,433.48 -51.97,433.94 -50.76,434.51 -49.60,435.18 -48.51,435.95 -46.50,437.73 -44.74,439.74 -43.19,441.92 -41.20,445.43"/>
    </edge>
    <edge id=":30_0" function="internal">
        <lane id=":30_0_0" index="0" disallow="pedestrian tram rail_urban rail rail_electric rail_fast ship" speed="11.01" length="28.97" width="3.50" shape="19.46,411.17 18.28,409.19 16.95,407.38 15.40,405.77 14.59,405.10 13.71,404.48 12.79,403.95 11.83,403.52 10.83,403.18 9.80,402.94 8.74,402.80 7.67,402.76 6.61,402.80 4.39,403.12 2.21,403.72 0.07,404.55 -2.03,405.54 -5.08,407.27"/>
    </edge>
    <edge id=":30_1" function="internal">
        <lane id=":30_1_0" index="0" disallow="pedestrian tram rail_urban rail rail_electric rail_fast ship" speed="36.11" length="51.31" width="3.50" shape="19.46,411.17 7.30,388.55 -4.83,365.97"/>
    </edge>
    <edge id=":30_2" function="internal">
        <lane id=":30_2_0" index="0" disallow="pedestrian tram rail_urban rail rail_electric rail_fast ship" speed="19.70" length="49.18" width="3.50" shape="19.46,411.17 17.98,408.14 16.77,405.02 15.83,401.80 15.16,398.52 14.78,395.19 14.66,391.84 14.80,388.49 15.18,385.16 16.03,380.77 17.21,376.46 18.69,372.25 20.89,367.11 22.37,364.10"/>
    </edge>
    <edge id=":30_3" function="internal">
        <lane id=":30_3_0" index="0" disallow="pedestrian tram rail_urban rail rail_electric rail_fast ship" speed="19.02" length="45.79" width="3.50" shape="25.48,365.70 24.09,368.54 22.00,373.40 20.60,377.36 19.48,381.39 18.68,385.49 18.31,388.58 18.17,391.68 18.26,394.78 18.61,397.85 19.21,400.87 20.07,403.84 21.18,406.72 22.54,409.52"/>
    </edge>
    <edge id=":30_4" function="internal">
        <lane id=":30_4_0" index="0" disallow="pedestrian tram rail_urban rail rail_electric rail_fast ship" speed="31.99" length="52.09" width="3.50" shape="25.48,365.70 23.53,369.43 18.96,377.71 14.60,384.93 10.49,391.08 6.65,396.16 3.16,400.21 0.11,403.26 -2.39,405.38 -5.08,407.27"/>
    </edge>
    <edge id=":30_5" function="internal">
        <lane id=":30_5_0" index="0" disallow="pedestrian tram rail_urban rail rail_electric rail_fast ship" speed="11.35" length="43.03" width="3.50" shape="25.48,365.70 23.20,369.77 21.44,372.40 19.44,374.88 18.28,376.07 17.01,377.17 15.60,378.15 14.02,378.96 12.28,379.51 10.43,379.71 8.58,379.53 6.84,379.01 5.25,378.23 3.82,377.27 2.54,376.19 1.36,375.02 -0.68,372.58 -2.49,369.98 -4.83,365.97"/>
    </edge>
    <edge id=":30_6" function="internal">
        <lane id=":30_6_0" index="0" disallow="pedestrian tram rail_urban rail rail_electric rail_fast ship" speed="10.24" length="34.79" width="3.50" shape="-1.75,364.30 0.27,367.76 1.79,369.97 3.51,372.02 4.46,372.96 5.49,373.82 6.59,374.57 7.79,375.17 9.07,375.55 10.40,375.68 11.73,375.53 13.00,375.13 14.19,374.52 15.29,373.75 16.30,372.87 17.23,371.91 18.92,369.83 20.40,367.60 22.37,364.10"/>
    </edge>
    <edge id=":30_7" function="internal">
        <lane id=":30_7_0" index="0" disallow="pedestrian tram rail_urban rail rail_electric rail_fast ship" speed="36.11" length="51.33" width="3.50" shape="-1.75,364.30 10.39,386.90 22.54,409.52"/>
    </edge>
    <edge id=":30_8" function="internal">
        <lane id=":30_8_0" index="0" disallow="pedestrian tram rail_urban rail rail_electric rail_fast ship" speed="14.72" length="48.19" width="3.50" shape="-1.75,364.30 -0.65,366.42 1.38,370.74 3.14,375.20 4.23,378.67 5.06,382.23 5.55,385.87 5.65,388.37 5.51,390.87 5.12,393.37 4.44,395.82 3.46,398.18 2.19,400.39 0.65,402.43 -1.11,404.26 -3.04,405.87 -5.08,407.27"/>
    </edge>
    <edge id=":30_9" function="internal">
        <lane id=":30_9_0" index="0" disallow="pedestrian tram rail_urban rail rail_electric rail_fast ship" speed="13.90" length="42.89" width="3.50" shape="-6.95,404.32 -5.14,403.07 -3.46,401.65 -1.95,400.05 -0.65,398.27 0.41,396.34 1.21,394.29 1.74,392.16 2.03,389.98 2.11,387.78 1.98,385.58 1.49,382.32 0.71,379.11 -0.31,375.97 -1.94,371.88 -3.82,367.90 -4.83,365.97"/>
    </edge>
    <edge id=":30_10" function="internal">
        <lane id=":30_10_0" index="0" disallow="pedestrian tram rail_urban rail rail_electric rail_fast ship" speed="31.37" length="50.24" width="3.50" shape="-6.95,404.32 -4.44,402.55 -2.10,400.55 0.79,397.64 4.12,393.74 7.81,388.82 11.79,382.85 16.02,375.82 20.47,367.74 22.37,364.10"/>
    </edge>
    <edge id=":30_11" function="internal">
        <lane id=":30_11_0" index="0" disallow="pedestrian tram rail_urban rail rail_electric rail_fast ship" speed="12.03" length="34.83" width="3.50" shape="-6.95,404.32 -3.46,402.33 -1.04,401.19 1.47,400.25 4.05,399.56 6.71,399.19 8.04,399.16 9.38,399.24 10.70,399.43 12.00,399.76 13.27,400.20 14.48,400.77 15.63,401.45 16.72,402.23 17.74,403.09 19.58,405.04 21.16,407.20 22.54,409.52"/>
    </edge>

    <edge id="2058" from="29" to="7" priority="3" type="highway.residential" spreadType="center" length="57.35" shape="-50.94,430.54 -118.83,466.48">
        <lane id="2058_0" index="0" disallow="pedestrian tram rail_urban rail rail_electric rail_fast ship" speed="36.11" length="57.35" width="3.50" customShape="1" shape="-68.20,439.54 -77.47,444.60 -101.99,457.44 -118.83,466.48"/>
    </edge>
    <edge id="2059" from="25" to="29" priority="3" type="highway.residential" spreadType="center" length="57.33" shape="-120.49,463.40 -52.58,427.44">
        <lane id="2059_0" index="0" disallow="pedestrian tram rail_urban rail rail_electric rail_fast ship" speed="36.11" length="57.33" width="3.50" customShape="1" shape="-120.49,463.40 -103.65,454.36 -79.14,441.53 -69.88,436.47"/>
    </edge>
    <edge id="2061" from="30" to="29" priority="3" type="highway.residential" spreadType="center" length="31.93" shape="9.94,387.95 -50.79,430.44">
        <lane id="2061_0" index="0" disallow="pedestrian tram rail_urban rail rail_electric rail_fast ship" speed="36.11" length="31.93" width="3.50" customShape="1" shape="-5.08,407.27 -6.41,408.10 -12.68,411.67 -20.03,415.39 -33.58,421.60"/>
    </edge>
    <edge id="2062" from="29" to="30" priority="3" type="highway.residential" spreadType="center" length="31.49" shape="-52.80,427.58 7.93,385.09">
        <lane id="2062_0" index="0" disallow="pedestrian tram rail_urban rail rail_electric rail_fast ship" speed="36.11" length="31.49" width="3.50" customShape="1" shape="-35.03,418.41 -21.60,412.26 -14.37,408.61 -8.22,405.10 -6.91,404.30"/>
    </edge>
    <edge id="2064" from="28" to="30" priority="3" type="highway.residential" spreadType="center" length="70.00" shape="57.44,303.44 10.41,387.43">
        <lane id="2064_0" index="0" disallow="pedestrian tram rail_urban rail rail_electric rail_fast ship" speed="36.11" length="70.00" width="3.50" customShape="1" shape="57.44,303.44 47.29,323.22 25.47,365.71"/>
    </edge>
    <edge id="2065" from="30" to="23" priority="3" type="highway.residential" spreadType="center" length="70.00" shape="7.36,385.72 54.34,301.83">
        <lane id="2065_0" index="0" disallow="pedestrian tram rail_urban rail rail_electric rail_fast ship" speed="36.11" length="70.00" width="3.50" customShape="1" shape="22.37,364.10 44.17,321.62 54.34,301.83"/>
    </edge>
    <edge id="2437" from="29" to="15" priority="3" type="highway.residential" spreadType="center" length="70.00" shape="-50.26,428.16 -8.53,507.33">
        <lane id="2437_0" index="0" disallow="pedestrian tram rail_urban rail rail_electric rail_fast ship" speed="36.11" length="70.00" width="3.50" customShape="1" shape="-41.20,445.43 -38.95,449.93 -30.20,467.02 -14.20,496.27 -8.53,507.33"/>
    </edge>
    <edge id="2438" from="17" to="29" priority="3" type="highway.residential" spreadType="center" length="70.00" shape="-11.65,508.90 -53.36,429.79">
        <lane id="2438_0" index="0" disallow="pedestrian tram rail_urban rail rail_electric rail_fast ship" speed="36.11" length="70.00" width="3.50" customShape="1" shape="-11.65,508.90 -17.29,497.90 -33.31,468.63 -42.07,451.51 -44.33,447.00"/>
    </edge>
    <edge id="2440" from="18" to="29" priority="3" type="highway.residential" spreadType="center" length="70.03" shape="-93.22,349.58 -50.24,428.20">
        <lane id="2440_0" index="0" disallow="pedestrian tram rail_urban rail rail_electric rail_fast ship" speed="36.11" length="70.03" width="3.50" customShape="1" shape="-93.22,349.58 -59.52,410.97"/>
    </edge>
    <edge id="2441" from="29" to="6" priority="3" type="highway.residential" spreadType="center" length="70.00" shape="-53.31,429.88 -96.27,351.29">
        <lane id="2441_0" index="0" disallow="pedestrian tram rail_urban rail rail_electric rail_fast ship" speed="36.11" length="70.00" width="3.50" customShape="1" shape="-62.59,412.66 -96.27,351.29"/>
    </edge>
    <edge id="2649" from="30" to="24" priority="3" type="highway.residential" spreadType="center" length="70.00" shape="10.43,385.70 55.67,471.18">
        <lane id="2649_0" index="0" disallow="pedestrian tram rail_urban rail rail_electric rail_fast ship" speed="36.11" length="70.00" width="3.50" customShape="1" shape="22.54,409.52 43.97,449.41 55.67,471.18"/>
    </edge>
    <edge id="2650" from="26" to="30" priority="3" type="highway.residential" spreadType="center" length="70.00" shape="52.58,472.84 7.34,387.34">
        <lane id="2650_0" index="0" disallow="pedestrian tram rail_urban rail rail_electric rail_fast ship" speed="36.11" length="70.00" width="3.50" customShape="1" shape="52.58,472.84 40.89,451.07 19.46,411.17"/>
    </edge>
    <edge id="2652" from="27" to="30" priority="3" type="highway.residential" spreadType="center" length="70.00" shape="-35.01,302.71 10.45,385.73">
        <lane id="2652_0" index="0" disallow="pedestrian tram rail_urban rail rail_electric rail_fast ship" speed="36.11" length="70.00" width="3.50" customShape="1" shape="-35.01,302.71 -1.75,364.30"/>
    </edge>
    <edge id="2653" from="30" to="22" priority="3" type="highway.residential" spreadType="center" length="70.01" shape="7.38,387.41 -38.09,304.37">
        <lane id="2653_0" index="0" disallow="pedestrian tram rail_urban rail rail_electric rail_fast ship" speed="36.11" length="70.01" width="3.50" customShape="1" shape="-4.83,365.97 -38.09,304.37"/>
    </edge>

    <junction id="15" type="dead_end" x="-8.53" y="507.33" incLanes="2437_0" intLanes="" shape="-6.97,506.53 -10.08,508.13" rightOfWay="edgePriority"/>
    <junction id="17" type="dead_end" x="-11.65" y="508.90" incLanes="" intLanes="" shape="-10.10,508.10 -13.21,509.70" rightOfWay="edgePriority"/>
    <junction id="18" type="dead_end" x="-93.22" y="349.58" incLanes="" intLanes="" shape="-94.75,350.42 -91.69,348.74" rightOfWay="edgePriority"/>
    <junction id="22" type="dead_end" x="-38.09" y="304.37" incLanes="2653_0" intLanes="" shape="-39.63,305.20 -36.55,303.54" rightOfWay="edgePriority"/>
    <junction id="23" type="dead_end" x="54.34" y="301.83" incLanes="2065_0" intLanes="" shape="52.78,301.03 55.89,302.63" rightOfWay="edgePriority"/>
    <junction id="24" type="dead_end" x="55.67" y="471.18" incLanes="2649_0" intLanes="" shape="57.21,470.35 54.13,472.01" rightOfWay="edgePriority"/>
    <junction id="25" type="dead_end" x="-120.49" y="463.40" incLanes="" intLanes="" shape="-119.66,464.94 -121.31,461.86" rightOfWay="edgePriority"/>
    <junction id="26" type="dead_end" x="52.58" y="472.84" incLanes="" intLanes="" shape="54.13,472.01 51.04,473.67" rightOfWay="edgePriority"/>
    <junction id="27" type="dead_end" x="-35.01" y="302.71" incLanes="" intLanes="" shape="-36.55,303.54 -33.47,301.88" rightOfWay="edgePriority"/>
    <junction id="28" type="dead_end" x="57.44" y="303.44" incLanes="" intLanes="" shape="55.89,302.64 59.00,304.24" rightOfWay="edgePriority"/>
    <junction id="29" type="priority" x="-51.79" y="429.01" incLanes="2438_0 2061_0 2440_0 2059_0" intLanes=":29_0_0 :29_1_0 :29_2_0 :29_3_0 :29_4_0 :29_5_0 :29_6_0 :29_7_0 :29_8_0 :29_9_0 :29_10_0 :29_11_0" shape="-45.90,447.78 -39.64,444.65 -41.53,439.91 -42.21,435.63 -41.68,431.82 -39.94,428.48 -36.99,425.60 -32.84,423.19 -35.75,416.83 -40.49,418.53 -44.81,419.10 -48.73,418.55 -52.23,416.87 -55.31,414.07 -57.99,410.13 -64.12,413.50 -62.21,417.91 -61.51,421.98 -62.01,425.72 -63.71,429.12 -66.61,432.19 -70.72,434.93 -67.36,441.07 -62.82,439.10 -58.66,438.37 -54.89,438.87 -51.50,440.60 -48.51,443.58">
        <request index="0" response="000000000000" foes="000100010000" cont="0"/>
        <request index="1" response="000000000000" foes="111100110000" cont="0"/>
        <request index="2" response="000011000000" foes="110011110000" cont="0"/>
        <request index="3" response="000010000000" foes="100010000000" cont="0"/>
        <request index="4" response="000110000111" foes="100110000111" cont="0"/>
        <request index="5" response="011110000110" foes="011110000110" cont="0"/>
        <request index="6" response="000000000000" foes="010000000100" cont="0"/>
        <request index="7" response="000000000000" foes="110000111100" cont="0"/>
        <request index="8" response="000000000011" foes="110000110011" cont="0"/>
        <request index="9" response="000000000010" foes="000000100010" cont="0"/>
        <request index="10" response="000111000110" foes="000111100110" cont="0"/>
        <request index="11" response="000110011110" foes="000110011110" cont="0"/>
    </junction>
    <junction id="30" type="priority" x="8.90" y="386.54" incLanes="2650_0 2064_0 2652_0 2062_0" intLanes=":30_0_0 :30_1_0 :30_2_0 :30_3_0 :30_4_0 :30_5_0 :30_6_0 :30_7_0 :30_8_0 :30_9_0 :30_10_0 :30_11_0" shape="17.91,412.00 24.08,408.69 21.51,402.57 20.16,396.09 20.04,389.24 21.14,382.02 23.48,374.44 27.04,366.50 20.81,363.30 17.78,367.64 14.22,370.25 10.38,371.14 6.52,370.30 2.90,367.75 -0.21,363.47 -6.37,366.80 -2.46,375.11 -0.21,382.51 0.37,388.97 -0.70,394.51 -3.44,399.12 -7.83,402.81 -4.16,408.76 0.70,406.23 5.08,404.93 8.99,404.86 12.44,406.01 15.41,408.39">
        <request index="0" response="000000000000" foes="000100010000" cont="0"/>
        <request index="1" response="000000000000" foes="111100110000" cont="0"/>
        <request index="2" response="000011000000" foes="110011110000" cont="0"/>
        <request index="3" response="000010000000" foes="100010000000" cont="0"/>
        <request index="4" response="000110000111" foes="100110000111" cont="0"/>
        <request index="5" response="011110000110" foes="011110000110" cont="0"/>
        <request index="6" response="000000000000" foes="010000000100" cont="0"/>
        <request index="7" response="000000000000" foes="110000111100" cont="0"/>
        <request index="8" response="000000000011" foes="110000110011" cont="0"/>
        <request index="9" response="000000000010" foes="000000100010" cont="0"/>
        <request index="10" response="000111000110" foes="000111100110" cont="0"/>
        <request index="11" response="000110011110" foes="000110011110" cont="0"/>
    </junction>
    <junction id="6" type="dead_end" x="-96.27" y="351.29" incLanes="2441_0" intLanes="" shape="-97.81,352.14 -94.74,350.45" rightOfWay="edgePriority"/>
    <junction id="7" type="dead_end" x="-118.83" y="466.48" incLanes="2058_0" intLanes="" shape="-118.00,468.02 -119.66,464.94" rightOfWay="edgePriority"/>

    <connection from="2059" to="2441" fromLane="0" toLane="0" contPos="-4.00" shape="-69.89,436.47 -67.08,434.74 -65.33,433.41 -63.71,431.91 -62.28,430.24 -61.66,429.34 -61.10,428.39 -60.63,427.39 -60.24,426.36 -59.95,425.30 -59.75,424.22 -59.65,423.12 -59.64,422.02 -59.87,419.83 -60.38,417.69 -61.13,415.63 -62.07,413.63 -62.59,412.66" via=":29_9_0" dir="r" state="m"/>
    <connection from="2059" to="2062" fromLane="0" toLane="0" contPos="-4.00" shape="-69.89,436.47 -56.30,429.08 -43.46,422.44 -35.03,418.41" via=":29_10_0" dir="s" state="m"/>
    <connection from="2059" to="2437" fromLane="0" toLane="0" contPos="-4.00" shape="-69.89,436.47 -66.28,434.72 -63.77,433.80 -61.17,433.14 -58.52,432.82 -57.18,432.81 -55.84,432.92 -54.52,433.14 -53.23,433.48 -51.97,433.94 -50.76,434.51 -49.60,435.18 -48.51,435.95 -46.50,437.73 -44.74,439.74 -43.19,441.92 -41.20,445.43" via=":29_11_0" dir="l" state="m"/>
    <connection from="2061" to="2437" fromLane="0" toLane="0" contPos="-4.00" shape="-33.58,421.60 -35.67,422.64 -37.64,423.82 -39.44,425.17 -41.05,426.73 -41.72,427.55 -42.33,428.43 -42.86,429.36 -43.30,430.33 -43.65,431.34 -43.91,432.37 -44.07,433.43 -44.14,434.52 -44.14,435.58 -43.88,437.83 -43.37,440.04 -42.64,442.20 -41.20,445.43" via=":29_3_0" dir="r" state="m"/>
    <connection from="2061" to="2058" fromLane="0" toLane="0" contPos="-4.00" shape="-33.58,421.60 -41.93,425.59 -54.68,432.19 -68.20,439.54" via=":29_4_0" dir="s" state="m"/>
    <connection from="2061" to="2441" fromLane="0" toLane="0" contPos="-4.00" shape="-33.58,421.60 -37.13,423.00 -39.55,423.71 -42.03,424.21 -44.55,424.43 -47.08,424.35 -49.57,423.91 -51.96,423.11 -54.21,421.96 -56.27,420.50 -58.13,418.78 -59.80,416.88 -61.27,414.82 -62.59,412.66" via=":29_5_0" dir="l" state="m"/>
    <connection from="2062" to="2653" fromLane="0" toLane="0" contPos="-4.00" shape="-6.95,404.32 -5.14,403.07 -3.46,401.65 -1.95,400.05 -0.65,398.27 0.41,396.34 1.21,394.29 1.74,392.16 2.03,389.98 2.11,387.78 1.98,385.58 1.49,382.32 0.71,379.11 -0.31,375.97 -1.94,371.88 -3.82,367.90 -4.83,365.97" via=":30_9_0" dir="r" state="m"/>
    <connection from="2062" to="2065" fromLane="0" toLane="0" contPos="-4.00" shape="-6.95,404.32 -4.44,402.55 -2.10,400.55 0.79,397.64 4.12,393.74 7.81,388.82 11.79,382.85 16.02,375.82 20.47,367.74 22.37,364.10" via=":30_10_0" dir="s" state="m"/>
    <connection from="2062" to="2649" fromLane="0" toLane="0" contPos="-4.00" shape="-6.95,404.32 -3.46,402.33 -1.04,401.19 1.47,400.25 4.05,399.56 6.71,399.19 8.04,399.16 9.38,399.24 10.70,399.43 12.00,399.76 13.27,400.20 14.48,400.77 15.63,401.45 16.72,402.23 17.74,403.09 19.58,405.04 21.16,407.20 22.54,409.52" via=":30_11_0" dir="l" state="m"/>
    <connection from="2064" to="2649" fromLane="0" toLane="0" contPos="-4.00" shape="25.47,365.71 24.09,368.54 22.00,373.40 20.60,377.36 19.48,381.39 18.68,385.49 18.31,388.58 18.17,391.68 18.26,394.78 18.61,397.85 19.21,400.87 20.07,403.84 21.18,406.72 22.54,409.52" via=":30_3_0" dir="r" state="m"/>
    <connection from="2064" to="2061" fromLane="0" toLane="0" contPos="-4.00" shape="25.47,365.71 23.53,369.43 18.96,377.71 14.60,384.93 10.49,391.08 6.65,396.16 3.16,400.21 0.11,403.26 -2.39,405.38 -5.08,407.27" via=":30_4_0" dir="s" state="m"/>
    <connection from="2064" to="2653" fromLane="0" toLane="0" contPos="-4.00" shape="25.47,365.71 23.20,369.77 21.44,372.40 19.44,374.88 18.28,376.07 17.01,377.17 15.60,378.15 14.02,378.96 12.28,379.51 10.43,379.71 8.58,379.53 6.84,379.01 5.25,378.23 3.82,377.27 2.54,376.19 1.36,375.02 -0.68,372.58 -2.49,369.98 -4.83,365.97" via=":30_5_0" dir="l" state="m"/>
    <connection from="2438" to="2058" fromLane="0" toLane="0" contPos="-4.00" shape="-44.33,447.01 -46.07,443.94 -47.38,442.08 -48.86,440.39 -50.54,438.90 -51.41,438.30 -52.34,437.75 -53.30,437.30 -54.30,436.93 -55.33,436.66 -56.39,436.48 -57.46,436.40 -58.52,436.41 -60.74,436.67 -62.92,437.22 -65.05,438.00 -68.20,439.54" via=":29_0_0" dir="r" state="M"/>
    <connection from="2438" to="2441" fromLane="0" toLane="0" contPos="-4.00" shape="-44.33,447.01 -52.30,431.52 -61.09,415.34 -62.59,412.66" via=":29_1_0" dir="s" state="M"/>