<routes>
	<vehicle depart="0.1" departLane="0" departPos="30.060640267383484" departSpeed="1.3127359" id="324" type="bus">
		<route edges="4781 6011"/>
	</vehicle>
	<vehicle depart="0.1" departLane="0" departPos="49.64863028298373" departSpeed="0.675" id="316" type="passenger">
		<route edges="4781 6015"/>
	</vehicle>
	<vehicle depart="0.1" departLane="0" departPos="33.96717559496341" departSpeed="6.1196755" id="360" type="passenger">
		<route edges=":67_5 6015 5442"/>
	</vehicle>
	<vehicle depart="0.1" departLane="0" departPos="12.449275583624758" departSpeed="5.597398" id="363" type="passenger">
		<route edges=":67_5 6015"/>
	</vehicle>
	<vehicle depart="0.1" departLane="0" departPos="59.93886311986151" departSpeed="0.74619625" id="364" type="passenger">
		<route edges="6012 6015"/>
	</vehicle>
	<vehicle depart="0.1" departLane="0" departPos="49.84985751300651" departSpeed="2.9324082" id="366" type="passenger">
		<route edges="6012 6015"/>
	</vehicle>
	<vehicle depart="0.1" departLane="0" departPos="38.33115080588474" departSpeed="6.0341274" id="368" type="passenger">
		<route edges="6012 6015"/>
	</vehicle>
	<vehicle depart="0.1" departLane="0" departPos="21.010683752942242" departSpeed="7.5621612" id="369" type="passenger">
		<route edges="6012 6015"/>
	</vehicle>
	<vehicle depart="0.1" departLane="0" departPos="9.882737568668091" departSpeed="3.8038993" id="370" type="passenger">
		<route edges="6012 6015"/>
	</vehicle>
</routes>
