<!-- generated on Tue Feb  9 22:09:35 2021 by Eclipse SUMO netconvert Version 1.8.0
<configuration xmlns:xsi="http://www.w3.org/2001/XMLSchema-instance" xsi:noNamespaceSchemaLocation="http://sumo.dlr.de/xsd/netconvertConfiguration.xsd">

    <input>
        <node-files value="./converted_scenarios/scenario-factory/DEU_Meckenheim-2_5_I-1-1/DEU_Meckenheim-2_5_I-1-1.nod.xml"/>
        <edge-files value="./converted_scenarios/scenario-factory/DEU_Meckenheim-2_5_I-1-1/DEU_Meckenheim-2_5_I-1-1.edg.xml"/>
        <connection-files value="./converted_scenarios/scenario-factory/DEU_Meckenheim-2_5_I-1-1/DEU_Meckenheim-2_5_I-1-1.con.xml"/>
        <tllogic-files value="./converted_scenarios/scenario-factory/DEU_Meckenheim-2_5_I-1-1/DEU_Meckenheim-2_5_I-1-1.tll.xml"/>
        <type-files value="/home/zen/commonroad-interactive-benchmarks/install/commonroad-map-tool/crmapconverter/sumo_map/templates/DEU.typ.xml"/>
    </input>

    <output>
        <output-file value="./converted_scenarios/scenario-factory/DEU_Meckenheim-2_5_I-1-1/DEU_Meckenheim-2_5_I-1-1.net.xml"/>
    </output>

    <processing>
        <geometry.remove.keep-edges.explicit value="true"/>
        <geometry.avoid-overlap value="true"/>
        <offset.disable-normalization value="true"/>
    </processing>

    <junctions>
        <no-turnarounds value="true"/>
        <junctions.internal-link-detail value="20"/>
    </junctions>

    <report>
        <aggregate-warnings value="5"/>
    </report>

    <random_number>
        <seed value="1234"/>
    </random_number>

</configuration>
--><net xmlns:xsi="http://www.w3.org/2001/XMLSchema-instance" version="1.6" junctionCornerDetail="5" junctionLinkDetail="20" limitTurnSpeed="5.50" xsi:noNamespaceSchemaLocation="http://sumo.dlr.de/xsd/net_file.xsd">

    <location netOffset="0.00,0.00" convBoundary="169.69,541.26,412.10,787.70" origBoundary="169.69,541.26,412.10,787.70" projParameter="!"/>

    <type id="highway.bridleway" priority="1" speed="2.78" allow="pedestrian" oneway="1" width="2.00"/>
    <type id="highway.bus_guideway" priority="1" speed="27.78" allow="bus" oneway="1"/>
    <type id="highway.cycleway" priority="1" speed="8.33" allow="bicycle" oneway="0" width="1.00"/>
    <type id="highway.footway" priority="1" speed="2.78" allow="pedestrian" oneway="1" width="2.00"/>
    <type id="highway.ford" priority="1" speed="2.78" allow="army" oneway="0"/>
    <type id="highway.living_street" priority="2" speed="2.78" disallow="tram rail_urban rail rail_electric rail_fast ship" oneway="0"/>
    <type id="highway.motorway" priority="14" speed="39.44" allow="private emergency authority army vip passenger hov taxi bus coach delivery truck trailer motorcycle evehicle custom1 custom2" oneway="1"/>
    <type id="highway.motorway_link" priority="9" speed="22.22" allow="private emergency authority army vip passenger hov taxi bus coach delivery truck trailer motorcycle evehicle custom1 custom2" oneway="1"/>
    <type id="highway.path" priority="1" speed="2.78" allow="pedestrian bicycle" oneway="0" width="2.00"/>
    <type id="highway.pedestrian" priority="1" speed="2.78" allow="pedestrian" oneway="1" width="2.00"/>
    <type id="highway.primary" priority="12" speed="27.78" disallow="pedestrian tram rail_urban rail rail_electric rail_fast ship" oneway="0"/>
    <type id="highway.primary_link" priority="7" speed="22.22" disallow="pedestrian tram rail_urban rail rail_electric rail_fast ship" oneway="0"/>
    <type id="highway.raceway" priority="15" speed="83.33" allow="vip" oneway="0"/>
    <type id="highway.residential" priority="3" speed="13.89" disallow="pedestrian tram rail_urban rail rail_electric rail_fast ship" oneway="0"/>
    <type id="highway.secondary" priority="11" speed="27.78" disallow="pedestrian tram rail_urban rail rail_electric rail_fast ship" oneway="0"/>
    <type id="highway.secondary_link" priority="6" speed="22.22" disallow="pedestrian tram rail_urban rail rail_electric rail_fast ship" oneway="0"/>
    <type id="highway.service" priority="1" speed="5.56" allow="pedestrian delivery bicycle" oneway="0"/>
    <type id="highway.stairs" priority="1" speed="1.39" allow="pedestrian" oneway="1" width="2.00"/>
    <type id="highway.step" priority="1" speed="1.39" allow="pedestrian" oneway="1" width="2.00"/>
    <type id="highway.steps" priority="1" speed="1.39" allow="pedestrian" oneway="1" width="2.00"/>
    <type id="highway.tertiary" priority="10" speed="22.22" disallow="pedestrian tram rail_urban rail rail_electric rail_fast ship" oneway="0"/>
    <type id="highway.tertiary_link" priority="5" speed="22.22" disallow="pedestrian tram rail_urban rail rail_electric rail_fast ship" oneway="0"/>
    <type id="highway.track" priority="1" speed="5.56" allow="pedestrian motorcycle moped bicycle" oneway="0"/>
    <type id="highway.trunk" priority="13" speed="27.78" disallow="pedestrian bicycle tram rail_urban rail rail_electric rail_fast ship" oneway="0"/>
    <type id="highway.trunk_link" priority="8" speed="22.22" disallow="pedestrian bicycle tram rail_urban rail rail_electric rail_fast ship" oneway="0"/>
    <type id="highway.unclassified" priority="4" speed="13.89" disallow="pedestrian tram rail_urban rail rail_electric rail_fast ship" oneway="0"/>
    <type id="highway.unsurfaced" priority="1" speed="8.33" disallow="tram rail_urban rail rail_electric rail_fast ship" oneway="0"/>
    <type id="railway.highspeed" priority="21" speed="69.44" allow="rail_fast" oneway="1"/>
    <type id="railway.light_rail" priority="19" speed="27.78" allow="rail_urban" oneway="1"/>
    <type id="railway.preserved" priority="16" speed="27.78" allow="rail" oneway="1"/>
    <type id="railway.rail" priority="20" speed="44.44" allow="rail" oneway="1"/>
    <type id="railway.subway" priority="18" speed="27.78" allow="rail_urban" oneway="1"/>
    <type id="railway.tram" priority="17" speed="13.89" allow="tram" oneway="1"/>

    <edge id=":24_0" function="internal">
        <lane id=":24_0_0" index="0" disallow="pedestrian tram rail_urban rail rail_electric rail_fast ship" speed="36.11" length="0.10" width="3.50" shape="362.68,648.99 362.68,648.99"/>
    </edge>
    <edge id=":28_0" function="internal">
        <lane id=":28_0_0" index="0" disallow="pedestrian tram rail_urban rail rail_electric rail_fast ship" speed="36.11" length="2.98" width="3.50" shape="329.42,608.03 328.21,610.75"/>
    </edge>
    <edge id=":33_0" function="internal">
        <lane id=":33_0_0" index="0" disallow="pedestrian tram rail_urban rail rail_electric rail_fast ship" speed="36.11" length="2.89" width="3.50" shape="364.90,652.01 362.10,652.71"/>
    </edge>
    <edge id=":34_0" function="internal">
        <lane id=":34_0_0" index="0" disallow="pedestrian tram rail_urban rail rail_electric rail_fast ship" speed="36.11" length="2.91" width="3.50" shape="385.61,639.03 387.98,637.35"/>
    </edge>
    <edge id=":42_0" function="internal">
        <lane id=":42_0_0" index="0" disallow="pedestrian tram rail_urban rail rail_electric rail_fast ship" speed="36.11" length="2.90" width="3.50" shape="390.01,640.19 387.65,641.88"/>
    </edge>
    <edge id=":66_0" function="internal">
        <lane id=":66_0_0" index="0" disallow="pedestrian tram rail_urban rail rail_electric rail_fast ship" speed="36.11" length="2.98" width="3.50" shape="325.01,609.33 326.22,606.61"/>
    </edge>
    <edge id=":67_0" function="internal">
        <lane id=":67_0_0" index="0" disallow="pedestrian tram rail_urban rail rail_electric rail_fast ship" speed="36.11" length="38.56" width="3.50" shape="238.09,718.15 228.12,725.78 207.63,741.80"/>
    </edge>
    <edge id=":67_1" function="internal">
        <lane id=":67_1_0" index="0" disallow="pedestrian tram rail_urban rail rail_electric rail_fast ship" speed="12.21" length="33.91" width="3.50" shape="238.09,718.16 234.81,720.39 232.52,721.63 230.12,722.63 227.61,723.33 226.33,723.54 225.03,723.66 223.73,723.66 222.43,723.56 221.14,723.35 219.88,723.02 218.65,722.60 216.30,721.47 214.13,720.03 212.13,718.36 210.30,716.51 208.61,714.53"/>
    </edge>
    <edge id=":67_2" function="internal">
        <lane id=":67_2_0" index="0" disallow="pedestrian tram rail_urban rail rail_electric rail_fast ship" speed="11.21" length="28.40" width="3.50" shape="211.34,712.34 212.82,714.08 214.40,715.67 216.09,717.09 217.90,718.29 219.86,719.23 220.82,719.56 221.84,719.82 222.87,719.99 223.91,720.07 224.96,720.07 226.01,719.98 227.03,719.81 229.14,719.22 231.17,718.38 233.11,717.32 235.95,715.39"/>
    </edge>
    <edge id=":67_3" function="internal">
        <lane id=":67_3_0" index="0" disallow="pedestrian tram rail_urban rail rail_electric rail_fast ship" speed="12.16" length="33.96" width="3.50" shape="211.35,712.34 213.54,715.45 214.81,717.71 215.83,720.11 216.54,722.62 216.76,723.97 216.86,725.32 216.86,726.67 216.73,728.02 216.48,729.35 216.13,730.65 215.67,731.91 215.10,733.15 213.78,735.38 212.20,737.44 210.44,739.32 207.63,741.80"/>
    </edge>
    <edge id=":67_4" function="internal">
        <lane id=":67_4_0" index="0" disallow="pedestrian tram rail_urban rail rail_electric rail_fast ship" speed="11.15" length="28.39" width="3.50" shape="205.43,739.08 207.89,736.92 209.39,735.32 210.72,733.59 211.83,731.71 212.28,730.72 212.66,729.69 212.95,728.64 213.15,727.57 213.26,726.48 213.27,725.39 213.18,724.30 213.01,723.22 212.43,721.12 211.57,719.11 210.51,717.20 208.61,714.53"/>
    </edge>
    <edge id=":67_5" function="internal">
        <lane id=":67_5_0" index="0" disallow="pedestrian tram rail_urban rail rail_electric rail_fast ship" speed="36.11" length="38.64" width="3.50" shape="205.43,739.08 225.98,723.01 235.95,715.39"/>
    </edge>
    <edge id=":68_0" function="internal">
        <lane id=":68_0_0" index="0" disallow="pedestrian tram rail_urban rail rail_electric rail_fast ship" speed="12.02" length="19.17" width="3.50" shape="315.90,661.66 315.20,660.92 314.33,661.04 313.45,661.25 311.60,661.90 309.80,662.72 307.12,664.20 303.65,666.45 299.44,669.56"/>
    </edge>
    <edge id=":68_1" function="internal">
        <lane id=":68_1_0" index="0" disallow="pedestrian tram rail_urban rail rail_electric rail_fast ship" speed="9.81" length="21.00" width="3.50" shape="315.90,661.66 314.45,660.67 312.84,660.05 311.42,658.96 310.39,657.56 309.77,656.06 309.45,654.58 309.33,653.14 309.34,651.74 309.46,650.35 309.88,647.71 310.84,643.89"/>
    </edge>
    <edge id=":68_2" function="internal">
        <lane id=":68_2_0" index="0" disallow="pedestrian tram rail_urban rail rail_electric rail_fast ship" speed="7.53" length="14.79" width="3.49" shape="314.19,644.88 313.41,647.88 313.03,649.92 312.90,650.95 312.82,651.98 312.81,653.01 312.90,654.04 313.14,655.05 313.57,655.99 314.27,656.75 315.18,657.22 316.52,657.42"/>
    </edge>
    <edge id=":68_3" function="internal">
        <lane id=":68_3_0" index="0" disallow="pedestrian tram rail_urban rail rail_electric rail_fast ship" speed="21.92" length="29.22" width="3.50" shape="314.19,644.88 312.44,650.21 310.73,654.37 308.72,658.38 306.97,661.26 304.99,664.00 302.78,666.54 300.32,668.84 299.44,669.56"/>
    </edge>
    <edge id=":68_4" function="internal">
        <lane id=":68_4_0" index="0" disallow="pedestrian tram rail_urban rail rail_electric rail_fast ship" speed="21.08" length="27.04" width="3.50" shape="297.29,666.79 298.07,666.17 300.32,664.05 302.33,661.73 304.13,659.21 305.73,656.55 307.60,652.81 309.18,648.92 310.84,643.89"/>
    </edge>
    <edge id=":68_5" function="internal">
        <lane id=":68_5_0" index="0" disallow="pedestrian tram rail_urban rail rail_electric rail_fast ship" speed="16.45" length="21.77" width="3.49" shape="297.29,666.79 301.85,663.44 305.66,661.01 308.64,659.41 310.71,658.51 312.85,657.81 313.95,657.57 315.07,657.42 316.52,657.42"/>
    </edge>
    <edge id=":69_0" function="internal">
        <lane id=":69_0_0" index="0" disallow="pedestrian tram rail_urban rail rail_electric rail_fast ship" speed="36.11" length="38.49" width="3.50" shape="293.55,674.12 282.07,683.13 263.47,698.13"/>
    </edge>
    <edge id=":69_1" function="internal">
        <lane id=":69_1_0" index="0" disallow="pedestrian tram rail_urban rail rail_electric rail_fast ship" speed="12.17" length="33.80" width="3.50" shape="293.55,674.13 290.32,676.37 288.05,677.62 285.66,678.64 283.16,679.35 281.88,679.57 280.59,679.69 279.29,679.70 277.99,679.60 276.71,679.39 275.46,679.07 274.23,678.64 271.89,677.52 269.72,676.09 267.73,674.43 265.89,672.59 264.20,670.61"/>
    </edge>
    <edge id=":69_2" function="internal">
        <lane id=":69_2_0" index="0" disallow="pedestrian tram rail_urban rail rail_electric rail_fast ship" speed="11.17" length="28.27" width="3.50" shape="266.93,668.42 268.41,670.14 269.98,671.73 271.67,673.14 273.48,674.33 275.43,675.27 276.39,675.60 277.40,675.85 278.43,676.02 279.46,676.11 280.51,676.10 281.55,676.00 282.56,675.83 284.66,675.24 286.66,674.38 288.59,673.32 291.40,671.36"/>
    </edge>
    <edge id=":69_3" function="internal">
        <lane id=":69_3_0" index="0" disallow="pedestrian tram rail_urban rail rail_electric rail_fast ship" speed="12.21" length="34.12" width="3.50" shape="266.93,668.42 267.72,669.45 269.16,671.54 270.43,673.80 271.47,676.21 272.19,678.73 272.42,680.09 272.54,681.44 272.54,682.79 272.42,684.15 272.19,685.49 271.85,686.80 271.40,688.07 270.85,689.32 269.55,691.58 268.00,693.68 266.26,695.60 263.47,698.13"/>
    </edge>
    <edge id=":69_4" function="internal">
        <lane id=":69_4_0" index="0" disallow="pedestrian tram rail_urban rail rail_electric rail_fast ship" speed="11.21" length="28.60" width="3.50" shape="261.24,695.44 263.68,693.22 265.16,691.60 266.47,689.83 267.56,687.92 268.01,686.92 268.38,685.88 268.66,684.81 268.85,683.73 268.94,682.63 268.94,681.53 268.85,680.44 268.67,679.35 268.07,677.24 267.20,675.22 266.12,673.30 264.88,671.48 264.20,670.61"/>
    </edge>
    <edge id=":69_5" function="internal">
        <lane id=":69_5_0" index="0" disallow="pedestrian tram rail_urban rail rail_electric rail_fast ship" speed="36.11" length="38.59" width="3.50" shape="261.24,695.44 279.89,680.39 291.40,671.36"/>
    </edge>
    <edge id=":70_0" function="internal">
        <lane id=":70_0_0" index="0" disallow="pedestrian tram rail_urban rail rail_electric rail_fast ship" speed="13.37" length="20.46" width="3.47" shape="324.85,678.97 323.53,674.97 321.71,670.03 320.05,666.22 318.62,663.55 317.52,661.99 316.99,661.41 316.55,661.05 316.05,660.86"/>
    </edge>
    <edge id=":70_1" function="internal">
        <lane id=":70_1_0" index="0" disallow="pedestrian tram rail_urban rail rail_electric rail_fast ship" speed="11.90" length="35.15" width="3.50" shape="324.85,678.97 324.15,676.46 323.66,673.86 323.44,671.18 323.57,668.49 323.80,667.09 324.16,665.73 324.64,664.41 325.26,663.13 326.00,661.92 326.85,660.80 327.81,659.77 328.84,658.84 329.96,657.99 332.24,656.60 334.67,655.49 337.16,654.63 340.91,653.70"/>
    </edge>
    <edge id=":70_2" function="internal">
        <lane id=":70_2_0" index="0" disallow="pedestrian tram rail_urban rail rail_electric rail_fast ship" speed="10.88" length="29.18" width="3.50" shape="341.62,657.12 338.35,657.93 336.23,658.67 334.18,659.59 332.26,660.75 331.37,661.43 330.53,662.17 329.76,662.99 329.07,663.88 328.48,664.83 327.98,665.84 327.59,666.89 327.30,667.97 327.11,669.08 326.99,671.32 327.17,673.55 327.59,675.76 328.19,677.92"/>
    </edge>
    <edge id=":70_3" function="internal">
        <lane id=":70_3_0" index="0" disallow="pedestrian tram rail_urban rail rail_electric rail_fast ship" speed="22.01" length="25.89" width="3.47" shape="341.62,657.12 329.00,659.48 321.60,660.58 317.34,660.92 316.04,660.88"/>
    </edge>
    <edge id=":70_4" function="internal">
        <lane id=":70_4_0" index="0" disallow="pedestrian tram rail_urban rail rail_electric rail_fast ship" speed="36.11" length="23.59" width="3.50" shape="317.63,657.40 321.40,657.09 328.58,656.01 340.91,653.70"/>
    </edge>
    <edge id=":70_5" function="internal">
        <lane id=":70_5_0" index="0" disallow="pedestrian tram rail_urban rail rail_electric rail_fast ship" speed="11.81" length="23.32" width="3.50" shape="317.50,657.68 318.57,658.29 319.44,659.06 320.90,660.86 322.69,663.86 324.65,668.08 326.72,673.51 328.19,677.92"/>
    </edge>
    <edge id=":71_0" function="internal">
        <lane id=":71_0_0" index="0" disallow="pedestrian tram rail_urban rail rail_electric rail_fast ship" speed="11.03" length="25.57" width="3.50" shape="319.90,584.33 318.40,582.81 316.74,581.48 314.90,580.40 313.93,579.97 312.92,579.63 311.88,579.38 310.83,579.22 309.77,579.15 308.70,579.17 306.59,579.44 304.53,579.99 302.54,580.75 300.63,581.69 297.90,583.35 297.02,583.95"/>
    </edge>
    <edge id=":71_1" function="internal">
        <lane id=":71_1_0" index="0" disallow="pedestrian tram rail_urban rail rail_electric rail_fast ship" speed="14.83" length="22.47" width="3.45" shape="319.90,584.33 313.43,576.63 308.15,565.40"/>
    </edge>
    <edge id=":71_2" function="internal">
        <lane id=":71_2_0" index="0" disallow="pedestrian tram rail_urban rail rail_electric rail_fast ship" speed="13.82" length="19.66" width="3.50" shape="311.57,565.79 316.10,574.37 322.50,582.00"/>
    </edge>
    <edge id=":71_3" function="internal">
        <lane id=":71_3_0" index="0" disallow="pedestrian tram rail_urban rail rail_electric rail_fast ship" speed="15.34" length="24.29" width="3.50" shape="311.57,565.79 310.31,567.80 310.55,569.06 310.38,570.34 309.94,571.55 309.32,572.68 307.79,574.76 306.03,576.64 303.17,579.25 299.11,582.44 297.02,583.95"/>
    </edge>
    <edge id=":71_4" function="internal">
        <lane id=":71_4_0" index="0" disallow="pedestrian tram rail_urban rail rail_electric rail_fast ship" speed="14.37" length="21.18" width="3.45" shape="294.99,581.10 296.82,579.78 300.38,577.05 302.89,574.88 304.43,573.38 305.81,571.77 306.36,570.99 306.78,570.19 307.00,569.51 307.03,569.19 308.15,565.40"/>
    </edge>
    <edge id=":71_5" function="internal">
        <lane id=":71_5_0" index="0" disallow="pedestrian tram rail_urban rail rail_electric rail_fast ship" speed="12.08" length="30.72" width="3.50" shape="294.99,581.10 296.03,580.38 299.17,578.50 301.42,577.41 303.79,576.52 306.27,575.89 308.81,575.60 310.16,575.59 311.47,575.70 312.78,575.92 314.06,576.26 315.31,576.70 316.53,577.26 318.73,578.58 320.73,580.20 322.50,582.00"/>
    </edge>
    <edge id=":72_0" function="internal">
        <lane id=":72_0_0" index="0" disallow="pedestrian tram rail_urban rail rail_electric rail_fast ship" speed="13.86" length="17.13" width="3.45" shape="320.87,553.09 319.99,553.83 316.56,556.86 314.13,559.21 311.89,561.68 310.60,563.40 310.09,564.24 309.69,565.09 309.51,565.68"/>
    </edge>
    <edge id=":72_1" function="internal">
        <lane id=":72_1_0" index="0" disallow="pedestrian tram rail_urban rail rail_electric rail_fast ship" speed="12.48" length="20.53" width="3.50" shape="320.86,553.10 319.72,554.02 318.61,554.88 317.51,555.67 316.43,556.40 315.36,557.06 314.32,557.66 313.29,558.20 312.28,558.67 311.28,559.08 310.30,559.42 309.34,559.70 308.40,559.92 307.48,560.07 306.57,560.16 305.68,560.18 304.81,560.14 303.95,560.03 303.11,559.87 302.29,559.63"/>
    </edge>
    <edge id=":72_2" function="internal">
        <lane id=":72_2_0" index="0" disallow="pedestrian tram rail_urban rail rail_electric rail_fast ship" speed="8.68" length="16.92" width="3.50" shape="303.39,556.22 303.59,556.28 304.60,556.46 305.63,556.53 306.68,556.49 307.73,556.34 308.78,556.10 309.80,555.79 311.90,554.92 313.90,553.83 315.82,552.56 318.63,550.40"/>
    </edge>
    <edge id=":72_3" function="internal">
        <lane id=":72_3_0" index="0" disallow="pedestrian tram rail_urban rail rail_electric rail_fast ship" speed="10.62" length="10.59" width="3.45" shape="301.93,557.44 303.53,559.36 308.69,565.59"/>
    </edge>
    <edge id=":72_4" function="internal">
        <lane id=":72_4_0" index="0" disallow="pedestrian tram rail_urban rail rail_electric rail_fast ship" speed="10.51" length="10.50" width="3.49" shape="308.17,565.20 299.24,559.68"/>
    </edge>
    <edge id=":72_5" function="internal">
        <lane id=":72_5_0" index="0" disallow="pedestrian tram rail_urban rail rail_electric rail_fast ship" speed="14.87" length="19.76" width="3.50" shape="306.08,565.30 306.11,565.06 306.51,563.83 307.08,562.66 308.49,560.48 311.00,557.49 313.75,554.72 317.62,551.25 318.63,550.40"/>
    </edge>
    <edge id=":74_0" function="internal">
        <lane id=":74_0_0" index="0" disallow="pedestrian tram rail_urban rail rail_electric rail_fast ship" speed="24.46" length="26.26" width="3.42" shape="347.86,581.67 344.59,584.43 341.51,587.36 338.65,590.48 336.72,592.95 335.02,595.55 331.95,602.13"/>
    </edge>
    <edge id=":74_1" function="internal">
        <lane id=":74_1_0" index="0" disallow="pedestrian tram rail_urban rail rail_electric rail_fast ship" speed="12.02" length="31.26" width="3.50" shape="347.86,581.67 346.87,582.45 343.88,584.61 340.69,586.55 338.41,587.67 336.01,588.60 333.50,589.24 332.16,589.43 330.82,589.51 329.46,589.47 328.10,589.29 326.76,588.96 325.46,588.50 324.22,587.90 323.06,587.19 321.95,586.35 320.11,584.57"/>
    </edge>
    <edge id=":74_2" function="internal">
        <lane id=":74_2_0" index="0" disallow="pedestrian tram rail_urban rail rail_electric rail_fast ship" speed="10.93" length="25.96" width="3.50" shape="322.68,582.20 324.24,583.70 325.11,584.33 326.05,584.88 327.03,585.32 328.06,585.65 329.13,585.86 330.20,585.96 331.28,585.95 332.36,585.84 333.42,585.65 335.50,585.05 337.50,584.23 339.43,583.24 342.18,581.53 344.81,579.62 345.66,578.94"/>
    </edge>
    <edge id=":74_3" function="internal">
        <lane id=":74_3_0" index="0" disallow="pedestrian tram rail_urban rail rail_electric rail_fast ship" speed="12.48" length="23.84" width="3.42" shape="322.68,582.20 324.31,584.06 327.49,587.83 329.78,590.74 331.23,592.74 331.92,593.77 332.56,594.82 333.14,595.91 333.58,597.06 331.95,602.13"/>
    </edge>
    <edge id=":74_4" function="internal">
        <lane id=":74_4_0" index="0" disallow="pedestrian tram rail_urban rail rail_electric rail_fast ship" speed="11.49" length="20.42" width="3.50" shape="328.77,600.67 330.40,596.45 330.28,595.88 329.97,595.11 329.49,594.28 328.92,593.47 327.50,591.83 325.07,589.44 321.69,586.23 320.11,584.57"/>
    </edge>
    <edge id=":74_5" function="internal">
        <lane id=":74_5_0" index="0" disallow="pedestrian tram rail_urban rail rail_electric rail_fast ship" speed="25.20" length="27.88" width="3.50" shape="328.77,600.67 331.96,593.85 333.81,591.01 335.89,588.33 338.93,584.99 342.21,581.87 345.66,578.94"/>
    </edge>

    <edge id="4694" from="61" to="72" priority="3" type="highway.residential" spreadType="center" length="14.29" shape="331.83,543.95 311.66,559.67">
        <lane id="4694_0" index="0" disallow="pedestrian tram rail_urban rail rail_electric rail_fast ship" speed="36.11" length="14.29" width="3.50" customShape="1" shape="331.83,543.95 326.34,548.53 320.86,553.10"/>
    </edge>
    <edge id="4695" from="72" to="56" priority="3" type="highway.residential" spreadType="center" length="14.27" shape="309.52,556.92 329.59,541.26">
        <lane id="4695_0" index="0" disallow="pedestrian tram rail_urban rail rail_electric rail_fast ship" speed="36.11" length="14.27" width="3.50" customShape="1" shape="318.63,550.40 324.10,545.84 329.59,541.26"/>
    </edge>
    <edge id="4781" from="41" to="67" priority="3" type="highway.residential" spreadType="center" length="49.03" shape="180.28,674.45 219.23,722.49">
        <lane id="4781_0" index="0" disallow="pedestrian tram rail_urban rail rail_electric rail_fast ship" speed="36.11" length="49.03" width="3.50" customShape="1" shape="180.28,674.45 185.88,680.97 194.61,691.45 211.36,712.36"/>
    </edge>
    <edge id="4782" from="67" to="32" priority="3" type="highway.residential" spreadType="center" length="48.88" shape="216.51,724.70 177.62,676.73">
        <lane id="4782_0" index="0" disallow="pedestrian tram rail_urban rail rail_electric rail_fast ship" speed="36.11" length="48.88" width="3.50" customShape="1" shape="208.61,714.53 191.90,693.68 183.20,683.23 177.62,676.73"/>
    </edge>
    <edge id="5237" from="54" to="42" priority="3" type="highway.residential" spreadType="center" length="28.06">
        <lane id="5237_0" index="0" disallow="pedestrian tram rail_urban rail rail_electric rail_fast ship" speed="36.11" length="28.06" width="3.50" customShape="1" shape="412.10,622.90 408.56,625.79 397.43,634.67 390.01,640.19"/>
    </edge>
    <edge id="5238" from="34" to="43" priority="3" type="highway.residential" spreadType="center" length="27.86">
        <lane id="5238_0" index="0" disallow="pedestrian tram rail_urban rail rail_electric rail_fast ship" speed="36.11" length="27.86" width="3.50" customShape="1" shape="387.98,637.35 395.31,631.89 406.37,623.07 409.91,620.17"/>
    </edge>
    <edge id="5432" from="71" to="40" priority="3" type="highway.residential" spreadType="center" length="28.03" shape="309.92,578.82 288.99,605.25">
        <lane id="5432_0" index="0" disallow="pedestrian tram rail_urban rail rail_electric rail_fast ship" speed="36.11" length="28.03" width="3.50" customShape="1" shape="297.02,583.95 296.26,584.49 292.92,587.05 290.46,589.21 288.19,591.57 286.42,593.75 285.61,594.89 284.89,596.09 284.59,597.46 284.54,598.86 284.69,599.78 285.30,601.04 286.15,602.15 288.99,605.25"/>
    </edge>
    <edge id="5433" from="35" to="71" priority="3" type="highway.residential" spreadType="center" length="33.85" shape="286.35,607.54 307.09,576.76">
        <lane id="5433_0" index="0" disallow="pedestrian tram rail_urban rail rail_electric rail_fast ship" speed="36.11" length="33.85" width="3.50" customShape="1" shape="286.35,607.54 283.14,604.00 282.13,602.53 281.36,600.82 281.08,599.41 281.07,597.58 281.36,595.74 282.14,593.89 283.06,592.44 285.03,589.88 287.60,587.12 290.38,584.61 294.13,581.71 295.00,581.09"/>
    </edge>
    <edge id="5441" from="13" to="69" priority="3" type="highway.residential" spreadType="center" length="70.02" shape="223.32,613.66 274.85,678.63">
        <lane id="5441_0" index="0" disallow="pedestrian tram rail_urban rail rail_electric rail_fast ship" speed="36.11" length="70.02" width="3.50" customShape="1" shape="223.32,613.66 266.94,668.43"/>
    </edge>
    <edge id="5442" from="69" to="5" priority="3" type="highway.residential" spreadType="center" length="70.00" shape="272.11,680.80 220.59,615.86">
        <lane id="5442_0" index="0" disallow="pedestrian tram rail_urban rail rail_electric rail_fast ship" speed="36.11" length="70.00" width="3.50" customShape="1" shape="264.20,670.61 220.59,615.86"/>
    </edge>
    <edge id="5487" from="62" to="72" priority="3" type="highway.residential" spreadType="center" length="12.07" shape="294.18,548.19 311.56,556.79">
        <lane id="5487_0" index="0" disallow="pedestrian tram rail_urban rail rail_electric rail_fast ship" speed="36.11" length="12.07" width="3.35" customShape="1" shape="294.18,548.19 297.40,552.01 301.89,557.47"/>
    </edge>
    <edge id="5489" from="71" to="72" priority="3" type="highway.residential" spreadType="center" length="0.20" shape="306.78,577.61 309.00,557.88">
        <lane id="5489_0" index="0" disallow="pedestrian tram rail_urban rail rail_electric rail_fast ship" speed="36.11" length="0.20" width="3.45" shape="308.15,565.40 308.17,565.20"/>
    </edge>
    <edge id="5490" from="72" to="71" priority="3" type="highway.residential" spreadType="center" length="0.20" shape="312.41,558.26 310.21,578.00">
        <lane id="5490_0" index="0" disallow="pedestrian tram rail_urban rail rail_electric rail_fast ship" speed="36.11" length="0.20" width="3.45" shape="311.59,565.59 311.57,565.79"/>
    </edge>
    <edge id="5492" from="74" to="71" priority="3" type="highway.residential" spreadType="center" length="0.33" shape="332.87,588.80 307.88,579.44">
        <lane id="5492_0" index="0" disallow="pedestrian tram rail_urban rail rail_electric rail_fast ship" speed="36.11" length="0.33" width="3.50" customShape="1" shape="320.11,584.57 319.98,584.42 319.89,584.33"/>
    </edge>
    <edge id="5493" from="71" to="74" priority="3" type="highway.residential" spreadType="center" length="0.28" shape="309.10,576.17 334.10,585.53">
        <lane id="5493_0" index="0" disallow="pedestrian tram rail_urban rail rail_electric rail_fast ship" speed="36.11" length="0.28" width="3.50" customShape="1" shape="322.50,582.00 322.60,582.10 322.69,582.21"/>
    </edge>
    <edge id="5555" from="28" to="68" priority="3" type="highway.residential" spreadType="center" length="37.01" shape="328.83,609.39 310.61,657.90">
        <lane id="5555_0" index="0" disallow="pedestrian tram rail_urban rail rail_electric rail_fast ship" speed="36.11" length="37.01" width="3.50" customShape="1" shape="328.21,610.75 322.96,622.28 318.92,631.54 316.20,638.62 314.17,644.96"/>
    </edge>
    <edge id="5556" from="68" to="66" priority="3" type="highway.residential" spreadType="center" length="37.39" shape="307.33,656.67 325.63,607.98">
        <lane id="5556_0" index="0" disallow="pedestrian tram rail_urban rail rail_electric rail_fast ship" speed="36.11" length="37.39" width="3.50" customShape="1" shape="310.84,643.89 312.88,637.51 315.64,630.31 319.73,620.94 325.01,609.33"/>
    </edge>
    <edge id="5628" from="27" to="70" priority="3" type="highway.residential" spreadType="center" length="47.76" shape="329.95,725.38 326.26,664.39">
        <lane id="5628_0" index="0" disallow="pedestrian tram rail_urban rail rail_electric rail_fast ship" speed="36.11" length="47.76" width="3.50" customShape="1" shape="329.95,725.38 331.25,721.10 332.20,717.75 332.56,715.29 332.56,712.31 332.25,707.84 331.55,702.92 330.43,697.56 328.74,691.32 324.85,678.97"/>
    </edge>