<!-- generated on Tue Feb  9 22:07:53 2021 by Eclipse SUMO netconvert Version 1.8.0
<configuration xmlns:xsi="http://www.w3.org/2001/XMLSchema-instance" xsi:noNamespaceSchemaLocation="http://sumo.dlr.de/xsd/netconvertConfiguration.xsd">

    <input>
        <node-files value="./converted_scenarios/scenario-factory/DEU_Guetersloh-1_6_I-1-1/DEU_Guetersloh-1_6_I-1-1.nod.xml"/>
        <edge-files value="./converted_scenarios/scenario-factory/DEU_Guetersloh-1_6_I-1-1/DEU_Guetersloh-1_6_I-1-1.edg.xml"/>
        <connection-files value="./converted_scenarios/scenario-factory/DEU_Guetersloh-1_6_I-1-1/DEU_Guetersloh-1_6_I-1-1.con.xml"/>
        <tllogic-files value="./converted_scenarios/scenario-factory/DEU_Guetersloh-1_6_I-1-1/DEU_Guetersloh-1_6_I-1-1.tll.xml"/>
        <type-files value="/home/zen/commonroad-interactive-benchmarks/install/commonroad-map-tool/crmapconverter/sumo_map/templates/DEU.typ.xml"/>
    </input>

    <output>
        <output-file value="./converted_scenarios/scenario-factory/DEU_Guetersloh-1_6_I-1-1/DEU_Guetersloh-1_6_I-1-1.net.xml"/>
    </output>

    <processing>
        <geometry.remove.keep-edges.explicit value="true"/>
        <geometry.avoid-overlap value="true"/>
        <offset.disable-normalization value="true"/>
    </processing>

    <junctions>
        <no-turnarounds value="true"/>
        <junctions.internal-link-detail value="20"/>
    </junctions>

    <report>
        <aggregate-warnings value="5"/>
    </report>

    <random_number>
        <seed value="1234"/>
    </random_number>

</configuration>
--><net xmlns:xsi="http://www.w3.org/2001/XMLSchema-instance" version="1.6" junctionCornerDetail="5" junctionLinkDetail="20" limitTurnSpeed="5.50" xsi:noNamespaceSchemaLocation="http://sumo.dlr.de/xsd/net_file.xsd">

    <location netOffset="0.00,0.00" convBoundary="685.63,15.41,929.84,263.64" origBoundary="685.63,15.41,929.84,263.64" projParameter="!"/>

    <type id="highway.bridleway" priority="1" speed="2.78" allow="pedestrian" oneway="1" width="2.00"/>
    <type id="highway.bus_guideway" priority="1" speed="27.78" allow="bus" oneway="1"/>
    <type id="highway.cycleway" priority="1" speed="8.33" allow="bicycle" oneway="0" width="1.00"/>
    <type id="highway.footway" priority="1" speed="2.78" allow="pedestrian" oneway="1" width="2.00"/>
    <type id="highway.ford" priority="1" speed="2.78" allow="army" oneway="0"/>
    <type id="highway.living_street" priority="2" speed="2.78" disallow="tram rail_urban rail rail_electric rail_fast ship" oneway="0"/>
    <type id="highway.motorway" priority="14" speed="39.44" allow="private emergency authority army vip passenger hov taxi bus coach delivery truck trailer motorcycle evehicle custom1 custom2" oneway="1"/>
    <type id="highway.motorway_link" priority="9" speed="22.22" allow="private emergency authority army vip passenger hov taxi bus coach delivery truck trailer motorcycle evehicle custom1 custom2" oneway="1"/>
    <type id="highway.path" priority="1" speed="2.78" allow="pedestrian bicycle" oneway="0" width="2.00"/>
    <type id="highway.pedestrian" priority="1" speed="2.78" allow="pedestrian" oneway="1" width="2.00"/>
    <type id="highway.primary" priority="12" speed="27.78" disallow="pedestrian tram rail_urban rail rail_electric rail_fast ship" oneway="0"/>
    <type id="highway.primary_link" priority="7" speed="22.22" disallow="pedestrian tram rail_urban rail rail_electric rail_fast ship" oneway="0"/>
    <type id="highway.raceway" priority="15" speed="83.33" allow="vip" oneway="0"/>
    <type id="highway.residential" priority="3" speed="13.89" disallow="pedestrian tram rail_urban rail rail_electric rail_fast ship" oneway="0"/>
    <type id="highway.secondary" priority="11" speed="27.78" disallow="pedestrian tram rail_urban rail rail_electric rail_fast ship" oneway="0"/>
    <type id="highway.secondary_link" priority="6" speed="22.22" disallow="pedestrian tram rail_urban rail rail_electric rail_fast ship" oneway="0"/>
    <type id="highway.service" priority="1" speed="5.56" allow="pedestrian delivery bicycle" oneway="0"/>
    <type id="highway.stairs" priority="1" speed="1.39" allow="pedestrian" oneway="1" width="2.00"/>
    <type id="highway.step" priority="1" speed="1.39" allow="pedestrian" oneway="1" width="2.00"/>
    <type id="highway.steps" priority="1" speed="1.39" allow="pedestrian" oneway="1" width="2.00"/>
    <type id="highway.tertiary" priority="10" speed="22.22" disallow="pedestrian tram rail_urban rail rail_electric rail_fast ship" oneway="0"/>
    <type id="highway.tertiary_link" priority="5" speed="22.22" disallow="pedestrian tram rail_urban rail rail_electric rail_fast ship" oneway="0"/>
    <type id="highway.track" priority="1" speed="5.56" allow="pedestrian motorcycle moped bicycle" oneway="0"/>
    <type id="highway.trunk" priority="13" speed="27.78" disallow="pedestrian bicycle tram rail_urban rail rail_electric rail_fast ship" oneway="0"/>
    <type id="highway.trunk_link" priority="8" speed="22.22" disallow="pedestrian bicycle tram rail_urban rail rail_electric rail_fast ship" oneway="0"/>
    <type id="highway.unclassified" priority="4" speed="13.89" disallow="pedestrian tram rail_urban rail rail_electric rail_fast ship" oneway="0"/>
    <type id="highway.unsurfaced" priority="1" speed="8.33" disallow="tram rail_urban rail rail_electric rail_fast ship" oneway="0"/>
    <type id="railway.highspeed" priority="21" speed="69.44" allow="rail_fast" oneway="1"/>
    <type id="railway.light_rail" priority="19" speed="27.78" allow="rail_urban" oneway="1"/>
    <type id="railway.preserved" priority="16" speed="27.78" allow="rail" oneway="1"/>
    <type id="railway.rail" priority="20" speed="44.44" allow="rail" oneway="1"/>
    <type id="railway.subway" priority="18" speed="27.78" allow="rail_urban" oneway="1"/>
    <type id="railway.tram" priority="17" speed="13.89" allow="tram" oneway="1"/>

    <edge id=":30_0" function="internal">
        <lane id=":30_0_0" index="0" disallow="pedestrian tram rail_urban rail rail_electric rail_fast ship" speed="16.24" length="17.18" width="3.50" shape="811.82,179.48 811.40,180.17 810.97,180.90 810.54,181.66 810.11,182.45 809.69,183.28 809.27,184.12 808.86,184.99 808.48,185.87 808.11,186.76 807.76,187.66 807.44,188.57 807.15,189.47 806.90,190.37 806.68,191.27 806.51,192.15 806.37,193.02 806.29,193.87 806.26,194.70 806.29,195.50"/>
    </edge>
    <edge id=":30_1" function="internal">
        <lane id=":30_1_0" index="0" disallow="pedestrian tram rail_urban rail rail_electric rail_fast ship" speed="36.11" length="38.93" width="3.50" shape="811.82,179.48 809.88,182.45 806.09,187.42 801.47,193.10 794.06,201.81 787.36,209.73"/>
    </edge>
    <edge id=":30_2" function="internal">
        <lane id=":30_2_0" index="0" disallow="pedestrian tram rail_urban rail rail_electric rail_fast ship" speed="36.11" length="38.48" width="3.50" shape="784.67,207.50 791.43,199.68 798.91,191.14 803.44,185.51 807.04,180.47 808.85,177.63"/>
    </edge>
    <edge id=":32_0" function="internal">
        <lane id=":32_0_0" index="0" disallow="pedestrian tram rail_urban rail rail_electric rail_fast ship" speed="15.49" length="39.41" width="3.50" shape="867.98,105.85 864.80,105.98 861.63,106.37 858.50,107.04 855.46,108.02 852.54,109.32 849.80,110.96 847.26,112.90 844.97,115.13 842.93,117.59 841.14,120.24 839.60,123.04 838.27,125.95 837.88,126.94"/>
    </edge>
    <edge id=":32_1" function="internal">
        <lane id=":32_1_0" index="0" disallow="pedestrian tram rail_urban rail rail_electric rail_fast ship" speed="36.11" length="46.70" width="3.50" shape="867.98,105.85 849.30,105.82 821.28,105.38"/>
    </edge>
    <edge id=":32_2" function="internal">
        <lane id=":32_2_0" index="0" disallow="pedestrian tram rail_urban rail rail_electric rail_fast ship" speed="11.46" length="37.59" width="3.50" shape="867.98,105.85 865.25,105.78 862.48,105.54 859.71,105.05 856.99,104.24 855.61,103.65 854.30,102.95 853.05,102.10 851.89,101.09 850.86,99.94 849.99,98.66 849.30,97.27 848.79,95.83 848.45,94.37 848.27,92.90 848.21,91.41 848.39,88.59 848.87,85.82 849.96,81.85"/>
    </edge>
    <edge id=":32_3" function="internal">
        <lane id=":32_3_0" index="0" disallow="pedestrian tram rail_urban rail rail_electric rail_fast ship" speed="10.40" length="30.72" width="3.50" shape="853.29,82.93 852.35,86.34 851.94,88.67 851.80,91.03 851.85,92.21 852.00,93.39 852.27,94.54 852.66,95.65 853.19,96.71 853.86,97.68 854.65,98.56 855.54,99.33 856.52,99.99 857.57,100.55 858.66,101.01 860.92,101.68 863.25,102.09 865.61,102.29 867.96,102.35"/>
    </edge>
    <edge id=":32_4" function="internal">
        <lane id=":32_4_0" index="0" disallow="pedestrian tram rail_urban rail rail_electric rail_fast ship" speed="36.11" length="46.63" width="3.50" shape="853.29,82.93 846.02,104.54 840.08,121.12 837.88,126.94"/>
    </edge>
    <edge id=":32_5" function="internal">
        <lane id=":32_5_0" index="0" disallow="pedestrian tram rail_urban rail rail_electric rail_fast ship" speed="15.41" length="42.38" width="3.50" shape="853.29,82.93 852.91,84.04 851.62,87.26 850.03,90.39 848.13,93.37 845.90,96.12 844.21,97.81 842.38,99.34 840.42,100.71 838.34,101.90 835.09,103.32 831.70,104.35 828.24,105.00 824.76,105.33 821.28,105.38"/>
    </edge>
    <edge id=":32_6" function="internal">
        <lane id=":32_6_0" index="0" disallow="pedestrian tram rail_urban rail rail_electric rail_fast ship" speed="14.59" length="37.90" width="3.50" shape="821.33,101.88 824.51,101.84 827.66,101.54 830.76,100.95 833.78,100.04 836.68,98.78 838.50,97.73 840.23,96.53 841.84,95.18 843.33,93.69 845.33,91.24 847.03,88.58 848.45,85.76 849.62,82.83 849.96,81.85"/>
    </edge>
    <edge id=":32_7" function="internal">
        <lane id=":32_7_0" index="0" disallow="pedestrian tram rail_urban rail rail_electric rail_fast ship" speed="36.11" length="46.63" width="3.50" shape="821.33,101.88 849.32,102.32 867.96,102.35"/>
    </edge>
    <edge id=":32_8" function="internal">
        <lane id=":32_8_0" index="0" disallow="pedestrian tram rail_urban rail rail_electric rail_fast ship" speed="11.41" length="38.27" width="3.50" shape="821.33,101.88 825.76,102.18 828.66,102.66 831.50,103.43 832.87,103.96 834.19,104.61 835.45,105.38 836.61,106.28 837.64,107.33 838.52,108.50 839.24,109.79 839.77,111.16 840.13,112.58 840.34,114.04 840.41,115.51 840.36,116.98 839.97,119.89 839.29,122.75 837.88,126.94"/>
    </edge>
    <edge id=":32_9" function="internal">
        <lane id=":32_9_0" index="0" disallow="pedestrian tram rail_urban rail rail_electric rail_fast ship" speed="10.35" length="31.26" width="3.50" shape="834.61,125.69 835.84,122.04 836.42,119.61 836.75,117.15 836.79,115.97 836.74,114.80 836.58,113.65 836.30,112.56 835.90,111.53 835.37,110.57 834.72,109.70 833.95,108.92 833.06,108.23 832.09,107.63 831.03,107.12 829.94,106.70 827.55,106.04 825.10,105.64 821.28,105.38"/>
    </edge>
    <edge id=":32_10" function="internal">
        <lane id=":32_10_0" index="0" disallow="pedestrian tram rail_urban rail rail_electric rail_fast ship" speed="36.11" length="46.45" width="3.50" shape="834.61,125.69 836.80,119.90 842.72,103.37 849.96,81.85"/>
    </edge>
    <edge id=":32_11" function="internal">
        <lane id=":32_11_0" index="0" disallow="pedestrian tram rail_urban rail rail_electric rail_fast ship" speed="16.29" length="43.62" width="3.50" shape="834.61,125.69 835.05,124.57 836.50,121.41 838.20,118.34 840.17,115.41 842.44,112.68 845.00,110.20 847.83,108.03 850.90,106.20 854.15,104.75 857.53,103.66 860.99,102.92 864.48,102.50 867.96,102.35"/>
    </edge>
    <edge id=":33_0" function="internal">
        <lane id=":33_0_0" index="0" disallow="pedestrian tram rail_urban rail rail_electric rail_fast ship" speed="36.11" length="39.44" width="3.50" shape="787.54,104.99 767.79,104.87 748.10,104.76"/>
    </edge>
    <edge id=":33_1" function="internal">
        <lane id=":33_1_0" index="0" disallow="pedestrian tram rail_urban rail rail_electric rail_fast ship" speed="11.42" length="38.12" width="3.50" shape="787.54,104.99 783.13,104.80 780.22,104.45 777.35,103.86 774.56,102.96 773.22,102.36 771.94,101.65 770.74,100.81 769.65,99.83 768.69,98.73 767.90,97.50 767.27,96.17 766.83,94.78 766.55,93.34 766.42,91.88 766.42,90.42 766.75,87.50 767.40,84.65 768.28,81.84"/>
    </edge>
    <edge id=":33_2" function="internal">
        <lane id=":33_2_0" index="0" disallow="pedestrian tram rail_urban rail rail_electric rail_fast ship" speed="10.37" length="31.18" width="3.50" shape="771.58,83.01 770.82,85.42 770.28,87.84 770.02,90.27 770.03,91.42 770.14,92.57 770.36,93.67 770.71,94.72 771.19,95.70 771.80,96.60 772.53,97.42 773.38,98.15 774.32,98.79 775.34,99.34 776.41,99.80 778.76,100.55 781.20,101.04 783.69,101.33 787.56,101.49"/>
    </edge>
    <edge id=":33_3" function="internal">
        <lane id=":33_3_0" index="0" disallow="pedestrian tram rail_urban rail rail_electric rail_fast ship" speed="14.14" length="34.38" width="3.50" shape="771.58,83.01 770.77,85.18 768.94,89.36 767.30,92.42 765.39,95.36 763.17,98.09 761.45,99.78 759.56,101.28 757.49,102.56 755.26,103.57 752.92,104.28 750.50,104.67 748.10,104.76"/>
    </edge>
    <edge id=":33_4" function="internal">
        <lane id=":33_4_0" index="0" disallow="pedestrian tram rail_urban rail rail_electric rail_fast ship" speed="13.24" length="30.03" width="3.50" shape="748.14,101.26 750.22,101.18 752.26,100.83 754.23,100.21 756.10,99.32 757.83,98.19 759.43,96.87 760.88,95.39 762.80,92.96 764.47,90.34 765.91,87.59 767.56,83.79 768.28,81.84"/>
    </edge>
    <edge id=":33_5" function="internal">
        <lane id=":33_5_0" index="0" disallow="pedestrian tram rail_urban rail rail_electric rail_fast ship" speed="36.11" length="39.42" width="3.50" shape="748.14,101.26 767.83,101.37 787.56,101.49"/>
    </edge>

    <edge id="58415" from="30" to="28" priority="3" type="highway.residential" spreadType="center" length="69.99" shape="798.91,195.68 742.72,263.64">
        <lane id="58415_0" index="0" disallow="pedestrian tram rail_urban rail rail_electric rail_fast ship" speed="36.11" length="69.99" width="3.50" customShape="1" shape="787.36,209.73 758.39,244.71 742.72,263.64"/>
    </edge>
    <edge id="58416" from="29" to="30" priority="3" type="highway.residential" spreadType="center" length="70.01" shape="740.03,261.40 796.22,193.45">
        <lane id="58416_0" index="0" disallow="pedestrian tram rail_urban rail rail_electric rail_fast ship" speed="36.11" length="70.01" width="3.50" customShape="1" shape="740.03,261.40 755.70,242.48 784.68,207.48"/>
    </edge>
    <edge id="58421" from="32" to="30" priority="3" type="highway.residential" spreadType="center" length="58.72" shape="845.85,104.88 799.10,195.40">
        <lane id="58421_0" index="0" disallow="pedestrian tram rail_urban rail rail_electric rail_fast ship" speed="36.11" length="58.72" width="3.50" customShape="1" shape="837.88,126.94 835.40,133.08 831.03,142.84 824.51,156.67 819.63,166.19 815.12,174.18 811.82,179.48"/>
    </edge>
    <edge id="58422" from="30" to="32" priority="3" type="highway.residential" spreadType="center" length="58.11" shape="795.99,193.79 842.75,103.28">
        <lane id="58422_0" index="0" disallow="pedestrian tram rail_urban rail rail_electric rail_fast ship" speed="36.11" length="58.11" width="3.50" customShape="1" shape="808.85,177.63 812.12,172.37 816.57,164.50 821.38,155.09 827.85,141.39 832.18,131.73 834.63,125.63"/>
    </edge>
    <edge id="58447" from="23" to="33" priority="3" type="highway.residential" spreadType="center" length="67.74" shape="793.01,18.91 770.20,96.75">
        <lane id="58447_0" index="0" disallow="pedestrian tram rail_urban rail rail_electric rail_fast ship" speed="36.11" length="67.74" width="3.50" customShape="1" shape="793.01,18.91 786.37,42.22 782.38,55.26 780.00,61.92 774.47,75.48 771.55,83.09"/>
    </edge>
    <edge id="58448" from="33" to="18" priority="3" type="highway.residential" spreadType="center" length="67.45" shape="766.84,95.77 789.65,17.94">
        <lane id="58448_0" index="0" disallow="pedestrian tram rail_urban rail rail_electric rail_fast ship" speed="36.11" length="67.45" width="3.50" customShape="1" shape="768.28,81.84 771.19,74.26 776.70,60.74 779.05,54.17 783.02,41.20 789.65,17.94"/>
    </edge>
    <edge id="58527" from="24" to="32" priority="3" type="highway.residential" spreadType="center" length="70.02" shape="875.34,16.50 845.94,104.69">
        <lane id="58527_0" index="0" disallow="pedestrian tram rail_urban rail rail_electric rail_fast ship" speed="36.11" length="70.02" width="3.50" customShape="1" shape="875.34,16.50 853.28,82.95"/>
    </edge>
    <edge id="58528" from="32" to="7" priority="3" type="highway.residential" spreadType="center" length="70.00" shape="842.62,103.59 872.01,15.41">
        <lane id="58528_0" index="0" disallow="pedestrian tram rail_urban rail rail_electric rail_fast ship" speed="36.11" length="70.00" width="3.50" customShape="1" shape="849.96,81.85 872.01,15.41"/>
    </edge>
    <edge id="58598" from="32" to="8" priority="3" type="highway.residential" spreadType="center" length="61.88" shape="844.25,102.36 929.84,102.04">
        <lane id="58598_0" index="0" disallow="pedestrian tram rail_urban rail rail_electric rail_fast ship" speed="36.11" length="61.88" width="3.50" customShape="1" shape="867.96,102.35 898.91,102.19 929.84,102.04"/>
    </edge>
    <edge id="58599" from="25" to="32" priority="3" type="highway.residential" spreadType="center" length="61.87" shape="929.84,105.54 844.26,105.86">
        <lane id="58599_0" index="0" disallow="pedestrian tram rail_urban rail rail_electric rail_fast ship" speed="36.11" length="61.87" width="3.50" customShape="1" shape="929.84,105.54 898.92,105.69 867.97,105.85"/>
    </edge>
    <edge id="58707" from="33" to="32" priority="3" type="highway.residential" spreadType="center" length="33.80" shape="768.67,94.48 844.47,102.37">
        <lane id="58707_0" index="0" disallow="pedestrian tram rail_urban rail rail_electric rail_fast ship" speed="36.11" length="33.80" width="3.50" customShape="1" shape="787.56,101.49 797.63,101.56 821.36,101.88"/>
    </edge>
    <edge id="58708" from="32" to="33" priority="3" type="highway.residential" spreadType="center" length="33.76" shape="844.11,105.85 768.31,97.96">
        <lane id="58708_0" index="0" disallow="pedestrian tram rail_urban rail rail_electric rail_fast ship" speed="36.11" length="33.76" width="3.50" customShape="1" shape="821.28,105.38 797.60,105.06 787.52,104.99"/>
    </edge>
    <edge id="58710" from="26" to="33" priority="3" type="highway.residential" spreadType="center" length="62.50" shape="685.70,100.00 768.45,94.48">
        <lane id="58710_0" index="0" disallow="pedestrian tram rail_urban rail rail_electric rail_fast ship" speed="36.11" length="62.50" width="3.50" customShape="1" shape="685.70,100.00 739.09,101.02 748.19,101.26"/>
    </edge>
    <edge id="58711" from="33" to="19" priority="3" type="highway.residential" spreadType="center" length="62.48" shape="768.68,97.97 685.63,103.50">
        <lane id="58711_0" index="0" disallow="pedestrian tram rail_urban rail rail_electric rail_fast ship" speed="36.11" length="62.48" width="3.50" customShape="1" shape="748.10,104.76 739.00,104.52 685.63,103.50"/>
    </edge>
    <edge id="59799" from="30" to="31" priority="3" type="highway.residential" spreadType="center" length="13.32">
        <lane id="59799_0" index="0" disallow="pedestrian tram rail_urban rail rail_electric rail_fast ship" speed="36.11" length="13.32" width="3.50" customShape="1" shape="806.29,195.50 806.37,196.66 806.79,198.83 807.69,201.44 808.94,203.90 810.47,206.21 811.50,207.51"/>
    </edge>

    <junction id="18" type="dead_end" x="789.65" y="17.94" incLanes="58448_0" intLanes="" shape="787.97,17.47 791.33,18.42" rightOfWay="edgePriority"/>
    <junction id="19" type="dead_end" x="685.63" y="103.50" incLanes="58711_0" intLanes="" shape="685.60,105.25 685.67,101.75" rightOfWay="edgePriority"/>
    <junction id="23" type="dead_end" x="793.01" y="18.91" incLanes="" intLanes="" shape="791.33,18.43 794.70,19.39" rightOfWay="edgePriority"/>
    <junction id="24" type="dead_end" x="875.34" y="16.50" incLanes="" intLanes="" shape="873.68,15.94 877.00,17.05" rightOfWay="edgePriority"/>
    <junction id="25" type="dead_end" x="929.84" y="105.54" incLanes="" intLanes="" shape="929.83,103.79 929.85,107.29" rightOfWay="edgePriority"/>
    <junction id="26" type="dead_end" x="685.70" y="100.00" incLanes="" intLanes="" shape="685.66,101.75 685.73,98.25" rightOfWay="edgePriority"/>
    <junction id="28" type="dead_end" x="742.72" y="263.64" incLanes="58415_0" intLanes="" shape="744.07,264.76 741.37,262.53" rightOfWay="edgePriority"/>
    <junction id="29" type="dead_end" x="740.03" y="261.40" incLanes="" intLanes="" shape="741.38,262.51 738.69,260.28" rightOfWay="edgePriority"/>
    <junction id="30" type="priority" x="797.54" y="194.60" incLanes="58421_0 58416_0" intLanes=":30_0_0 :30_1_0 :30_2_0" shape="804.47,194.58 808.10,196.43 807.61,192.87 807.74,190.19 808.42,188.00 809.61,185.90 811.26,183.50 813.30,180.40 807.37,176.70 802.92,183.51 799.35,188.33 796.12,192.10 792.72,195.75 788.63,200.20 783.32,206.38 788.71,210.84 792.65,206.13 796.33,201.85 799.54,198.28 802.10,195.70 803.81,194.37">
        <request index="0" response="000" foes="000" cont="0"/>
        <request index="1" response="000" foes="000" cont="0"/>
        <request index="2" response="000" foes="000" cont="0"/>
    </junction>
    <junction id="31" type="dead_end" x="811.50" y="207.51" incLanes="59799_0" intLanes="" shape="812.87,206.42 810.13,208.59"/>
    <junction id="32" type="priority" x="844.29" y="104.11" incLanes="58599_0 58527_0 58707_0 58422_0" intLanes=":32_0_0 :32_1_0 :32_2_0 :32_3_0 :32_4_0 :32_5_0 :32_6_0 :32_7_0 :32_8_0 :32_9_0 :32_10_0 :32_11_0" shape="867.98,107.60 867.95,100.60 862.39,100.15 858.19,98.74 855.34,96.37 853.85,93.04 853.72,88.75 854.94,83.50 848.30,81.30 845.79,87.13 842.48,91.89 838.39,95.56 833.50,98.16 827.82,99.69 821.35,100.13 821.26,107.13 826.82,107.70 830.93,109.23 833.61,111.72 834.85,115.18 834.65,119.60 833.01,124.98 839.50,127.59 842.52,121.51 846.22,116.53 850.63,112.65 855.72,109.86 861.50,108.18">
        <request index="0" response="000000000000" foes="000100010000" cont="0"/>
        <request index="1" response="000000000000" foes="111100110000" cont="0"/>
        <request index="2" response="000011000000" foes="110011110000" cont="0"/>
        <request index="3" response="000010000000" foes="100010000000" cont="0"/>
        <request index="4" response="000110000111" foes="100110000111" cont="0"/>
        <request index="5" response="011110000110" foes="011110000110" cont="0"/>
        <request index="6" response="000000000000" foes="010000000100" cont="0"/>
        <request index="7" response="000000000000" foes="110000111100" cont="0"/>
        <request index="8" response="000000000011" foes="110000110011" cont="0"/>
        <request index="9" response="000000000010" foes="000000100010" cont="0"/>
        <request index="10" response="000111000110" foes="000111100110" cont="0"/>
        <request index="11" response="000110011110" foes="000110011110" cont="0"/>
    </junction>
    <junction id="33" type="priority" x="768.53" y="96.23" incLanes="58708_0 58447_0 58710_0" intLanes=":33_0_0 :33_1_0 :33_2_0 :33_3_0 :33_4_0 :33_5_0" shape="787.53,106.74 787.57,99.74 782.05,99.31 777.57,98.04 774.28,95.89 772.35,92.82 771.93,88.78 773.18,83.72 766.65,81.21 764.16,86.89 761.43,91.51 758.48,95.08 755.30,97.61 751.88,99.08 748.23,99.51 748.05,106.50">
        <request index="0" response="000000" foes="001000" cont="0"/>
        <request index="1" response="110000" foes="111000" cont="0"/>
        <request index="2" response="100000" foes="100000" cont="0"/>
        <request index="3" response="100011" foes="100011" cont="0"/>
        <request index="4" response="000000" foes="000010" cont="0"/>
        <request index="5" response="000000" foes="001110" cont="0"/>
    </junction>
    <junction id="7" type="dead_end" x="872.01" y="15.41" incLanes="58528_0" intLanes="" shape="870.35,14.86 873.67,15.97" rightOfWay="edgePriority"/>
    <junction id="8" type="dead_end" x="929.84" y="102.04" incLanes="58598_0" intLanes="" shape="929.83,100.29 929.85,103.79" rightOfWay="edgePriority"/>

    <connection from="58416" to="58422" fromLane="0" toLane="0" contPos="-4.00" shape="784.68,207.48 791.43,199.68 798.91,191.14 803.44,185.51 807.04,180.47 807.60,179.63" via=":30_2_0" dir="s" state="M"/>
    <connection from="58421" to="59799" fromLane="0" toLane="0" contPos="-4.00" via=":30_0_0" dir="r" state="M"/>
    <connection from="58421" to="58415" fromLane="0" toLane="0" contPos="-4.00" shape="810.53,181.54 809.88,182.45 806.09,187.42 801.47,193.10 794.06,201.81 787.36,209.73" via=":30_1_0" dir="s" state="M"/>
    <connection from="58422" to="58708" fromLane="0" toLane="0" contPos="-4.00" shape="834.61,125.69 835.84,122.04 836.42,119.61 836.75,117.15 836.79,115.97 836.74,114.80 836.58,113.65 836.30,112.56 835.90,111.53 835.37,110.57 834.72,109.70 833.95,108.92 833.06,108.23 832.09,107.63 831.03,107.12 829.94,106.70 827.55,106.04 825.10,105.64 821.28,105.38" via=":32_9_0" dir="r" state="m"/>
    <connection from="58422" to="58528" fromLane="0" toLane="0" contPos="-4.00" shape="834.61,125.69 836.80,119.90 842.72,103.37 849.96,81.85" via=":32_10_0" dir="s" state="m"/>
    <connection from="58422" to="58598" fromLane="0" toLane="0" contPos="-4.00" shape="834.61,125.69 835.05,124.57 836.50,121.41 838.20,118.34 840.17,115.41 842.44,112.68 845.00,110.20 847.83,108.03 850.90,106.20 854.15,104.75 857.53,103.66 860.99,102.92 864.48,102.50 867.96,102.35" via=":32_11_0" dir="l" state="m"/>
    <connection from="58447" to="58707" fromLane="0" toLane="0" contPos="-4.00" shape="771.58,83.01 770.82,85.42 770.28,87.84 770.02,90.27 770.03,91.42 770.14,92.57 770.36,93.67 770.71,94.72 771.19,95.70 771.80,96.60 772.53,97.42 773.38,98.15 774.32,98.79 775.34,99.34 776.41,99.80 778.76,100.55 781.20,101.04 783.69,101.33 787.56,101.49" via=":33_2_0" dir="r" state="m"/>
    <connection from="58447" to="58711" fromLane="0" toLane="0" contPos="-4.00" shape="771.58,83.01 770.77,85.18 768.94,89.36 767.30,92.42 765.39,95.36 763.17,98.09 761.45,99.78 759.56,101.28 757.49,102.56 755.26,103.57 752.92,104.28 750.50,104.67 748.10,104.76" via=":33_3_0" dir="l" state="m"/>
    <connection from="58527" to="58598" fromLane="0" toLane="0" contPos="-4.00" shape="853.29,82.93 852.35,86.34 851.94,88.67 851.80,91.03 851.85,92.21 852.00,93.39 852.27,94.54 852.66,95.65 853.19,96.71 853.86,97.68 854.65,98.56 855.54,99.33 856.52,99.99 857.57,100.55 858.66,101.01 860.92,101.68 863.25,102.09 865.61,102.29 867.96,102.35" via=":32_3_0" dir="r" state="m"/>
    <connection from="58527" to="58421" fromLane="0" toLane="0" contPos="-4.00" shape="853.29,82.93 846.02,104.54 840.08,121.12 837.88,126.94" via=":32_4_0" dir="s" state="m"/>
    <connection from="58527" to="58708" fromLane="0" toLane="0" contPos="-4.00" shape="853.29,82.93 852.91,84.04 851.62,87.26 850.03,90.39 848.13,93.37 845.90,96.12 844.21,97.81 842.38,99.34 840.42,100.71 838.34,101.90 835.09,103.32 831.70,104.35 828.24,105.00 824.76,105.33 821.28,105.38" via=":32_5_0" dir="l" state="m"/>
    <connection from="58599" to="58421" fromLane="0" toLane="0" contPos="-4.00" shape="867.98,105.85 864.80,105.98 861.63,106.37 858.50,107.04 855.46,108.02 852.54,109.32 849.80,110.96 847.26,112.90 844.97,115.13 842.93,117.59 841.14,120.24 839.60,123.04 838.27,125.95 837.88,126.94" via=":32_0_0" dir="r" state="M"/>
    <connection from="58599" to="58708" fromLane="0" toLane="0" contPos="-4.00" shape="867.98,105.85 849.30,105.82 821.28,105.38" via=":32_1_0" dir="s" state="M"/>
    <connection from="58599" to="58528" fromLane="0" toLane="0" contPos="-4.00" shape="867.98,105.85 865.25,105.78 862.48,105.54 859.71,105.05 856.99,104.24 855.61,103.65 854.30,102.95 853.05,102.10 851.89,101.09 850.86,99.94 849.99,98.66 849.30,97.27 848.79,95.83 848.45,94.37 848.27,92.90 848.21,91.41 848.39,88.59 848.87,85.82 849.96,81.85" via=":32_2_0" dir="l" state="m"/>
    <connection from="58707" to="58528" fromLane="0" toLane="0" contPos="-4.00" shape="821.36,101.88 824.51,101.84 827.66,101.54 830.76,100.95 833.78,100.04 836.68,98.78 838.50,97.73 840.23,96.53 841.84,95.18 843.33,93.69 845.33,91.24 847.03,88.58 848.45,85.76 849.62,82.83 849.96,81.85" via=":32_6_0" dir="r" state="M"/>
    <connection from="58707" to="58598" fromLane="0" toLane="0" contPos="-4.00" shape="821.36,101.88 849.32,102.32 867.96,102.35" via=":32_7_0" dir="s" state="M"/>
    <connection from="58707" to="58421" fromLane="0" toLane="0" contPos="-4.00" shape="821.36,101.88 825.76,102.18 828.66,102.66 831.50,103.43 832.87,103.96 834.19,104.61 835.45,105.38 836.61,106.28 837.64,107.33 838.52,108.50 839.24,109.79 839.77,111.16 840.13,112.58 840.34,114.04 840.41,115.51 840.36,116.98 839.97,119.89 839.29,122.75 837.88,126.94" via=":32_8_0" dir="l" state="m"/>
    <connection from="58708" to="58711" fromLane="0" toLane="0" contPos="-4.00" shape="787.52,104.99 767.79,104.87 748.10,104.76" via=":33_0_0" dir="s" state="M"/>
    <connection from="58708" to="58448" fromLane="0" toLane="0" contPos="-4.00" shape="787.52,104.99 783.13,104.80 780.22,104.45 777.35,103.86 774.56,102.96 773.22,102.36 771.94,101.65 770.74,100.81 769.65,99.83 768.69,98.73 767.90,97.50 767.27,96.17 766.83,94.78 766.55,93.34 766.42,91.88 766.42,90.42 766.75,87.50 767.40,84.65 768.28,81.84" via=":33_1_0" dir="l" state="m"/>
    <connection from="58710" to="58448" fromLane="0" toLane="0" contPos="-4.00" shape="748.14,101.26 750.22,101.18 752.26,100.83 754.23,100.21 756.10,99.32 757.83,98.19 759.43,96.87 760.88,95.39 762.80,92.96 764.47,90.34 765.91,87.59 767.56,83.79 768.28,81.84" via=":33_4_0" dir="r" state="M"/>