<routes>
	<vehicle depart="0.1" departLane="0" departPos="33.51356638420018" departSpeed="0.0" id="315" type="bicycle">
		<route edges="262 103"/>
	</vehicle>
	<vehicle depart="0.1" departLane="0" departPos="18.96544572230368" departSpeed="0.0" id="317" type="bicycle">
		<route edges="104 261"/>
	</vehicle>
	<vehicle depart="0.1" departLane="0" departPos="70.35083746994906" departSpeed="0.0" id="32" type="passenger">
		<route edges="109 106"/>
	</vehicle>
	<vehicle depart="0.1" departLane="0" departPos="10.038515325381344" departSpeed="7.7532303" id="34" type="passenger">
		<route edges="261"/>
	</vehicle>
	<vehicle depart="0.1" departLane="0" departPos="33.094211887284274" departSpeed="0.0" id="38" type="passenger">
		<route edges="262 103"/>
	</vehicle>
	<vehicle depart="0.1" departLane="0" departPos="4.682501744181264" departSpeed="5.6117114" id="310" type="passenger">
		<route edges=":31_2 261"/>
	</vehicle>
	<vehicle depart="0.1" departLane="0" departPos="25.66661292507874" departSpeed="0.0" id="311" type="passenger">
		<route edges="262 103"/>
	</vehicle>
	<vehicle depart="0.1" departLane="0" departPos="135.12776498680537" departSpeed="0.0" id="314" type="passenger">
		<route edges="107 110"/>
	</vehicle>
	<vehicle depart="0.1" departLane="0" departPos="24.333790576719952" departSpeed="0.0" id="316" type="passenger">
		<route edges="104 261"/>
	</vehicle>
	<vehicle depart="0.1" departLane="0" departPos="76.0774674373158" departSpeed="21.101107" id="318" type="passenger">
		<route edges="106 103"/>
	</vehicle>
	<vehicle depart="0.1" departLane="0" departPos="63.64298730250911" departSpeed="0.0031895053" id="320" type="passenger">
		<route edges="109 106"/>
	</vehicle>
	<vehicle depart="0.1" departLane="0" departPos="18.21104429987951" departSpeed="0.0" id="322" type="passenger">
		<route edges="262 103"/>
	</vehicle>
	<vehicle depart="0.1" departLane="0" departPos="14.918376853799042" departSpeed="0.0" id="325" type="passenger">
		<route edges="104 261"/>
	</vehicle>
	<vehicle depart="0.1" departLane="0" departPos="56.53238716787882" departSpeed="0.0063865507" id="328" type="passenger">
		<route edges="109 106"/>
	</vehicle>
	<vehicle depart="0.1" departLane="0" departPos="7.9211101681652485" departSpeed="9.4128663e-05" id="331" type="passenger">
		<route edges="104 261"/>
	</vehicle>
	<vehicle depart="0.1" departLane="0" departPos="7.946551554344288" departSpeed="14.321709" id="336" type="passenger">
		<route edges="85 106 103"/>
	</vehicle>
	<vehicle depart="0.1" departLane="0" departPos="39.7054448956397" departSpeed="0.16714433" id="337" type="passenger">
		<route edges="109 106"/>
	</vehicle>
	<vehicle depart="0.1" departLane="0" departPos="66.73588731252342" departSpeed="13.309593" id="339" type="passenger">
		<route edges="88 85 106 103"/>
	</vehicle>
	<vehicle depart="0.1" departLane="0" departPos="49.276325699176944" departSpeed="0.010717472" id="330" type="motorcycle">
		<route edges="109 106"/>
	</vehicle>
	<vehicle depart="0.1" departLane="0" departPos="44.58597445807685" departSpeed="0.03764655" id="334" type="motorcycle">
		<route edges="109 106"/>
	</vehicle>
	<vehicle depart="0.1" departLane="0" departPos="11.149019608675815" departSpeed="2.8625638e-05" id="326" type="truck">
		<route edges="262 103"/>
	</vehicle>
</routes>
