<routes>
	<vehicle depart="0.1" departLane="0" departPos="30.076541578972027" departSpeed="0.0" id="34" type="passenger">
		<route edges=":38_0 66067"/>
	</vehicle>
	<vehicle depart="0.1" departLane="0" departPos="26.27989112198054" departSpeed="0.0" id="38" type="passenger">
		<route edges=":37_0 66646"/>
	</vehicle>
	<vehicle depart="0.1" departLane="0" departPos="5.768488727368517" departSpeed="17.301781" id="347" type="passenger">
		<route edges=":38_5 66647 66650"/>
	</vehicle>
	<vehicle depart="0.1" departLane="0" departPos="11.17778438447447" departSpeed="14.59223" id="348" type="passenger">
		<route edges=":39_5 66068 66647"/>
	</vehicle>
	<vehicle depart="0.1" departLane="0" departPos="26.110567875436665" departSpeed="7.3311639" id="351" type="passenger">
		<route edges="66065 66068 66647"/>
	</vehicle>
	<vehicle depart="0.1" departLane="0" departPos="8.144556124962232" departSpeed="4.0505949" id="354" type="passenger">
		<route edges="66065 66245"/>
	</vehicle>
</routes>
