<routes>
	<vehicle depart="0.1" departLane="0" departPos="4.4815905345528595" departSpeed="4.1836493" id="311" type="bicycle">
		<route edges=":19_4 95639"/>
	</vehicle>
	<vehicle depart="0.1" departLane="0" departPos="6.1467393315205605" departSpeed="6.4988772" id="313" type="bicycle">
		<route edges=":19_4 95639"/>
	</vehicle>
	<vehicle depart="0.1" departLane="0" departPos="26.451079407523316" departSpeed="0.0446888" id="33" type="passenger">
		<route edges=":19_10 96030"/>
	</vehicle>
	<vehicle depart="0.1" departLane="0" departPos="25.046267904206342" departSpeed="12.209023" id="34" type="passenger">
		<route edges=":19_5 95357"/>
	</vehicle>
	<vehicle depart="0.1" departLane="0" departPos="47.51689339329009" departSpeed="1.2010948" id="35" type="passenger">
		<route edges="95638 96030"/>
	</vehicle>
	<vehicle depart="0.1" departLane="0" departPos="12.158898122102874" departSpeed="0.21215107" id="36" type="passenger">
		<route edges="96030"/>
	</vehicle>
	<vehicle depart="0.1" departLane="0" departPos="66.28061246873037" departSpeed="0.84960614" id="37" type="passenger">
		<route edges="95358 95639"/>
	</vehicle>
	<vehicle depart="0.1" departLane="0" departPos="36.35152662425584" departSpeed="1.4369927" id="30" type="truck">
		<route edges=":19_10 96030"/>
	</vehicle>
	<vehicle depart="0.1" departLane="0" departPos="59.079569736614836" departSpeed="0.69806293" id="310" type="truck">
		<route edges="95358 96030"/>
	</vehicle>
	<vehicle depart="0.1" departLane="0" departPos="3.75" departSpeed="2.1638638" id="322" type="truck">
		<route edges="95636 95639"/>
	</vehicle>
</routes>
