<routes>
	<vehicle depart="0.1" departLane="0" departPos="20.930824800822148" departSpeed="10.978447" id="353" type="bus">
		<route edges=":29_2 5930 5486"/>
	</vehicle>
	<vehicle depart="0.1" departLane="0" departPos="20.345920163552897" departSpeed="0.021176708" id="31" type="passenger">
		<route edges=":30_4 6028"/>
	</vehicle>
	<vehicle depart="0.1" departLane="0" departPos="26.60141844766614" departSpeed="3.0334884" id="32" type="passenger">
		<route edges="5929 6031"/>
	</vehicle>
	<vehicle depart="0.1" departLane="0" departPos="6.3982182060107124" departSpeed="3.7444456" id="38" type="passenger">
		<route edges=":29_0 6027"/>
	</vehicle>
	<vehicle depart="0.1" departLane="0" departPos="7.1323428652715535" departSpeed="3.0656433" id="310" type="passenger">
		<route edges=":29_5 5930"/>
	</vehicle>
	<vehicle depart="0.1" departLane="0" departPos="10.762768778518472" departSpeed="2.9990286" id="315" type="passenger">
		<route edges="5929 6027"/>
	</vehicle>
	<vehicle depart="0.1" departLane="0" departPos="65.8806540846174" departSpeed="10.704323" id="354" type="passenger">
		<route edges="6030 5930"/>
	</vehicle>
	<vehicle depart="0.1" departLane="0" departPos="42.03652883477813" departSpeed="10.106266" id="355" type="passenger">
		<route edges="6030 5930"/>
	</vehicle>
	<vehicle depart="0.1" departLane="0" departPos="23.68669226141628" departSpeed="1.6839164" id="329" type="motorcycle">
		<route edges=":31_1 5929"/>
	</vehicle>
	<vehicle depart="0.1" departLane="0" departPos="21.359353968697906" departSpeed="5.3659366" id="30" type="truck">
		<route edges=":29_0 6027 6024"/>
	</vehicle>
</routes>
