<routes>
	<vehicle depart="0.1" departLane="0" departPos="5.19496291681361" departSpeed="1.4779054" id="31" type="passenger">
		<route edges=":41_3 69036 69768"/>
	</vehicle>
	<vehicle depart="0.1" departLane="0" departPos="9.915848115775791" departSpeed="0.0" id="33" type="passenger">
		<route edges="69375 68915"/>
	</vehicle>
	<vehicle depart="0.1" departLane="0" departPos="33.69028494196057" departSpeed="1.2143778" id="311" type="passenger">
		<route edges=":40_2 68911"/>
	</vehicle>
	<vehicle depart="0.1" departLane="0" departPos="10.246003862842763" departSpeed="9.2022968" id="313" type="passenger">
		<route edges=":37_2 69768"/>
	</vehicle>
	<vehicle depart="0.1" departLane="0" departPos="37.93925399635801" departSpeed="2.5914533" id="321" type="passenger">
		<route edges=":37_0 69032 69387 68986"/>
	</vehicle>
	<vehicle depart="0.1" departLane="0" departPos="2.5" departSpeed="5.9675298" id="325" type="passenger">
		<route edges="68915 69275"/>
	</vehicle>
	<vehicle depart="0.1" departLane="0" departPos="31.832943228613246" departSpeed="1.5650198" id="326" type="passenger">
		<route edges=":37_0 69032 68915"/>
	</vehicle>
	<vehicle depart="0.1" departLane="0" departPos="9.450110073317358" departSpeed="0.30611502" id="330" type="passenger">
		<route edges=":37_0 69032"/>
	</vehicle>
	<vehicle depart="0.1" departLane="0" departPos="38.158336281844676" departSpeed="0.80163204" id="331" type="motorcycle">
		<route edges=":38_1 69394"/>
	</vehicle>
	<vehicle depart="0.1" departLane="0" departPos="6.942109955588923" departSpeed="1.2158475" id="329" type="truck">
		<route edges="69394 68915"/>
	</vehicle>
</routes>
