<routes>
	<vehicle depart="0.1" departLane="0" departPos="58.77378751419622" departSpeed="0.0" id="34" type="bicycle">
		<route edges="184 156"/>
	</vehicle>
	<vehicle depart="0.1" departLane="0" departPos="100.56555261936725" departSpeed="6.8808108" id="346" type="bicycle">
		<route edges="57 19"/>
	</vehicle>
	<vehicle depart="0.1" departLane="0" departPos="68.66493821104444" departSpeed="6.9323905" id="363" type="bicycle">
		<route edges="57 19"/>
	</vehicle>
	<vehicle depart="0.1" departLane="0" departPos="39.707765826351825" departSpeed="0.0" id="327" type="bus">
		<route edges="156 20"/>
	</vehicle>
	<vehicle depart="0.1" departLane="0" departPos="20.04773797144334" departSpeed="2.5439979" id="385" type="bus">
		<route edges="110 248"/>
	</vehicle>
	<vehicle depart="0.1" departLane="0" departPos="12.499544316591557" departSpeed="2.2386243" id="389" type="bus">
		<route edges="249 17"/>
	</vehicle>
	<vehicle depart="0.1" departLane="0" departPos="53.512042214298326" departSpeed="0.0" id="31" type="passenger">
		<route edges="156 20"/>
	</vehicle>
	<vehicle depart="0.1" departLane="0" departPos="23.29325714196146" departSpeed="0.0" id="36" type="passenger">
		<route edges="16 248"/>
	</vehicle>
	<vehicle depart="0.1" departLane="0" departPos="51.50419903262636" departSpeed="0.0" id="38" type="passenger">
		<route edges="14 17"/>
	</vehicle>
	<vehicle depart="0.1" departLane="0" departPos="46.808067483374295" departSpeed="0.0" id="312" type="passenger">
		<route edges="156 20"/>
	</vehicle>
	<vehicle depart="0.1" departLane="0" departPos="44.33895066623721" departSpeed="0.0" id="313" type="passenger">
		<route edges="14 17"/>
	</vehicle>
	<vehicle depart="0.1" departLane="0" departPos="60.42670310115261" departSpeed="0.0" id="315" type="passenger">
		<route edges="156 20"/>
	</vehicle>
	<vehicle depart="0.1" departLane="0" departPos="70.27087465106331" departSpeed="0.0" id="316" type="passenger">
		<route edges="121 300"/>
	</vehicle>
	<vehicle depart="0.1" departLane="0" departPos="53.852120670434296" departSpeed="0.0" id="321" type="passenger">
		<route edges="121 300"/>
	</vehicle>
	<vehicle depart="0.1" departLane="0" departPos="7.086246722303609" departSpeed="5.3306789" id="323" type="passenger">
		<route edges=":60_5 19 16 248"/>
	</vehicle>
	<vehicle depart="0.1" departLane="0" departPos="37.550607845464" departSpeed="0.0" id="326" type="passenger">
		<route edges="121 300"/>
	</vehicle>
	<vehicle depart="0.1" departLane="0" departPos="40.42106994668575" departSpeed="10.828864" id="328" type="passenger">
		<route edges="301 304"/>
	</vehicle>
	<vehicle depart="0.1" departLane="0" departPos="32.51377589090801" departSpeed="0.0" id="331" type="passenger">
		<route edges="14 17"/>
	</vehicle>
	<vehicle depart="0.1" departLane="0" departPos="172.19015092385652" departSpeed="3.7753105" id="332" type="passenger">
		<route edges="57 19"/>
	</vehicle>
	<vehicle depart="0.1" departLane="0" departPos="30.09778507387159" departSpeed="0.0" id="334" type="passenger">
		<route edges="121 300"/>
	</vehicle>
	<vehicle depart="0.1" departLane="0" departPos="53.89734706645573" departSpeed="0.0" id="336" type="passenger">
		<route edges="184 156"/>
	</vehicle>
	<vehicle depart="0.1" departLane="0" departPos="25.099681914246162" departSpeed="0.0" id="338" type="passenger">
		<route edges="14 17"/>
	</vehicle>
	<vehicle depart="0.1" departLane="0" departPos="54.21755263967376" departSpeed="0.0" id="341" type="passenger">
		<route edges="303 120"/>
	</vehicle>
	<vehicle depart="0.1" departLane="0" departPos="163.39009947389115" departSpeed="2.3862997" id="342" type="passenger">
		<route edges="57 19"/>
	</vehicle>
	<vehicle depart="0.1" departLane="0" departPos="25.211566133985897" departSpeed="3.5874328e-05" id="343" type="passenger">
		<route edges="156 20"/>
	</vehicle>
	<vehicle depart="0.1" departLane="0" departPos="46.562131918839725" departSpeed="0.0" id="344" type="passenger">
		<route edges="184 156"/>
	</vehicle>
	<vehicle depart="0.1" departLane="0" departPos="22.97804978263349" departSpeed="6.9868713e-05" id="345" type="passenger">
		<route edges="121 300"/>
	</vehicle>
	<vehicle depart="0.1" departLane="0" departPos="8.911249493963066" departSpeed="7.2966153" id="347" type="passenger">
		<route edges="20 301 304"/>
	</vehicle>
	<vehicle depart="0.1" departLane="0" departPos="17.685615440447798" departSpeed="1.1466885e-05" id="348" type="passenger">
		<route edges="14 17"/>
	</vehicle>
	<vehicle depart="0.1" departLane="0" departPos="20.90633446256956" departSpeed="0.0" id="349" type="passenger">
		<route edges="159 183"/>
	</vehicle>
	<vehicle depart="0.1" departLane="0" departPos="39.0988643090466" departSpeed="1.2666663e-05" id="350" type="passenger">
		<route edges="184 156"/>
	</vehicle>
	<vehicle depart="0.1" departLane="0" departPos="47.115745313625496" departSpeed="0.0" id="351" type="passenger">
		<route edges="303 120"/>
	</vehicle>
	<vehicle depart="0.1" departLane="0" departPos="13.996806644434711" departSpeed="0.0" id="352" type="passenger">
		<route edges="159 156 20"/>
	</vehicle>
	<vehicle depart="0.1" departLane="0" departPos="155.02566693452775" departSpeed="1.48209" id="353" type="passenger">
		<route edges="57 19"/>
	</vehicle>
	<vehicle depart="0.1" departLane="0" departPos="70.23812499354024" departSpeed="0.576" id="354" type="passenger">
		<route edges="110 17 20 56"/>
	</vehicle>
	<vehicle depart="0.1" departLane="0" departPos="32.03550533131536" departSpeed="0.00011543228" id="355" type="passenger">
		<route edges="184 156"/>
	</vehicle>
	<vehicle depart="0.1" departLane="0" departPos="16.16501147141276" departSpeed="0.00032668132" id="356" type="passenger">
		<route edges="121 300"/>
	</vehicle>
	<vehicle depart="0.1" departLane="0" departPos="146.50922388465153" departSpeed="1.4244517" id="357" type="passenger">
		<route edges="57 19"/>
	</vehicle>
	<vehicle depart="0.1" departLane="0" departPos="10.356949623627322" departSpeed="8.1399523e-05" id="359" type="passenger">
		<route edges="14 17"/>
	</vehicle>
	<vehicle depart="0.1" departLane="0" departPos="25.06660824067164" departSpeed="0.00063586211" id="360" type="passenger">
		<route edges="184 156"/>
	</vehicle>
	<vehicle depart="0.1" departLane="0" departPos="136.95221325623802" departSpeed="2.5727142" id="361" type="passenger">
		<route edges="57 19"/>
	</vehicle>
	<vehicle depart="0.1" departLane="0" departPos="63.27821709609556" departSpeed="0.056377751" id="362" type="passenger">
		<route edges="110 17 20 56"/>
	</vehicle>
	<vehicle depart="0.1" departLane="0" departPos="40.413969079419815" departSpeed="6.6449689e-05" id="364" type="passenger">
		<route edges="303 120"/>
	</vehicle>
	<vehicle depart="0.1" departLane="0" departPos="17.885117499644803" departSpeed="0.0027903998" id="365" type="passenger">
		<route edges="184 156"/>
	</vehicle>
	<vehicle depart="0.1" departLane="0" departPos="9.39574792859166" departSpeed="0.0012032402" id="366" type="passenger">
		<route edges="121 300"/>
	</vehicle>
	<vehicle depart="0.1" departLane="0" departPos="55.99854544253885" departSpeed="0.18160115" id="367" type="passenger">
		<route edges="110 248"/>
	</vehicle>
	<vehicle depart="0.1" departLane="0" departPos="33.31139501719988" departSpeed="0.0009239273" id="368" type="passenger">
		<route edges="303 120"/>
	</vehicle>
	<vehicle depart="0.1" departLane="0" departPos="118.36788649381583" departSpeed="7.7969835" id="369" type="passenger">
		<route edges="57 19"/>
	</vehicle>
	<vehicle depart="0.1" departLane="0" departPos="25.83767054236933" departSpeed="0.0063601026" id="370" type="passenger">
		<route edges="303 120"/>
	</vehicle>
	<vehicle depart="0.1" departLane="0" departPos="48.22798430569968" departSpeed="0.65375385" id="371" type="passenger">
		<route edges="110 248"/>
	</vehicle>
	<vehicle depart="0.1" departLane="0" departPos="10.756382886144511" departSpeed="0.0099112282" id="372" type="passenger">
		<route edges="184 156"/>
	</vehicle>
	<vehicle depart="0.1" departLane="0" departPos="95.2963803435575" departSpeed="11.133877" id="374" type="passenger">
		<route edges="57 19"/>
	</vehicle>
	<vehicle depart="0.1" departLane="0" departPos="39.7413223147801" departSpeed="1.3554992" id="375" type="passenger">
		<route edges="110 248"/>
	</vehicle>
	<vehicle depart="0.1" departLane="0" departPos="18.626181395106464" departSpeed="0.030548566" id="376" type="passenger">
		<route edges="303 120"/>
	</vehicle>
	<vehicle depart="0.1" departLane="0" departPos="67.80190690744176" departSpeed="14.386025" id="377" type="passenger">
		<route edges="57 19"/>
	</vehicle>
	<vehicle depart="0.1" departLane="0" departPos="30.093917417177504" departSpeed="2.0940023" id="379" type="passenger">
		<route edges="110 248"/>
	</vehicle>
	<vehicle depart="0.1" departLane="0" departPos="11.536936312036818" departSpeed="0.11025031" id="380" type="passenger">
		<route edges="303 120"/>
	</vehicle>
	<vehicle depart="0.1" departLane="0" departPos="37.1977504599576" departSpeed="14.121397" id="381" type="passenger">
		<route edges="57 19"/>
	</vehicle>
	<vehicle depart="0.1" departLane="0" departPos="8.904514649114834" departSpeed="8.7786708" id="382" type="passenger">
		<route edges="17 20 301 304"/>
	</vehicle>
	<vehicle depart="0.1" departLane="0" departPos="13.19852923942722" departSpeed="10.43526" id="383" type="passenger">
		<route edges="57 19"/>
	</vehicle>
	<vehicle depart="0.1" departLane="0" departPos="5.274228361150378" departSpeed="5.5439297" id="384" type="passenger">
		<route edges=":59_7 17 20 301 304"/>
	</vehicle>
	<vehicle depart="0.1" departLane="0" departPos="5.158041863584289" departSpeed="0.62240905" id="388" type="passenger">
		<route edges="110 248"/>
	</vehicle>
	<vehicle depart="0.1" departLane="0" departPos="37.176094029762595" departSpeed="0.0" id="322" type="motorcycle">
		<route edges="14 17"/>
	</vehicle>
	<vehicle depart="0.1" departLane="0" departPos="58.73244272997354" departSpeed="0.0" id="333" type="motorcycle">
		<route edges="184 156"/>
	</vehicle>
	<vehicle depart="0.1" departLane="0" departPos="46.29061052030393" departSpeed="16.917337" id="337" type="motorcycle">
		<route edges="157 160"/>
	</vehicle>
	<vehicle depart="0.1" departLane="0" departPos="1.25" departSpeed="8.6622038" id="340" type="motorcycle">
		<route edges="56 1131"/>
	</vehicle>
	<vehicle depart="0.1" departLane="0" departPos="6.687127171384834" departSpeed="0.0" id="358" type="motorcycle">
		<route edges="159 156 20"/>
	</vehicle>
	<vehicle depart="0.1" departLane="0" departPos="63.29688626927248" departSpeed="0.0" id="319" type="truck">
		<route edges="121 300"/>
	</vehicle>
	<vehicle depart="0.1" departLane="0" departPos="47.151321104502124" departSpeed="0.0" id="324" type="truck">
		<route edges="121 300"/>
	</vehicle>
</routes>
