<routes>
	<vehicle depart="0.1" departLane="1" departPos="13.388964318346215" departSpeed="7.4355088" id="338" type="bicycle">
		<route edges="47760 47756"/>
	</vehicle>
	<vehicle depart="0.1" departLane="0" departPos="41.862344699902515" departSpeed="0.0" id="30" type="passenger">
		<route edges=":28_0 47831"/>
	</vehicle>
	<vehicle depart="0.1" departLane="0" departPos="34.36186835962771" departSpeed="0.0" id="31" type="passenger">
		<route edges=":28_0 47831"/>
	</vehicle>
	<vehicle depart="0.1" departLane="0" departPos="26.861133026184167" departSpeed="0.0" id="34" type="passenger">
		<route edges=":28_0 47831"/>
	</vehicle>
	<vehicle depart="0.1" departLane="0" departPos="19.360381223253388" departSpeed="3.5028209e-05" id="35" type="passenger">
		<route edges=":28_0 47831"/>
	</vehicle>
	<vehicle depart="0.1" departLane="0" departPos="2.5" departSpeed="1.753635" id="37" type="passenger">
		<route edges=":29_1 47756"/>
	</vehicle>
	<vehicle depart="0.1" departLane="0" departPos="49.36197537347849" departSpeed="0.0" id="38" type="passenger">
		<route edges=":28_0 47831"/>
	</vehicle>
	<vehicle depart="0.1" departLane="0" departPos="11.859482168182058" departSpeed="0.00022969739" id="313" type="passenger">
		<route edges=":28_0 47831"/>
	</vehicle>
	<vehicle depart="0.1" departLane="0" departPos="10.704925461253154" departSpeed="5.8983282" id="331" type="passenger">
		<route edges=":27_0 47764 47825"/>
	</vehicle>
	<vehicle depart="0.1" departLane="1" departPos="26.425182674457325" departSpeed="7.6663849" id="334" type="passenger">
		<route edges="47760 47756 47764"/>
	</vehicle>
</routes>
