<routes>
	<vehicle depart="0.1" departLane="0" departPos="3.280314455274399" departSpeed="0.0" id="38" type="bicycle">
		<route edges="40817 40434"/>
	</vehicle>
	<vehicle depart="0.1" departLane="0" departPos="49.31408249633609" departSpeed="2.3824411" id="331" type="passenger">
		<route edges="40822 40968"/>
	</vehicle>
	<vehicle depart="0.1" departLane="0" departPos="38.44270881392494" departSpeed="3.3403895" id="334" type="passenger">
		<route edges="40822 40968"/>
	</vehicle>
	<vehicle depart="0.1" departLane="0" departPos="26.569302441646194" departSpeed="4.8776955" id="337" type="passenger">
		<route edges="40822 40968"/>
	</vehicle>
	<vehicle depart="0.1" departLane="0" departPos="8.20393504580133" departSpeed="6.1859454" id="339" type="passenger">
		<route edges="40822 40968"/>
	</vehicle>
	<vehicle depart="0.1" departLane="0" departPos="2.5" departSpeed="14.749978" id="340" type="passenger">
		<route edges="40823 40416"/>
	</vehicle>
	<vehicle depart="0.1" departLane="0" departPos="17.373190291650356" departSpeed="8.6626536" id="344" type="passenger">
		<route edges=":67_1 40820 40823"/>
	</vehicle>
	<vehicle depart="0.1" departLane="0" departPos="2.5" departSpeed="6.3059184" id="347" type="passenger">
		<route edges="40433 40820"/>
	</vehicle>
	<vehicle depart="0.1" departLane="0" departPos="11.783248207963979" departSpeed="0.0" id="30" type="truck">
		<route edges="40817 40434"/>
	</vehicle>
</routes>
