<routes>
	<vehicle depart="0.1" departLane="0" departPos="60.90336455003681" departSpeed="0.064595004" id="37" type="bicycle">
		<route edges="51518 51400"/>
	</vehicle>
	<vehicle depart="0.1" departLane="0" departPos="58.444158927695185" departSpeed="1.1179442" id="313" type="passenger">
		<route edges="51518 51400"/>
	</vehicle>
	<vehicle depart="0.1" departLane="0" departPos="11.678020453589175" departSpeed="4.4194484" id="314" type="passenger">
		<route edges=":41_1 51521"/>
	</vehicle>
	<vehicle depart="0.1" departLane="0" departPos="14.072853273969852" departSpeed="2.9089201" id="316" type="passenger">
		<route edges=":41_5 51400"/>
	</vehicle>
	<vehicle depart="0.1" departLane="0" departPos="52.3888908922006" departSpeed="0.32884591" id="339" type="passenger">
		<route edges="51520 51517"/>
	</vehicle>
	<vehicle depart="0.1" departLane="0" departPos="40.760871240576805" departSpeed="1.6931347" id="343" type="passenger">
		<route edges="51520 51517"/>
	</vehicle>
	<vehicle depart="0.1" departLane="0" departPos="32.57847906117057" departSpeed="1.5014092" id="346" type="passenger">
		<route edges="51520 51517"/>
	</vehicle>
	<vehicle depart="0.1" departLane="0" departPos="21.40208804769237" departSpeed="1.5229646" id="348" type="passenger">
		<route edges="51520 51517"/>
	</vehicle>
	<vehicle depart="0.1" departLane="0" departPos="47.6954278790407" departSpeed="1.4721238" id="319" type="motorcycle">
		<route edges="51518 51400"/>
	</vehicle>
	<vehicle depart="0.1" departLane="0" departPos="59.647447944002124" departSpeed="0.15762607" id="336" type="motorcycle">
		<route edges="51520 51517"/>
	</vehicle>
</routes>
