<routes>
	<vehicle depart="0.1" departLane="0" departPos="58.77378751419622" departSpeed="0.0" id="34" type="bicycle">
		<route edges="184 156"/>
	</vehicle>
	<vehicle depart="0.1" departLane="0" departPos="101.94575452693674" departSpeed="6.9248969" id="346" type="bicycle">
		<route edges="57 19"/>
	</vehicle>
	<vehicle depart="0.1" departLane="0" departPos="70.04264571875176" departSpeed="6.886896" id="363" type="bicycle">
		<route edges="57 19"/>
	</vehicle>
	<vehicle depart="0.1" departLane="0" departPos="39.707765826351825" departSpeed="0.0" id="327" type="bus">
		<route edges="156 20"/>
	</vehicle>
	<vehicle depart="0.1" departLane="0" departPos="20.55547745470443" departSpeed="2.5076918" id="385" type="bus">
		<route edges="110 248"/>
	</vehicle>
	<vehicle depart="0.1" departLane="0" departPos="13.009956626192967" departSpeed="2.3239047" id="389" type="bus">
		<route edges="249 17"/>
	</vehicle>
	<vehicle depart="0.1" departLane="0" departPos="53.512042214298326" departSpeed="0.0" id="31" type="passenger">
		<route edges="156 20"/>
	</vehicle>
	<vehicle depart="0.1" departLane="0" departPos="23.29325714196146" departSpeed="0.0" id="36" type="passenger">
		<route edges="16 248"/>
	</vehicle>
	<vehicle depart="0.1" departLane="0" departPos="51.50419903262636" departSpeed="0.0" id="38" type="passenger">
		<route edges="14 17"/>
	</vehicle>
	<vehicle depart="0.1" departLane="0" departPos="46.808067483374295" departSpeed="0.0" id="312" type="passenger">
		<route edges="156 20"/>
	</vehicle>
	<vehicle depart="0.1" departLane="0" departPos="44.33895066623721" departSpeed="0.0" id="313" type="passenger">
		<route edges="14 17"/>
	</vehicle>
	<vehicle depart="0.1" departLane="0" departPos="60.42670310115261" departSpeed="0.0" id="315" type="passenger">
		<route edges="156 20"/>
	</vehicle>
	<vehicle depart="0.1" departLane="0" departPos="70.27087465106331" departSpeed="0.0" id="316" type="passenger">
		<route edges="121 300"/>
	</vehicle>
	<vehicle depart="0.1" departLane="0" departPos="53.852120670434296" departSpeed="0.0" id="321" type="passenger">
		<route edges="121 300"/>
	</vehicle>
	<vehicle depart="0.1" departLane="0" departPos="8.202051072484213" departSpeed="5.7669655" id="323" type="passenger">
		<route edges=":60_5 19 16 248"/>
	</vehicle>
	<vehicle depart="0.1" departLane="0" departPos="37.550607845464" departSpeed="0.0" id="326" type="passenger">
		<route edges="121 300"/>
	</vehicle>
	<vehicle depart="0.1" departLane="0" departPos="42.48473226526231" departSpeed="10.135962" id="328" type="passenger">
		<route edges="301 304"/>
	</vehicle>
	<vehicle depart="0.1" departLane="0" departPos="32.51377589090801" departSpeed="0.0" id="331" type="passenger">
		<route edges="14 17"/>
	</vehicle>
	<vehicle depart="0.1" departLane="0" departPos="172.9993678499502" departSpeed="4.1309355" id="332" type="passenger">
		<route edges="57 19"/>
	</vehicle>
	<vehicle depart="0.1" departLane="0" departPos="30.09778535211871" departSpeed="0.0" id="334" type="passenger">
		<route edges="121 300"/>
	</vehicle>
	<vehicle depart="0.1" departLane="0" departPos="53.89734706645573" departSpeed="0.0" id="336" type="passenger">
		<route edges="184 156"/>
	</vehicle>
	<vehicle depart="0.1" departLane="0" departPos="25.099681914246162" departSpeed="0.0" id="338" type="passenger">
		<route edges="14 17"/>
	</vehicle>
	<vehicle depart="0.1" departLane="0" departPos="54.21755263967376" departSpeed="0.0" id="341" type="passenger">
		<route edges="303 120"/>
	</vehicle>
	<vehicle depart="0.1" departLane="0" departPos="163.9248067928348" departSpeed="2.7199276" id="342" type="passenger">
		<route edges="57 19"/>
	</vehicle>
	<vehicle depart="0.1" departLane="0" departPos="25.211575857303302" departSpeed="2.8669242e-05" id="343" type="passenger">
		<route edges="156 20"/>
	</vehicle>
	<vehicle depart="0.1" departLane="0" departPos="46.562131918839725" departSpeed="0.0" id="344" type="passenger">
		<route edges="184 156"/>
	</vehicle>
	<vehicle depart="0.1" departLane="0" departPos="22.978061819659576" departSpeed="5.7298509e-05" id="345" type="passenger">
		<route edges="121 300"/>
	</vehicle>
	<vehicle depart="0.1" departLane="0" departPos="10.145919597746582" departSpeed="6.0807998" id="347" type="passenger">
		<route edges="20 301 304"/>
	</vehicle>
	<vehicle depart="0.1" departLane="0" departPos="17.685615440447798" departSpeed="0.0" id="348" type="passenger">
		<route edges="14 17"/>
	</vehicle>
	<vehicle depart="0.1" departLane="0" departPos="20.90633446256956" departSpeed="0.0" id="349" type="passenger">
		<route edges="159 183"/>
	</vehicle>
	<vehicle depart="0.1" departLane="0" departPos="39.0988647424739" departSpeed="1.0237172e-05" id="350" type="passenger">
		<route edges="184 156"/>
	</vehicle>
	<vehicle depart="0.1" departLane="0" departPos="47.115745313625496" departSpeed="0.0" id="351" type="passenger">
		<route edges="303 120"/>
	</vehicle>
	<vehicle depart="0.1" departLane="0" departPos="13.996806644434711" departSpeed="0.0" id="352" type="passenger">
		<route edges="159 156 20"/>
	</vehicle>
	<vehicle depart="0.1" departLane="0" departPos="155.35316492973976" departSpeed="1.6693421" id="353" type="passenger">
		<route edges="57 19"/>
	</vehicle>
	<vehicle depart="0.1" departLane="0" departPos="70.23812499354024" departSpeed="0.0" id="354" type="passenger">
		<route edges="110 17 20 56"/>
	</vehicle>
	<vehicle depart="0.1" departLane="0" departPos="32.0355272559481" departSpeed="9.9089139e-05" id="355" type="passenger">
		<route edges="184 156"/>
	</vehicle>
	<vehicle depart="0.1" departLane="0" departPos="16.165070933100978" departSpeed="0.0002789191" id="356" type="passenger">
		<route edges="121 300"/>
	</vehicle>
	<vehicle depart="0.1" departLane="0" departPos="146.80846769497134" departSpeed="1.4890009" id="357" type="passenger">
		<route edges="57 19"/>
	</vehicle>
	<vehicle depart="0.1" departLane="0" departPos="10.356962668109343" departSpeed="6.9621259e-05" id="359" type="passenger">
		<route edges="14 17"/>
	</vehicle>
	<vehicle depart="0.1" departLane="0" departPos="25.06672003075708" departSpeed="0.0005416157" id="360" type="passenger">
		<route edges="184 156"/>
	</vehicle>
	<vehicle depart="0.1" departLane="0" departPos="137.43843334593538" departSpeed="2.3417563" id="361" type="passenger">
		<route edges="57 19"/>
	</vehicle>
	<vehicle depart="0.1" departLane="0" departPos="63.29827590933739" departSpeed="0.092098614" id="362" type="passenger">
		<route edges="110 17 20 56"/>
	</vehicle>
	<vehicle depart="0.1" departLane="0" departPos="40.413983230581096" departSpeed="5.6135861e-05" id="364" type="passenger">
		<route edges="303 120"/>
	</vehicle>
	<vehicle depart="0.1" departLane="0" departPos="17.885617521525916" departSpeed="0.0023710821" id="365" type="passenger">
		<route edges="184 156"/>
	</vehicle>
	<vehicle depart="0.1" departLane="0" departPos="9.395973960916006" departSpeed="0.0010271532" id="366" type="passenger">
		<route edges="121 300"/>
	</vehicle>
	<vehicle depart="0.1" departLane="0" departPos="56.03313863549969" departSpeed="0.17079926" id="367" type="passenger">
		<route edges="110 248"/>
	</vehicle>
	<vehicle depart="0.1" departLane="0" departPos="33.311555059672536" departSpeed="0.00077428274" id="368" type="passenger">
		<route edges="303 120"/>
	</vehicle>
	<vehicle depart="0.1" departLane="0" departPos="119.84882481260672" departSpeed="7.2177548" id="369" type="passenger">
		<route edges="57 19"/>
	</vehicle>
	<vehicle depart="0.1" departLane="0" departPos="25.838770026693428" departSpeed="0.0053921798" id="370" type="passenger">
		<route edges="303 120"/>
	</vehicle>
	<vehicle depart="0.1" departLane="0" departPos="48.343596400523545" departSpeed="0.56691757" id="371" type="passenger">
		<route edges="110 248"/>
	</vehicle>
	<vehicle depart="0.1" departLane="0" departPos="97.47928404951654" departSpeed="10.790389" id="374" type="passenger">
		<route edges="57 19"/>
	</vehicle>
	<vehicle depart="0.1" departLane="0" departPos="40.00442483091156" departSpeed="1.2947848" id="375" type="passenger">
		<route edges="110 248"/>
	</vehicle>
	<vehicle depart="0.1" departLane="0" departPos="18.631721082669667" departSpeed="0.026317818" id="376" type="passenger">
		<route edges="303 120"/>
	</vehicle>
	<vehicle depart="0.1" departLane="0" departPos="70.6048999305076" departSpeed="13.892291" id="377" type="passenger">
		<route edges="57 19"/>
	</vehicle>
	<vehicle depart="0.1" departLane="0" departPos="2.5" departSpeed="10.887375" id="378" type="passenger">
		<route edges=":55_0 20 301 304"/>
	</vehicle>
	<vehicle depart="0.1" departLane="0" departPos="30.500319209243965" departSpeed="1.9489137" id="379" type="passenger">
		<route edges="110 248"/>
	</vehicle>
	<vehicle depart="0.1" departLane="0" departPos="40.08112216913934" departSpeed="14.543463" id="381" type="passenger">
		<route edges="57 19"/>
	</vehicle>
	<vehicle depart="0.1" departLane="0" departPos="15.331211975564667" departSpeed="10.774855" id="383" type="passenger">
		<route edges="57 19"/>
	</vehicle>
	<vehicle depart="0.1" departLane="0" departPos="6.304019444792991" departSpeed="5.5168128" id="384" type="passenger">
		<route edges=":59_7 17 20 301 304"/>
	</vehicle>
	<vehicle depart="0.1" departLane="0" departPos="15.009475672501136" departSpeed="7.6102495" id="386" type="passenger">
		<route edges=":57_4 57 19"/>
	</vehicle>
	<vehicle depart="0.1" departLane="0" departPos="2.5" departSpeed="3.6648356" id="387" type="passenger">
		<route edges=":57_4 57 19"/>
	</vehicle>
	<vehicle depart="0.1" departLane="0" departPos="5.31927745425784" departSpeed="0.88655298" id="388" type="passenger">
		<route edges="110 248"/>
	</vehicle>
	<vehicle depart="0.1" departLane="0" departPos="37.176094029762595" departSpeed="0.0" id="322" type="motorcycle">
		<route edges="14 17"/>
	</vehicle>
	<vehicle depart="0.1" departLane="0" departPos="58.73244272997354" departSpeed="0.0" id="333" type="motorcycle">
		<route edges="184 156"/>
	</vehicle>
	<vehicle depart="0.1" departLane="0" departPos="49.73662224235336" departSpeed="17.33293" id="337" type="motorcycle">
		<route edges="157 160"/>
	</vehicle>
	<vehicle depart="0.1" departLane="0" departPos="3.514176300576659" departSpeed="9.2074633" id="340" type="motorcycle">
		<route edges="56 1131"/>
	</vehicle>
	<vehicle depart="0.1" departLane="0" departPos="6.687127171384834" departSpeed="0.0" id="358" type="motorcycle">
		<route edges="159 156 20"/>
	</vehicle>
	<vehicle depart="0.1" departLane="0" departPos="63.29688626927248" departSpeed="0.0" id="319" type="truck">
		<route edges="121 300"/>
	</vehicle>
	<vehicle depart="0.1" departLane="0" departPos="47.151321104502124" departSpeed="0.0" id="324" type="truck">
		<route edges="121 300"/>
	</vehicle>
</routes>
