<routes>
	<vehicle depart="0.1" departLane="0" departPos="14.643154631791143" departSpeed="1.9237892" id="33" type="passenger">
		<route edges=":147_5 40486"/>
	</vehicle>
	<vehicle depart="0.1" departLane="0" departPos="8.376997318952814" departSpeed="2.8870558" id="36" type="passenger">
		<route edges=":147_5 40486"/>
	</vehicle>
	<vehicle depart="0.1" departLane="0" departPos="2.5" departSpeed="1.5025237" id="337" type="passenger">
		<route edges="40485 40482"/>
	</vehicle>
	<vehicle depart="0.1" departLane="0" departPos="22.166977454875227" departSpeed="0.0" id="352" type="passenger">
		<route edges="40486 41014"/>
	</vehicle>
	<vehicle depart="0.1" departLane="0" departPos="24.981338483559725" departSpeed="8.484433" id="366" type="passenger">
		<route edges=":147_4 40467 40649"/>
	</vehicle>
	<vehicle depart="0.1" departLane="0" departPos="13.321112988470164" departSpeed="2.2187987" id="381" type="passenger">
		<route edges="40483 40486"/>
	</vehicle>
	<vehicle depart="0.1" departLane="0" departPos="30.30027140042901" departSpeed="1.4217491" id="386" type="passenger">
		<route edges=":146_3 40485 40482"/>
	</vehicle>
	<vehicle depart="0.1" departLane="0" departPos="29.35994533417055" departSpeed="1.5388551" id="389" type="passenger">
		<route edges="41398 40483 40467"/>
	</vehicle>
	<vehicle depart="0.1" departLane="0" departPos="16.196038409959165" departSpeed="3.6661995" id="334" type="motorcycle">
		<route edges="40485 40482 41382 40479"/>
	</vehicle>
</routes>
