<routes>
	<vehicle depart="0.1" departLane="0" departPos="9.697355972098814" departSpeed="4.5385197" id="34" type="passenger">
		<route edges=":13_1 21992"/>
	</vehicle>
	<vehicle depart="0.1" departLane="1" departPos="40.09111943401393" departSpeed="3.8279362" id="316" type="passenger">
		<route edges="22288 21992"/>
	</vehicle>
	<vehicle depart="0.1" departLane="1" departPos="30.417257046498644" departSpeed="2.8510972" id="318" type="passenger">
		<route edges="22288 21992"/>
	</vehicle>
	<vehicle depart="0.1" departLane="0" departPos="4.702836410438868" departSpeed="3.9219802" id="321" type="passenger">
		<route edges=":13_2 22290"/>
	</vehicle>
	<vehicle depart="0.1" departLane="0" departPos="64.96477555645097" departSpeed="2.6932751" id="328" type="passenger">
		<route edges="21991 22290"/>
	</vehicle>
	<vehicle depart="0.1" departLane="0" departPos="51.52751696048136" departSpeed="2.3405573" id="331" type="passenger">
		<route edges="21991 22986"/>
	</vehicle>
	<vehicle depart="0.1" departLane="0" departPos="29.301760498591385" departSpeed="1.7650014" id="339" type="passenger">
		<route edges=":13_1 21992"/>
	</vehicle>
	<vehicle depart="0.1" departLane="0" departPos="2.5" departSpeed="11.650945" id="340" type="passenger">
		<route edges="22290"/>
	</vehicle>
	<vehicle depart="0.1" departLane="1" departPos="53.23320453066456" departSpeed="4.4040991" id="39" type="motorcycle">
		<route edges="22288 21992"/>
	</vehicle>
	<vehicle depart="0.1" departLane="0" departPos="14.34594527892525" departSpeed="11.642609" id="338" type="motorcycle">
		<route edges="22290"/>
	</vehicle>
</routes>
