<!-- generated on Tue Feb  9 22:04:20 2021 by Eclipse SUMO netconvert Version 1.8.0
<configuration xmlns:xsi="http://www.w3.org/2001/XMLSchema-instance" xsi:noNamespaceSchemaLocation="http://sumo.dlr.de/xsd/netconvertConfiguration.xsd">

    <input>
        <node-files value="./converted_scenarios/scenario-factory/DEU_Guetersloh-7_1_I-1-1/DEU_Guetersloh-7_1_I-1-1.nod.xml"/>
        <edge-files value="./converted_scenarios/scenario-factory/DEU_Guetersloh-7_1_I-1-1/DEU_Guetersloh-7_1_I-1-1.edg.xml"/>
        <connection-files value="./converted_scenarios/scenario-factory/DEU_Guetersloh-7_1_I-1-1/DEU_Guetersloh-7_1_I-1-1.con.xml"/>
        <tllogic-files value="./converted_scenarios/scenario-factory/DEU_Guetersloh-7_1_I-1-1/DEU_Guetersloh-7_1_I-1-1.tll.xml"/>
        <type-files value="/home/zen/commonroad-interactive-benchmarks/install/commonroad-map-tool/crmapconverter/sumo_map/templates/DEU.typ.xml"/>
    </input>

    <output>
        <output-file value="./converted_scenarios/scenario-factory/DEU_Guetersloh-7_1_I-1-1/DEU_Guetersloh-7_1_I-1-1.net.xml"/>
    </output>

    <processing>
        <geometry.remove.keep-edges.explicit value="true"/>
        <geometry.avoid-overlap value="true"/>
        <offset.disable-normalization value="true"/>
    </processing>

    <junctions>
        <no-turnarounds value="true"/>
        <junctions.internal-link-detail value="20"/>
    </junctions>

    <report>
        <aggregate-warnings value="5"/>
    </report>

    <random_number>
        <seed value="1234"/>
    </random_number>

</configuration>
--><net xmlns:xsi="http://www.w3.org/2001/XMLSchema-instance" version="1.6" junctionCornerDetail="5" junctionLinkDetail="20" limitTurnSpeed="5.50" xsi:noNamespaceSchemaLocation="http://sumo.dlr.de/xsd/net_file.xsd">

    <location netOffset="0.00,0.00" convBoundary="-975.86,582.09,-643.40,853.95" origBoundary="-975.86,582.09,-643.40,853.95" projParameter="!"/>

    <type id="highway.bridleway" priority="1" speed="2.78" allow="pedestrian" oneway="1" width="2.00"/>
    <type id="highway.bus_guideway" priority="1" speed="27.78" allow="bus" oneway="1"/>
    <type id="highway.cycleway" priority="1" speed="8.33" allow="bicycle" oneway="0" width="1.00"/>
    <type id="highway.footway" priority="1" speed="2.78" allow="pedestrian" oneway="1" width="2.00"/>
    <type id="highway.ford" priority="1" speed="2.78" allow="army" oneway="0"/>
    <type id="highway.living_street" priority="2" speed="2.78" disallow="tram rail_urban rail rail_electric rail_fast ship" oneway="0"/>
    <type id="highway.motorway" priority="14" speed="39.44" allow="private emergency authority army vip passenger hov taxi bus coach delivery truck trailer motorcycle evehicle custom1 custom2" oneway="1"/>
    <type id="highway.motorway_link" priority="9" speed="22.22" allow="private emergency authority army vip passenger hov taxi bus coach delivery truck trailer motorcycle evehicle custom1 custom2" oneway="1"/>
    <type id="highway.path" priority="1" speed="2.78" allow="pedestrian bicycle" oneway="0" width="2.00"/>
    <type id="highway.pedestrian" priority="1" speed="2.78" allow="pedestrian" oneway="1" width="2.00"/>
    <type id="highway.primary" priority="12" speed="27.78" disallow="pedestrian tram rail_urban rail rail_electric rail_fast ship" oneway="0"/>
    <type id="highway.primary_link" priority="7" speed="22.22" disallow="pedestrian tram rail_urban rail rail_electric rail_fast ship" oneway="0"/>
    <type id="highway.raceway" priority="15" speed="83.33" allow="vip" oneway="0"/>
    <type id="highway.residential" priority="3" speed="13.89" disallow="pedestrian tram rail_urban rail rail_electric rail_fast ship" oneway="0"/>
    <type id="highway.secondary" priority="11" speed="27.78" disallow="pedestrian tram rail_urban rail rail_electric rail_fast ship" oneway="0"/>
    <type id="highway.secondary_link" priority="6" speed="22.22" disallow="pedestrian tram rail_urban rail rail_electric rail_fast ship" oneway="0"/>
    <type id="highway.service" priority="1" speed="5.56" allow="pedestrian delivery bicycle" oneway="0"/>
    <type id="highway.stairs" priority="1" speed="1.39" allow="pedestrian" oneway="1" width="2.00"/>
    <type id="highway.step" priority="1" speed="1.39" allow="pedestrian" oneway="1" width="2.00"/>
    <type id="highway.steps" priority="1" speed="1.39" allow="pedestrian" oneway="1" width="2.00"/>
    <type id="highway.tertiary" priority="10" speed="22.22" disallow="pedestrian tram rail_urban rail rail_electric rail_fast ship" oneway="0"/>
    <type id="highway.tertiary_link" priority="5" speed="22.22" disallow="pedestrian tram rail_urban rail rail_electric rail_fast ship" oneway="0"/>
    <type id="highway.track" priority="1" speed="5.56" allow="pedestrian motorcycle moped bicycle" oneway="0"/>
    <type id="highway.trunk" priority="13" speed="27.78" disallow="pedestrian bicycle tram rail_urban rail rail_electric rail_fast ship" oneway="0"/>
    <type id="highway.trunk_link" priority="8" speed="22.22" disallow="pedestrian bicycle tram rail_urban rail rail_electric rail_fast ship" oneway="0"/>
    <type id="highway.unclassified" priority="4" speed="13.89" disallow="pedestrian tram rail_urban rail rail_electric rail_fast ship" oneway="0"/>
    <type id="highway.unsurfaced" priority="1" speed="8.33" disallow="tram rail_urban rail rail_electric rail_fast ship" oneway="0"/>
    <type id="railway.highspeed" priority="21" speed="69.44" allow="rail_fast" oneway="1"/>
    <type id="railway.light_rail" priority="19" speed="27.78" allow="rail_urban" oneway="1"/>
    <type id="railway.preserved" priority="16" speed="27.78" allow="rail" oneway="1"/>
    <type id="railway.rail" priority="20" speed="44.44" allow="rail" oneway="1"/>
    <type id="railway.subway" priority="18" speed="27.78" allow="rail_urban" oneway="1"/>
    <type id="railway.tram" priority="17" speed="13.89" allow="tram" oneway="1"/>

    <edge id=":65_0" function="internal">
        <lane id=":65_0_0" index="0" disallow="pedestrian tram rail_urban rail rail_electric rail_fast ship" speed="36.11" length="35.19" width="3.50" shape="-734.38,720.14 -735.46,721.88 -739.62,729.06 -743.44,736.40 -746.95,743.90 -750.15,751.55"/>
    </edge>
    <edge id=":65_1" function="internal">
        <lane id=":65_1_0" index="0" disallow="pedestrian tram rail_urban rail rail_electric rail_fast ship" speed="13.51" length="33.46" width="3.50" shape="-734.38,720.14 -735.07,721.18 -736.54,723.14 -738.23,724.97 -740.12,726.62 -742.22,728.04 -744.47,729.18 -746.86,730.02 -749.31,730.57 -751.79,730.83 -754.26,730.85 -756.72,730.65 -760.29,730.03 -763.77,729.09"/>
    </edge>
    <edge id=":65_2" function="internal">
        <lane id=":65_2_0" index="0" disallow="pedestrian tram rail_urban rail rail_electric rail_fast ship" speed="12.58" length="28.89" width="3.50" shape="-762.78,725.74 -759.64,726.58 -756.48,727.14 -754.35,727.32 -752.22,727.32 -750.09,727.11 -748.00,726.67 -745.98,725.97 -744.07,725.02 -742.29,723.84 -740.68,722.45 -739.22,720.88 -737.94,719.18 -737.35,718.28"/>
    </edge>
    <edge id=":65_3" function="internal">
        <lane id=":65_3_0" index="0" disallow="pedestrian tram rail_urban rail rail_electric rail_fast ship" speed="11.71" length="33.58" width="3.50" shape="-762.78,725.73 -758.96,727.15 -756.55,728.33 -754.29,729.77 -753.24,730.60 -752.25,731.51 -751.34,732.49 -750.52,733.55 -749.81,734.69 -749.22,735.89 -748.74,737.14 -748.40,738.44 -748.17,739.76 -748.06,741.10 -748.14,743.77 -748.56,746.42 -749.25,749.01 -750.15,751.55"/>
    </edge>
    <edge id=":65_4" function="internal">
        <lane id=":65_4_0" index="0" disallow="pedestrian tram rail_urban rail rail_electric rail_fast ship" speed="10.65" length="27.67" width="3.50" shape="-753.41,750.28 -752.63,748.08 -752.04,745.88 -751.69,743.66 -751.62,741.44 -751.71,740.39 -751.89,739.35 -752.17,738.33 -752.54,737.35 -753.00,736.41 -753.56,735.52 -754.21,734.68 -754.94,733.90 -755.74,733.17 -756.58,732.51 -758.48,731.29 -760.51,730.30 -763.77,729.09"/>
    </edge>
    <edge id=":65_5" function="internal">
        <lane id=":65_5_0" index="0" disallow="pedestrian tram rail_urban rail rail_electric rail_fast ship" speed="36.11" length="35.85" width="3.50" shape="-753.41,750.28 -750.15,742.48 -746.58,734.85 -742.68,727.37 -738.46,720.08 -737.35,718.28"/>
    </edge>
    <edge id=":66_0" function="internal">
        <lane id=":66_0_0" index="0" disallow="pedestrian tram rail_urban rail rail_electric rail_fast ship" speed="36.11" length="37.29" width="3.50" shape="-777.21,725.13 -783.21,723.48 -794.29,720.74 -804.43,718.59 -813.58,716.98"/>
    </edge>
    <edge id=":66_1" function="internal">
        <lane id=":66_1_0" index="0" disallow="pedestrian tram rail_urban rail rail_electric rail_fast ship" speed="12.22" length="34.47" width="3.50" shape="-777.21,725.13 -780.98,723.85 -783.39,722.76 -785.69,721.43 -787.80,719.82 -788.76,718.91 -789.65,717.93 -790.44,716.87 -791.14,715.74 -791.74,714.55 -792.22,713.32 -792.59,712.05 -792.86,710.75 -793.09,708.11 -792.98,705.46 -792.58,702.83 -791.59,698.99"/>
    </edge>
    <edge id=":66_2" function="internal">
        <lane id=":66_2_0" index="0" disallow="pedestrian tram rail_urban rail rail_electric rail_fast ship" speed="11.21" length="28.86" width="3.50" shape="-788.24,699.99 -789.12,703.38 -789.45,705.60 -789.55,707.82 -789.35,710.03 -789.14,711.05 -788.84,712.07 -788.45,713.06 -787.98,714.00 -787.42,714.89 -786.78,715.74 -786.06,716.54 -785.30,717.26 -783.53,718.60 -781.60,719.72 -779.54,720.65 -776.22,721.77"/>
    </edge>
    <edge id=":66_3" function="internal">
        <lane id=":66_3_0" index="0" disallow="pedestrian tram rail_urban rail rail_electric rail_fast ship" speed="12.83" length="33.85" width="3.50" shape="-788.24,699.99 -788.64,701.21 -789.99,704.57 -791.13,706.78 -792.45,708.88 -794.01,710.86 -795.81,712.66 -797.84,714.21 -800.07,715.47 -802.46,716.41 -804.93,717.01 -807.43,717.31 -809.94,717.34 -813.58,716.98"/>
    </edge>
    <edge id=":66_4" function="internal">
        <lane id=":66_4_0" index="0" disallow="pedestrian tram rail_urban rail rail_electric rail_fast ship" speed="11.87" length="28.81" width="3.50" shape="-813.07,713.52 -809.88,713.83 -807.74,713.80 -805.63,713.54 -803.55,713.03 -801.57,712.25 -799.72,711.19 -798.03,709.88 -796.53,708.36 -795.22,706.68 -794.09,704.87 -793.12,702.97 -791.92,700.00 -791.59,698.99"/>
    </edge>
    <edge id=":66_5" function="internal">
        <lane id=":66_5_0" index="0" disallow="pedestrian tram rail_urban rail rail_electric rail_fast ship" speed="36.11" length="37.78" width="3.50" shape="-813.07,713.52 -803.77,715.15 -793.51,717.32 -782.32,720.10 -776.22,721.77"/>
    </edge>
    <edge id=":67_0" function="internal">
        <lane id=":67_0_0" index="0" disallow="pedestrian tram rail_urban rail rail_electric rail_fast ship" speed="36.11" length="27.55" width="3.48" shape="-890.19,728.44 -890.46,725.07 -890.61,719.62 -890.47,713.11 -889.34,700.96"/>
    </edge>
    <edge id=":67_1" function="internal">
        <lane id=":67_1_0" index="0" disallow="pedestrian tram rail_urban rail rail_electric rail_fast ship" speed="11.63" length="35.56" width="3.50" shape="-890.19,728.44 -890.31,727.03 -890.37,724.39 -890.17,721.71 -889.63,719.05 -889.20,717.70 -888.65,716.40 -887.97,715.15 -887.16,713.96 -886.23,712.87 -885.18,711.89 -884.05,711.02 -882.85,710.27 -881.60,709.64 -880.29,709.11 -877.71,708.37 -875.07,707.92 -872.43,707.71 -868.55,707.74"/>
    </edge>
    <edge id=":67_2" function="internal">
        <lane id=":67_2_0" index="0" disallow="pedestrian tram rail_urban rail rail_electric rail_fast ship" speed="10.60" length="29.30" width="3.50" shape="-868.71,711.24 -872.09,711.21 -874.34,711.38 -876.56,711.75 -878.73,712.36 -879.78,712.78 -880.80,713.28 -881.76,713.86 -882.66,714.54 -883.49,715.30 -884.23,716.15 -884.88,717.08 -885.43,718.06 -885.87,719.10 -886.23,720.17 -886.69,722.38 -886.86,724.63 -886.81,726.88 -886.72,727.99"/>
    </edge>
    <edge id=":67_3" function="internal">
        <lane id=":67_3_0" index="0" disallow="pedestrian tram rail_urban rail rail_electric rail_fast ship" speed="10.53" length="27.14" width="3.48" shape="-868.71,711.24 -874.91,710.79 -879.85,710.15 -883.51,709.39 -885.88,708.64 -887.02,708.15 -888.10,707.53 -889.05,706.73 -889.73,705.70 -889.34,700.96"/>
    </edge>
    <edge id=":67_4" function="internal">
        <lane id=":67_4_0" index="0" disallow="pedestrian tram rail_urban rail rail_electric rail_fast ship" speed="6.59" length="16.47" width="3.50" shape="-884.82,705.50 -884.45,705.63 -883.51,705.92 -881.48,706.40 -878.31,706.92 -873.99,707.38 -868.55,707.74"/>
    </edge>
    <edge id=":67_5" function="internal">
        <lane id=":67_5_0" index="0" disallow="pedestrian tram rail_urban rail rail_electric rail_fast ship" speed="7.61" length="19.81" width="3.50" shape="-886.69,708.20 -886.98,713.21 -887.11,719.56 -886.96,724.84 -886.72,727.99"/>
    </edge>
    <edge id=":68_0" function="internal">
        <lane id=":68_0_0" index="0" disallow="pedestrian tram rail_urban rail rail_electric rail_fast ship" speed="36.11" length="39.07" width="3.50" shape="-775.92,627.12 -777.82,645.57 -779.87,661.88 -780.45,665.92"/>
    </edge>
    <edge id=":68_1" function="internal">
        <lane id=":68_1_0" index="0" disallow="pedestrian tram rail_urban rail rail_electric rail_fast ship" speed="12.47" length="34.68" width="3.50" shape="-775.92,627.12 -776.26,629.72 -776.80,632.23 -777.59,634.67 -778.67,637.00 -780.06,639.15 -780.88,640.14 -781.77,641.06 -782.73,641.91 -784.84,643.37 -787.14,644.50 -789.56,645.33 -792.07,645.88 -794.61,646.20 -798.46,646.33 -799.74,646.29"/>
    </edge>
    <edge id=":68_2" function="internal">
        <lane id=":68_2_0" index="0" disallow="pedestrian tram rail_urban rail rail_electric rail_fast ship" speed="11.48" length="29.26" width="3.50" shape="-799.60,642.79 -798.49,642.83 -795.08,642.72 -792.89,642.45 -790.75,641.98 -788.71,641.30 -786.80,640.38 -785.05,639.17 -784.29,638.51 -783.56,637.76 -782.91,636.99 -781.74,635.20 -780.84,633.27 -780.16,631.21 -779.70,629.06 -779.41,626.83"/>
    </edge>
    <edge id=":68_3" function="internal">
        <lane id=":68_3_0" index="0" disallow="pedestrian tram rail_urban rail rail_electric rail_fast ship" speed="11.85" length="35.20" width="3.50" shape="-799.60,642.79 -795.70,643.16 -793.09,643.68 -790.52,644.47 -788.07,645.60 -786.85,646.34 -785.73,647.17 -784.68,648.12 -783.72,649.16 -782.88,650.30 -782.15,651.51 -781.55,652.77 -781.05,654.10 -780.40,656.72 -780.10,659.40 -780.09,662.06 -780.45,665.92"/>
    </edge>
    <edge id=":68_4" function="internal">
        <lane id=":68_4_0" index="0" disallow="pedestrian tram rail_urban rail rail_electric rail_fast ship" speed="10.84" length="29.22" width="3.50" shape="-783.91,665.43 -783.60,662.08 -783.61,659.83 -783.86,657.60 -784.40,655.42 -784.79,654.36 -785.28,653.35 -785.86,652.38 -786.53,651.48 -787.29,650.65 -788.12,649.90 -789.03,649.23 -789.99,648.65 -792.03,647.71 -794.18,647.04 -796.38,646.61 -799.74,646.29"/>
    </edge>
    <edge id=":68_5" function="internal">
        <lane id=":68_5_0" index="0" disallow="pedestrian tram rail_urban rail rail_electric rail_fast ship" speed="36.11" length="38.86" width="3.50" shape="-783.91,665.43 -783.34,661.40 -781.30,645.17 -779.41,626.83"/>
    </edge>
    <edge id=":69_0" function="internal">
        <lane id=":69_0_0" index="0" disallow="pedestrian tram rail_urban rail rail_electric rail_fast ship" speed="14.32" length="30.78" width="3.50" shape="-671.89,652.95 -676.07,652.87 -680.16,653.03 -683.21,653.35 -686.23,653.90 -689.19,654.71 -691.10,655.44 -692.94,656.34 -694.67,657.42 -696.26,658.71 -697.67,660.20 -698.85,661.87 -699.35,662.76"/>
    </edge>
    <edge id=":69_1" function="internal">
        <lane id=":69_1_0" index="0" disallow="pedestrian tram rail_urban rail rail_electric rail_fast ship" speed="11.29" length="39.46" width="3.50" shape="-671.89,652.96 -675.00,652.71 -677.99,652.22 -680.91,651.40 -682.31,650.84 -683.66,650.14 -684.91,649.29 -686.05,648.29 -687.02,647.13 -687.80,645.83 -688.37,644.43 -688.73,642.96 -688.90,641.46 -688.91,639.94 -688.79,638.43 -688.23,635.46 -687.36,632.56 -685.66,628.34 -684.33,625.62"/>
    </edge>
    <edge id=":69_2" function="internal">
        <lane id=":69_2_0" index="0" disallow="pedestrian tram rail_urban rail rail_electric rail_fast ship" speed="10.21" length="32.01" width="3.50" shape="-681.21,627.21 -682.37,629.59 -683.87,633.26 -684.62,635.71 -685.11,638.22 -685.22,639.41 -685.22,640.61 -685.11,641.78 -684.86,642.88 -684.47,643.92 -683.93,644.86 -683.25,645.71 -682.43,646.47 -681.49,647.12 -680.45,647.68 -679.37,648.13 -676.94,648.83 -674.41,649.25 -671.83,649.46"/>
    </edge>
    <edge id=":69_3" function="internal">
        <lane id=":69_3_0" index="0" disallow="pedestrian tram rail_urban rail rail_electric rail_fast ship" speed="36.11" length="39.91" width="3.50" shape="-681.21,627.21 -690.28,644.99 -699.35,662.76"/>
    </edge>
    <edge id=":69_4" function="internal">
        <lane id=":69_4_0" index="0" disallow="pedestrian tram rail_urban rail rail_electric rail_fast ship" speed="36.11" length="39.87" width="3.50" shape="-702.45,661.14 -693.40,643.39 -684.33,625.62"/>
    </edge>
    <edge id=":69_5" function="internal">
        <lane id=":69_5_0" index="0" disallow="pedestrian tram rail_urban rail rail_electric rail_fast ship" speed="15.17" length="34.65" width="3.50" shape="-702.45,661.14 -701.86,660.08 -700.49,658.13 -698.87,656.35 -697.03,654.81 -695.04,653.51 -692.95,652.43 -690.77,651.56 -687.48,650.60 -684.12,649.95 -680.75,649.57 -676.28,649.37 -671.83,649.46"/>
    </edge>
    <edge id=":70_0" function="internal">
        <lane id=":70_0_0" index="0" disallow="pedestrian tram rail_urban rail rail_electric rail_fast ship" speed="16.25" length="33.25" width="3.50" shape="-736.27,774.21 -737.35,774.44 -743.64,775.98 -748.75,777.55 -752.72,779.06 -755.57,780.38 -758.29,781.90 -760.79,783.67 -762.25,784.99 -763.52,786.45 -764.54,788.08 -764.92,788.93"/>
    </edge>
    <edge id=":70_1" function="internal">
        <lane id=":70_1_0" index="0" disallow="pedestrian tram rail_urban rail rail_electric rail_fast ship" speed="11.10" length="41.01" width="3.50" shape="-736.27,774.21 -739.36,774.77 -742.47,775.10 -745.63,775.12 -747.29,774.96 -748.93,774.64 -750.57,774.10 -752.17,773.29 -753.62,772.17 -754.82,770.77 -755.70,769.17 -756.27,767.49 -756.57,765.80 -756.67,764.13 -756.62,762.50 -756.44,760.89 -755.86,757.82 -755.03,754.82 -753.50,750.51"/>
    </edge>
    <edge id=":70_2" function="internal">
        <lane id=":70_2_0" index="0" disallow="pedestrian tram rail_urban rail rail_electric rail_fast ship" speed="9.97" length="32.83" width="3.50" shape="-750.24,751.78 -751.56,755.49 -752.26,758.02 -752.77,760.60 -752.92,761.91 -752.97,763.22 -752.91,764.54 -752.70,765.83 -752.31,767.09 -751.71,768.25 -750.88,769.27 -749.86,770.09 -748.70,770.71 -747.46,771.13 -746.17,771.40 -744.87,771.54 -742.24,771.54 -739.62,771.26 -737.04,770.80"/>
    </edge>
    <edge id=":70_3" function="internal">
        <lane id=":70_3_0" index="0" disallow="pedestrian tram rail_urban rail rail_electric rail_fast ship" speed="36.11" length="39.95" width="3.50" shape="-750.24,751.78 -757.57,770.34 -764.92,788.93"/>
    </edge>
    <edge id=":70_4" function="internal">
        <lane id=":70_4_0" index="0" disallow="pedestrian tram rail_urban rail rail_electric rail_fast ship" speed="36.11" length="39.91" width="3.50" shape="-768.17,787.63 -760.83,769.05 -753.50,750.51"/>
    </edge>
    <edge id=":70_5" function="internal">
        <lane id=":70_5_0" index="0" disallow="pedestrian tram rail_urban rail rail_electric rail_fast ship" speed="17.04" length="36.62" width="3.50" shape="-768.17,787.63 -767.69,786.57 -766.50,784.62 -765.04,782.86 -763.37,781.29 -760.61,779.25 -757.64,777.53 -754.54,776.06 -750.28,774.39 -744.82,772.68 -738.15,771.04 -737.04,770.80"/>
    </edge>
    <edge id=":71_0" function="internal">
        <lane id=":71_0_0" index="0" disallow="pedestrian tram rail_urban rail rail_electric rail_fast ship" speed="12.57" length="27.18" width="3.50" shape="-865.40,649.78 -867.40,650.31 -869.33,651.12 -871.12,652.20 -872.74,653.52 -874.17,655.05 -875.41,656.73 -876.48,658.53 -877.78,661.38 -878.80,664.36 -879.57,667.40 -880.15,670.49"/>
    </edge>
    <edge id=":71_1" function="internal">
        <lane id=":71_1_0" index="0" disallow="pedestrian tram rail_urban rail rail_electric rail_fast ship" speed="20.60" length="29.72" width="3.50" shape="-865.49,649.80 -866.37,649.83 -867.43,649.69 -868.66,649.38 -870.02,648.93 -871.50,648.36 -873.08,647.68 -874.73,646.91 -876.43,646.06 -878.16,645.17 -879.89,644.24 -881.61,643.29 -883.30,642.35 -884.92,641.42 -886.46,640.53 -887.90,639.69 -889.21,638.93 -890.37,638.25 -891.37,637.69 -892.17,637.25"/>
    </edge>
    <edge id=":71_2" function="internal">
        <lane id=":71_2_0" index="0" disallow="pedestrian tram rail_urban rail rail_electric rail_fast ship" speed="13.06" length="30.09" width="3.50" shape="-890.29,633.56 -887.55,638.54 -886.29,640.25 -884.86,641.82 -883.27,643.23 -881.51,644.43 -879.62,645.39 -877.62,646.12 -875.55,646.60 -873.44,646.86 -871.32,646.92 -868.14,646.68 -866.07,646.35"/>
    </edge>
    <edge id=":71_3" function="internal">
        <lane id=":71_3_0" index="0" disallow="pedestrian tram rail_urban rail rail_electric rail_fast ship" speed="23.81" length="38.87" width="3.50" shape="-890.29,633.56 -886.30,641.75 -884.18,646.83 -882.34,652.03 -881.15,656.28 -880.29,660.60 -879.92,663.89 -879.85,667.19 -880.15,670.49"/>
    </edge>
    <edge id=":71_4" function="internal">
        <lane id=":71_4_0" index="0" disallow="pedestrian tram rail_urban rail rail_electric rail_fast ship" speed="36.11" length="2.51" width="3.50" shape="-883.60,669.90 -883.38,667.40"/>
    </edge>
    <edge id=":71_5" function="internal">
        <lane id=":71_5_0" index="0" disallow="pedestrian tram rail_urban rail rail_electric rail_fast ship" speed="13.50" length="31.47" width="3.50" shape="-883.61,669.95 -882.95,666.49 -882.07,663.09 -880.90,659.74 -879.37,656.51 -878.10,654.43 -876.60,652.48 -874.88,650.71 -872.92,649.17 -870.76,647.92 -868.45,646.97 -866.07,646.35"/>
    </edge>
    <edge id=":73_0" function="internal">
        <lane id=":73_0_0" index="0" disallow="pedestrian tram rail_urban rail rail_electric rail_fast ship" speed="8.60" length="18.35" width="3.50" shape="-889.88,704.33 -889.84,703.72 -890.09,703.07 -890.60,702.48 -891.29,701.96 -892.12,701.50 -893.05,701.10 -894.02,700.76 -896.16,700.20 -898.34,699.81 -901.73,699.42 -906.29,699.16"/>
    </edge>
    <edge id=":73_1" function="internal">
        <lane id=":73_1_0" index="0" disallow="pedestrian tram rail_urban rail rail_electric rail_fast ship" speed="36.11" length="23.45" width="3.50" shape="-889.88,704.33 -889.23,698.96 -888.03,692.71 -885.55,681.30"/>
    </edge>
    <edge id=":73_2" function="internal">
        <lane id=":73_2_0" index="0" disallow="pedestrian tram rail_urban rail rail_electric rail_fast ship" speed="8.84" length="23.01" width="3.37" shape="-882.11,681.96 -884.58,693.30 -885.76,699.42 -886.40,704.55"/>
    </edge>
    <edge id=":73_3" function="internal">
        <lane id=":73_3_0" index="0" disallow="pedestrian tram rail_urban rail rail_electric rail_fast ship" speed="12.84" length="32.85" width="3.50" shape="-882.11,681.96 -882.69,684.39 -883.51,686.78 -884.59,689.08 -885.97,691.25 -887.66,693.22 -889.62,694.92 -891.80,696.31 -894.12,697.39 -896.52,698.18 -898.98,698.71 -902.65,699.12 -906.29,699.16"/>
    </edge>
    <edge id=":73_4" function="internal">
        <lane id=":73_4_0" index="0" disallow="pedestrian tram rail_urban rail rail_electric rail_fast ship" speed="11.86" length="27.93" width="3.50" shape="-906.25,695.66 -902.98,695.63 -899.78,695.28 -897.69,694.84 -895.64,694.18 -893.69,693.30 -891.87,692.16 -890.24,690.77 -888.83,689.15 -887.67,687.35 -886.75,685.42 -886.05,683.39 -885.55,681.30"/>
    </edge>
    <edge id=":73_5" function="internal">
        <lane id=":73_5_0" index="0" disallow="pedestrian tram rail_urban rail rail_electric rail_fast ship" speed="6.86" length="17.56" width="3.37" shape="-906.25,695.66 -900.90,695.99 -896.95,696.52 -894.36,697.07 -891.82,697.87 -890.61,698.39 -889.44,699.03 -889.24,699.19"/>
    </edge>

    <edge id="60754" from="62" to="73" priority="3" type="highway.residential" spreadType="center" length="70.00" shape="-975.77,702.33 -892.91,692.76">
        <lane id="60754_0" index="0" disallow="pedestrian tram rail_urban rail rail_electric rail_fast ship" speed="36.11" length="70.00" width="3.50" customShape="1" shape="-975.77,702.33 -959.48,699.82 -944.98,697.78 -933.94,696.58 -923.87,695.85 -914.78,695.56 -906.20,695.66"/>
    </edge>
    <edge id="60755" from="73" to="57" priority="3" type="highway.residential" spreadType="center" length="70.01" shape="-892.50,696.23 -975.86,705.88">
        <lane id="60755_0" index="0" disallow="pedestrian tram rail_urban rail rail_electric rail_fast ship" speed="36.11" length="70.01" width="3.50" customShape="1" shape="-906.29,699.16 -914.80,699.06 -923.79,699.35 -933.77,700.08 -944.73,701.28 -959.15,703.31 -975.86,705.88"/>
    </edge>
    <edge id="60833" from="68" to="71" priority="3" type="highway.residential" spreadType="center" length="65.97" shape="-786.33,647.48 -876.74,656.21">
        <lane id="60833_0" index="0" disallow="pedestrian tram rail_urban rail rail_electric rail_fast ship" speed="36.11" length="65.97" width="3.50" customShape="1" shape="-799.74,646.29 -802.76,646.17 -813.81,645.93 -826.38,646.06 -836.93,646.52 -848.95,647.47 -857.44,648.47 -865.49,649.80"/>
    </edge>
    <edge id="60834" from="71" to="68" priority="3" type="highway.residential" spreadType="center" length="66.72" shape="-877.08,652.73 -786.67,644.00">
        <lane id="60834_0" index="0" disallow="pedestrian tram rail_urban rail rail_electric rail_fast ship" speed="36.11" length="66.72" width="3.50" customShape="1" shape="-866.07,646.35 -857.97,645.01 -849.36,643.99 -837.19,643.03 -826.52,642.56 -813.81,642.43 -802.64,642.67 -799.57,642.79"/>
    </edge>
    <edge id="60864" from="53" to="69" priority="3" type="highway.residential" spreadType="center" length="28.45" shape="-643.54,652.97 -685.46,648.25">
        <lane id="60864_0" index="0" disallow="pedestrian tram rail_urban rail rail_electric rail_fast ship" speed="36.11" length="28.45" width="3.50" customShape="1" shape="-643.54,652.97 -649.64,652.80 -665.38,653.07 -671.98,652.95"/>
    </edge>
    <edge id="60865" from="69" to="42" priority="3" type="highway.residential" spreadType="center" length="28.44" shape="-685.07,644.78 -643.40,649.47">
        <lane id="60865_0" index="0" disallow="pedestrian tram rail_urban rail rail_electric rail_fast ship" speed="36.11" length="28.44" width="3.50" customShape="1" shape="-671.83,649.46 -665.30,649.57 -649.53,649.30 -643.40,649.47"/>
    </edge>
    <edge id="60897" from="37" to="70" priority="3" type="highway.residential" spreadType="center" length="69.99" shape="-668.73,756.12 -751.40,772.37">
        <lane id="60897_0" index="0" disallow="pedestrian tram rail_urban rail rail_electric rail_fast ship" speed="36.11" length="69.99" width="3.50" customShape="1" shape="-668.73,756.12 -674.37,757.59 -711.79,768.21 -724.99,771.65 -736.33,774.22"/>
    </edge>
    <edge id="60898" from="70" to="29" priority="3" type="highway.residential" spreadType="center" length="70.00" shape="-752.07,768.93 -669.44,752.69">
        <lane id="60898_0" index="0" disallow="pedestrian tram rail_urban rail rail_electric rail_fast ship" speed="36.11" length="70.00" width="3.50" customShape="1" shape="-737.04,770.80 -725.77,768.23 -712.63,764.81 -675.25,754.21 -669.44,752.69"/>
    </edge>
    <edge id="60938" from="68" to="66" priority="3" type="highway.residential" spreadType="center" length="35.01" shape="-784.76,645.87 -791.58,712.91">
        <lane id="60938_0" index="0" disallow="pedestrian tram rail_urban rail rail_electric rail_fast ship" speed="36.11" length="35.01" width="3.50" customShape="1" shape="-780.45,665.92 -781.84,674.59 -783.45,682.67 -785.45,690.66 -788.24,700.01"/>
    </edge>
    <edge id="60939" from="66" to="68" priority="3" type="highway.residential" spreadType="center" length="34.54" shape="-795.06,712.56 -788.24,645.52">
        <lane id="60939_0" index="0" disallow="pedestrian tram rail_urban rail rail_electric rail_fast ship" speed="36.11" length="34.54" width="3.50" customShape="1" shape="-791.59,698.99 -788.83,689.75 -786.86,681.90 -785.28,673.96 -783.90,665.36"/>
    </edge>
    <edge id="60941" from="43" to="68" priority="3" type="highway.residential" spreadType="center" length="41.63" shape="-774.30,585.62 -784.79,646.09">
        <lane id="60941_0" index="0" disallow="pedestrian tram rail_urban rail rail_electric rail_fast ship" speed="36.11" length="41.63" width="3.50" customShape="1" shape="-774.30,585.62 -774.09,593.74 -774.19,602.37 -774.70,612.51 -775.92,627.18"/>
    </edge>
    <edge id="60942" from="68" to="34" priority="3" type="highway.residential" spreadType="center" length="41.15" shape="-788.23,645.49 -777.80,585.75">
        <lane id="60942_0" index="0" disallow="pedestrian tram rail_urban rail rail_electric rail_fast ship" speed="36.11" length="41.15" width="3.50" customShape="1" shape="-779.41,626.83 -778.20,612.31 -777.69,602.29 -777.59,593.78 -777.80,585.75"/>
    </edge>
    <edge id="60982" from="60" to="71" priority="3" type="highway.residential" spreadType="center" length="5.30" shape="-892.71,628.85 -875.39,653.55">
        <lane id="60982_0" index="0" disallow="pedestrian tram rail_urban rail rail_electric rail_fast ship" speed="36.11" length="5.30" width="3.50" customShape="1" shape="-892.71,628.85 -890.43,633.30 -890.29,633.56"/>
    </edge>