<routes>
	<vehicle depart="0.1" departLane="0" departPos="69.28914358235856" departSpeed="0.18209433" id="31" type="passenger">
		<route edges="1057 1123"/>
	</vehicle>
	<vehicle depart="0.1" departLane="0" departPos="69.91671851324962" departSpeed="0.0" id="316" type="passenger">
		<route edges="1091 1129"/>
	</vehicle>
	<vehicle depart="0.1" departLane="0" departPos="69.92951845281601" departSpeed="0.0" id="319" type="passenger">
		<route edges="1144 1124"/>
	</vehicle>
	<vehicle depart="0.1" departLane="0" departPos="15.557214473200894" departSpeed="1.3489916" id="334" type="passenger">
		<route edges=":63_5 1126 1123"/>
	</vehicle>
	<vehicle depart="0.1" departLane="0" departPos="68.38131294193083" departSpeed="1.1576175" id="335" type="passenger">
		<route edges="1142 1126"/>
	</vehicle>
	<vehicle depart="0.1" departLane="0" departPos="2.5" departSpeed="10.775829" id="377" type="passenger">
		<route edges=":61_1 1127 1130"/>
	</vehicle>
	<vehicle depart="0.1" departLane="0" departPos="6.824054381060237" departSpeed="9.6293951" id="380" type="passenger">
		<route edges=":64_1 1124 1058"/>
	</vehicle>
	<vehicle depart="0.1" departLane="0" departPos="35.814365888365295" departSpeed="10.511412" id="381" type="passenger">
		<route edges=":62_0 1121 1124"/>
	</vehicle>
	<vehicle depart="0.1" departLane="0" departPos="35.660354142543554" departSpeed="0.0" id="337" type="truck">
		<route edges="1132 1090"/>
	</vehicle>
</routes>
