<routes>
	<vehicle depart="0.1" departLane="0" departPos="53.281941496382935" departSpeed="0.0" id="34" type="passenger">
		<route edges="12 14"/>
	</vehicle>
	<vehicle depart="0.1" departLane="0" departPos="46.931072357820504" departSpeed="0.0" id="39" type="passenger">
		<route edges="12 14"/>
	</vehicle>
	<vehicle depart="0.1" departLane="0" departPos="21.355636743479476" departSpeed="10.414436" id="310" type="passenger">
		<route edges="14"/>
	</vehicle>
	<vehicle depart="0.1" departLane="0" departPos="9.076270180650969" departSpeed="5.9138047" id="313" type="passenger">
		<route edges=":17_1 14"/>
	</vehicle>
	<vehicle depart="0.1" departLane="0" departPos="40.67257857348597" departSpeed="0.0" id="315" type="passenger">
		<route edges="12 14"/>
	</vehicle>
	<vehicle depart="0.1" departLane="0" departPos="127.78878734985271" departSpeed="7.8506974" id="316" type="passenger">
		<route edges="3 14"/>
	</vehicle>
	<vehicle depart="0.1" departLane="0" departPos="34.238382182652686" departSpeed="6.980691e-05" id="317" type="passenger">
		<route edges="12 14"/>
	</vehicle>
	<vehicle depart="0.1" departLane="0" departPos="27.61144964838398" departSpeed="0.00061491376" id="321" type="passenger">
		<route edges="12 14"/>
	</vehicle>
	<vehicle depart="0.1" departLane="0" departPos="66.46880889839632" departSpeed="19.879572" id="322" type="passenger">
		<route edges="3 14"/>
	</vehicle>
	<vehicle depart="0.1" departLane="0" departPos="21.32855345412283" departSpeed="0.0036210453" id="323" type="passenger">
		<route edges="12 14"/>
	</vehicle>
	<vehicle depart="0.1" departLane="0" departPos="40.03025838131528" departSpeed="19.570062" id="325" type="passenger">
		<route edges="3 14"/>
	</vehicle>
	<vehicle depart="0.1" departLane="0" departPos="11.670858879134338" departSpeed="17.602578" id="326" type="passenger">
		<route edges="3 14"/>
	</vehicle>
	<vehicle depart="0.1" departLane="0" departPos="10.58398516156204" departSpeed="0.055369958" id="328" type="passenger">
		<route edges="12 14"/>
	</vehicle>
	<vehicle depart="0.1" departLane="0" departPos="33.81577858882059" departSpeed="9.3058617" id="329" type="passenger">
		<route edges="1 3 14"/>
	</vehicle>
	<vehicle depart="0.1" departLane="0" departPos="14.968565254466249" departSpeed="0.017167838" id="324" type="motorcycle">
		<route edges="12 14"/>
	</vehicle>
	<vehicle depart="0.1" departLane="0" departPos="61.94950633314576" departSpeed="0.0" id="30" type="truck">
		<route edges="12 14"/>
	</vehicle>
</routes>
