<!-- generated on 2020-12-18 16:49:55.190859 by ipykernel_launcher.py v1_2_0+5214-53edc58fcd
-->
<connections/>
