<routes>
	<vehicle depart="0.1" departLane="0" departPos="119.42290926644871" departSpeed="7.1377" id="33" type="passenger">
		<route edges="8"/>
	</vehicle>
	<vehicle depart="0.1" departLane="1" departPos="0" departSpeed="7.1394" id="37" type="passenger">
		<route edges="5 5"/>
	</vehicle>
	<vehicle depart="0.1" departLane="0" departPos="226.23596410951797" departSpeed="15.0273" id="38" type="passenger">
		<route edges="5"/>
	</vehicle>
	<vehicle depart="0.1" departLane="1" departPos="0" departSpeed="7.0612" id="39" type="passenger">
		<route edges="8"/>
	</vehicle>
	<vehicle depart="0.1" departLane="1" departPos="0" departSpeed="7.1256" id="310" type="passenger">
		<route edges="5 5"/>
	</vehicle>
	<vehicle depart="0.1" departLane="0" departPos="0" departSpeed="11.8749" id="311" type="passenger">
		<route edges="5"/>
	</vehicle>
	<vehicle depart="0.1" departLane="1" departPos="0" departSpeed="6.1506" id="312" type="passenger">
		<route edges="8"/>
	</vehicle>
	<vehicle depart="0.1" departLane="0" departPos="0" departSpeed="6.9453" id="313" type="passenger">
		<route edges="8"/>
	</vehicle>
	<vehicle depart="0.1" departLane="1" departPos="0" departSpeed="6.1467" id="314" type="passenger">
		<route edges="8"/>
	</vehicle>
	<vehicle depart="0.1" departLane="1" departPos="0" departSpeed="7.1719" id="315" type="passenger">
		<route edges="5"/>
	</vehicle>
	<vehicle depart="0.1" departLane="0" departPos="0" departSpeed="11.9465" id="316" type="passenger">
		<route edges="5"/>
	</vehicle>
	<vehicle depart="0.1" departLane="0" departPos="0" departSpeed="6.8497" id="317" type="passenger">
		<route edges="8"/>
	</vehicle>
	<vehicle depart="0.1" departLane="1" departPos="0" departSpeed="2.6658" id="318" type="passenger">
		<route edges="8 8"/>
	</vehicle>
	<vehicle depart="0.1" departLane="1" departPos="0" departSpeed="7.0888" id="319" type="passenger">
		<route edges="5"/>
	</vehicle>
	<vehicle depart="0.1" departLane="0" departPos="0" departSpeed="6.5746" id="320" type="passenger">
		<route edges="5"/>
	</vehicle>
	<vehicle depart="0.1" departLane="0" departPos="0" departSpeed="5.1623" id="321" type="passenger">
		<route edges="8"/>
	</vehicle>
	<vehicle depart="0.1" departLane="1" departPos="0" departSpeed="6.5498" id="322" type="passenger">
		<route edges="5 5"/>
	</vehicle>
	<vehicle depart="0.1" departLane="0" departPos="0" departSpeed="3.7894" id="323" type="passenger">
		<route edges="5"/>
	</vehicle>
	<vehicle depart="0.1" departLane="1" departPos="0" departSpeed="2.8009" id="324" type="passenger">
		<route edges="8 8"/>
	</vehicle>
	<vehicle depart="0.1" departLane="0" departPos="0" departSpeed="4.8772" id="326" type="passenger">
		<route edges="8"/>
	</vehicle>
	<vehicle depart="0.1" departLane="0" departPos="0" departSpeed="3.0915" id="327" type="passenger">
		<route edges="8 8"/>
	</vehicle>
	<vehicle depart="0.1" departLane="0" departPos="0" departSpeed="1.3191" id="328" type="passenger">
		<route edges="8"/>
	</vehicle>
</routes>
