<routes>
	<vehicle depart="0.1" departLane="0" departPos="12.5" departSpeed="0.0" id="2" type="passenger">
		<route edges="4"/>
	</vehicle>
</routes>
