<?xml version="1.0" encoding="UTF-8"?>

<!-- generated on Fri Dec 18 17:09:31 2020 by Eclipse SUMO netconvert Version 1.8.0
<configuration xmlns:xsi="http://www.w3.org/2001/XMLSchema-instance" xsi:noNamespaceSchemaLocation="http://sumo.dlr.de/xsd/netconvertConfiguration.xsd">

    <input>
        <node-files value="./converted_scenarios/THI-Bicycle/RUS_Bicycle-11_1_I-1-1/nodes.net.xml"/>
        <edge-files value="./converted_scenarios/THI-Bicycle/RUS_Bicycle-11_1_I-1-1/edges.net.xml"/>
        <connection-files value="./converted_scenarios/THI-Bicycle/RUS_Bicycle-11_1_I-1-1/_connections.net.xml"/>
        <tllogic-files value="./converted_scenarios/THI-Bicycle/RUS_Bicycle-11_1_I-1-1/_tll.net.xml"/>
    </input>

    <output>
        <output-file value="./converted_scenarios/THI-Bicycle/RUS_Bicycle-11_1_I-1-1/RUS_Bicycle-11_1_I-1-1.net.xml"/>
    </output>

    <processing>
        <plain.extend-edge-shape value="true"/>
        <geometry.remove.keep-edges.explicit value="true"/>
        <geometry.avoid-overlap value="true"/>
        <offset.disable-normalization value="true"/>
    </processing>

    <junctions>
        <no-turnarounds value="true"/>
        <junctions.internal-link-detail value="20"/>
    </junctions>

    <report>
        <aggregate-warnings value="5"/>
    </report>

    <random_number>
        <seed value="1234"/>
    </random_number>

</configuration>
-->

<net version="1.6" junctionCornerDetail="5" junctionLinkDetail="20" limitTurnSpeed="5.50" xmlns:xsi="http://www.w3.org/2001/XMLSchema-instance" xsi:noNamespaceSchemaLocation="http://sumo.dlr.de/xsd/net_file.xsd">

    <location netOffset="0.00,0.00" convBoundary="0.00,20.10,40.00,23.10" origBoundary="0.00,20.10,40.00,23.10" projParameter="!"/>

    <edge id="3" from="1" to="2" priority="1" spreadType="center" length="40.00">
        <lane id="3_0" index="0" disallow="rail_fast" speed="36.11" length="40.00" width="3.00" customShape="1" shape="0.00,20.10 0.40,20.10 0.81,20.10 1.21,20.10 1.62,20.10 2.02,20.10 2.42,20.10 2.83,20.10 3.23,20.10 3.64,20.10 4.04,20.10 4.44,20.10 4.85,20.10 5.25,20.10 5.66,20.10 6.06,20.10 6.46,20.10 6.87,20.10 7.27,20.10 7.68,20.10 8.08,20.10 8.48,20.10 8.89,20.10 9.29,20.10 9.70,20.10 10.10,20.10 10.51,20.10 10.91,20.10 11.31,20.10 11.72,20.10 12.12,20.10 12.53,20.10 12.93,20.10 13.33,20.10 13.74,20.10 14.14,20.10 14.55,20.10 14.95,20.10 15.35,20.10 15.76,20.10 16.16,20.10 16.57,20.10 16.97,20.10 17.37,20.10 17.78,20.10 18.18,20.10 18.59,20.10 18.99,20.10 19.39,20.10 19.80,20.10 20.20,20.10 20.61,20.10 21.01,20.10 21.41,20.10 21.82,20.10 22.22,20.10 22.63,20.10 23.03,20.10 23.43,20.10 23.84,20.10 24.24,20.10 24.65,20.10 25.05,20.10 25.45,20.10 25.86,20.10 26.26,20.10 26.67,20.10 27.07,20.10 27.47,20.10 27.88,20.10 28.28,20.10 28.69,20.10 29.09,20.10 29.49,20.10 29.90,20.10 30.30,20.10 30.71,20.10 31.11,20.10 31.52,20.10 31.92,20.10 32.32,20.10 32.73,20.10 33.13,20.10 33.54,20.10 33.94,20.10 34.34,20.10 34.75,20.10 35.15,20.10 35.56,20.10 35.96,20.10 36.36,20.10 36.77,20.10 37.17,20.10 37.58,20.10 37.98,20.10 38.38,20.10 38.79,20.10 39.19,20.10 39.60,20.10 40.00,20.10"/>
    </edge>
    <edge id="4" from="3" to="4" priority="1" spreadType="center" length="40.00">
        <lane id="4_0" index="0" disallow="rail_fast" speed="36.11" length="40.00" width="3.00" customShape="1" shape="0.00,23.10 0.40,23.10 0.81,23.10 1.21,23.10 1.62,23.10 2.02,23.10 2.42,23.10 2.83,23.10 3.23,23.10 3.64,23.10 4.04,23.10 4.44,23.10 4.85,23.10 5.25,23.10 5.66,23.10 6.06,23.10 6.46,23.10 6.87,23.10 7.27,23.10 7.68,23.10 8.08,23.10 8.48,23.10 8.89,23.10 9.29,23.10 9.70,23.10 10.10,23.10 10.51,23.10 10.91,23.10 11.31,23.10 11.72,23.10 12.12,23.10 12.53,23.10 12.93,23.10 13.33,23.10 13.74,23.10 14.14,23.10 14.55,23.10 14.95,23.10 15.35,23.10 15.76,23.10 16.16,23.10 16.57,23.10 16.97,23.10 17.37,23.10 17.78,23.10 18.18,23.10 18.59,23.10 18.99,23.10 19.39,23.10 19.80,23.10 20.20,23.10 20.61,23.10 21.01,23.10 21.41,23.10 21.82,23.10 22.22,23.10 22.63,23.10 23.03,23.10 23.43,23.10 23.84,23.10 24.24,23.10 24.65,23.10 25.05,23.10 25.45,23.10 25.86,23.10 26.26,23.10 26.67,23.10 27.07,23.10 27.47,23.10 27.88,23.10 28.28,23.10 28.69,23.10 29.09,23.10 29.49,23.10 29.90,23.10 30.30,23.10 30.71,23.10 31.11,23.10 31.52,23.10 31.92,23.10 32.32,23.10 32.73,23.10 33.13,23.10 33.54,23.10 33.94,23.10 34.34,23.10 34.75,23.10 35.15,23.10 35.56,23.10 35.96,23.10 36.36,23.10 36.77,23.10 37.17,23.10 37.58,23.10 37.98,23.10 38.38,23.10 38.79,23.10 39.19,23.10 39.60,23.10 40.00,23.10"/>
    </edge>

    <junction id="1" type="dead_end" x="0.00" y="20.10" incLanes="" intLanes="" shape="0.00,21.60 0.00,18.60"/>
    <junction id="2" type="dead_end" x="40.00" y="20.10" incLanes="3_0" intLanes="" shape="40.00,18.60 40.00,21.60"/>
    <junction id="3" type="dead_end" x="0.00" y="23.10" incLanes="" intLanes="" shape="0.00,24.60 0.00,21.60"/>
    <junction id="4" type="dead_end" x="40.00" y="23.10" incLanes="4_0" intLanes="" shape="40.00,21.60 40.00,24.60"/>

</net>
