<routes>
	<vehicle depart="0.1" departLane="0" departPos="15.571058228684182" departSpeed="0.40876687" id="33" type="passenger">
		<route edges=":34_11 7395"/>
	</vehicle>
	<vehicle depart="0.1" departLane="0" departPos="15.536027441543931" departSpeed="0.31059919" id="35" type="passenger">
		<route edges="6940 7395"/>
	</vehicle>
	<vehicle depart="0.1" departLane="0" departPos="26.174916199132525" departSpeed="0.92308467" id="315" type="passenger">
		<route edges=":34_2 6908"/>
	</vehicle>
	<vehicle depart="0.1" departLane="0" departPos="36.23813367975287" departSpeed="0.98741137" id="325" type="passenger">
		<route edges=":34_2 6908"/>
	</vehicle>
	<vehicle depart="0.1" departLane="0" departPos="7.572783079240091" departSpeed="0.88251569" id="332" type="passenger">
		<route edges=":34_2 6908"/>
	</vehicle>
	<vehicle depart="0.1" departLane="0" departPos="58.87621526118566" departSpeed="1.6925296" id="335" type="passenger">
		<route edges="7394 6908"/>
	</vehicle>
	<vehicle depart="0.1" departLane="0" departPos="40.625838417297466" departSpeed="16.517412" id="346" type="passenger">
		<route edges=":34_7 7395"/>
	</vehicle>
	<vehicle depart="0.1" departLane="0" departPos="41.343337580329546" departSpeed="11.665921" id="356" type="passenger">
		<route edges="7392 7395"/>
	</vehicle>
	<vehicle depart="0.1" departLane="0" departPos="17.761915510598396" departSpeed="0.59536771" id="327" type="motorcycle">
		<route edges=":34_2 6908"/>
	</vehicle>
</routes>
