<!-- generated on 2020-12-18 16:19:26.456206 by ipykernel_launcher.py v1_2_0+5214-53edc58fcd
-->
<connections>
	<connection contPos="-4.0" from="1022" fromLane="0" keepClear="true" to="1076" toLane="0"/>
	<connection contPos="-4.0" from="1022" fromLane="0" keepClear="true" to="1087" toLane="0"/>
	<connection contPos="-4.0" from="1023" fromLane="0" keepClear="true" to="1062" toLane="0"/>
	<connection contPos="-4.0" from="1023" fromLane="0" keepClear="true" to="1075" toLane="0"/>
	<connection contPos="-4.0" from="1024" fromLane="0" keepClear="true" to="1091" toLane="0"/>
	<connection contPos="-4.0" from="1024" fromLane="0" keepClear="true" to="1071" toLane="0"/>
	<connection contPos="-4.0" from="1026" fromLane="0" keepClear="true" to="1078" toLane="0"/>
	<connection contPos="-4.0" from="1026" fromLane="0" keepClear="true" to="1053" toLane="0"/>
	<connection contPos="-4.0" from="1031" fromLane="2" keepClear="true" to="1056" toLane="0"/>
	<connection contPos="-4.0" from="1031" fromLane="1" keepClear="true" to="1058" toLane="0"/>
	<connection contPos="-4.0" from="1031" fromLane="0" keepClear="true" to="1069" toLane="0"/>
	<connection contPos="-4.0" from="1033" fromLane="0" keepClear="true" to="1061" toLane="0"/>
	<connection contPos="-4.0" from="1033" fromLane="0" keepClear="true" to="1059" toLane="0"/>
	<connection contPos="-4.0" from="1033" fromLane="0" keepClear="true" to="1086" toLane="0"/>
	<connection contPos="-4.0" from="1035" fromLane="0" keepClear="true" to="1082" toLane="0"/>
	<connection contPos="-4.0" from="1035" fromLane="0" keepClear="true" to="1065" toLane="0"/>
	<connection contPos="-4.0" from="1035" fromLane="0" keepClear="true" to="1088" toLane="0"/>
	<connection contPos="-4.0" from="1036" fromLane="0" keepClear="true" to="1052" toLane="0"/>
	<connection contPos="-4.0" from="1036" fromLane="0" keepClear="true" to="1051" toLane="0"/>
	<connection contPos="-4.0" from="1038" fromLane="0" keepClear="true" to="1064" toLane="0"/>
	<connection contPos="-4.0" from="1038" fromLane="0" keepClear="true" to="1079" toLane="0"/>
	<connection contPos="-4.0" from="1038" fromLane="0" keepClear="true" to="1089" toLane="0"/>
	<connection contPos="-4.0" from="1039" fromLane="0" keepClear="true" to="1083" toLane="0"/>
	<connection contPos="-4.0" from="1040" fromLane="0" keepClear="true" to="1084" toLane="0"/>
	<connection contPos="-4.0" from="1042" fromLane="0" keepClear="true" to="1055" toLane="0"/>
	<connection contPos="-4.0" from="1042" fromLane="0" keepClear="true" to="1081" toLane="0"/>
	<connection contPos="-4.0" from="1043" fromLane="0" keepClear="true" to="1085" toLane="0"/>
	<connection contPos="-4.0" from="1043" fromLane="0" keepClear="true" to="1073" toLane="0"/>
	<connection contPos="-4.0" from="1044" fromLane="0" keepClear="true" to="1072" toLane="0"/>
	<connection contPos="-4.0" from="1044" fromLane="0" keepClear="true" to="1054" toLane="0"/>
	<connection contPos="-4.0" from="1045" fromLane="0" keepClear="true" to="1090" toLane="0"/>
	<connection contPos="-4.0" from="1047" fromLane="0" keepClear="true" to="1070" toLane="0"/>
	<connection contPos="-4.0" from="1047" fromLane="0" keepClear="true" to="1080" toLane="0"/>
	<connection contPos="-4.0" from="1047" fromLane="0" keepClear="true" to="1060" toLane="0"/>
	<connection contPos="-4.0" from="1048" fromLane="0" keepClear="true" to="1063" toLane="0"/>
	<connection contPos="-4.0" from="1048" fromLane="0" keepClear="true" to="1068" toLane="0"/>
	<connection contPos="-4.0" from="1049" fromLane="0" keepClear="true" to="1066" toLane="0"/>
	<connection contPos="-4.0" from="1049" fromLane="0" keepClear="true" to="1057" toLane="0"/>
	<connection contPos="-4.0" from="1049" fromLane="0" keepClear="true" to="1077" toLane="0"/>
	<connection contPos="-4.0" from="1050" fromLane="0" keepClear="true" to="1067" toLane="0"/>
	<connection contPos="-4.0" from="1050" fromLane="0" keepClear="true" to="1074" toLane="0"/>
	<connection contPos="-4.0" from="1051" fromLane="0" keepClear="true" to="1039" toLane="0"/>
	<connection contPos="-4.0" from="1052" fromLane="0" keepClear="true" to="1034" toLane="0"/>
	<connection contPos="-4.0" from="1053" fromLane="0" keepClear="true" to="1044" toLane="0"/>
	<connection contPos="-4.0" from="1054" fromLane="0" keepClear="true" to="1034" toLane="0"/>
	<connection contPos="-4.0" from="1055" fromLane="0" keepClear="true" to="1049" toLane="0"/>
	<connection contPos="-4.0" from="1056" fromLane="0" keepClear="true" to="1032" toLane="0"/>
	<connection contPos="-4.0" from="1057" fromLane="0" keepClear="true" to="1032" toLane="0"/>
	<connection contPos="-4.0" from="1058" fromLane="0" keepClear="true" to="1050" toLane="0"/>
	<connection contPos="-4.0" from="1059" fromLane="0" keepClear="true" to="1050" toLane="0"/>
	<connection contPos="-4.0" from="1060" fromLane="0" keepClear="true" to="1050" toLane="0"/>
	<connection contPos="-4.0" from="1061" fromLane="0" keepClear="true" to="1048" toLane="0"/>
	<connection contPos="-4.0" from="1062" fromLane="0" keepClear="true" to="1044" toLane="0"/>
	<connection contPos="-4.0" from="1063" fromLane="0" keepClear="true" to="1023" toLane="0"/>
	<connection contPos="-4.0" from="1064" fromLane="0" keepClear="true" to="1034" toLane="0"/>
	<connection contPos="-4.0" from="1065" fromLane="0" keepClear="true" to="1039" toLane="0"/>
	<connection contPos="-4.0" from="1066" fromLane="0" keepClear="true" to="1048" toLane="0"/>
	<connection contPos="-4.0" from="1067" fromLane="0" keepClear="true" to="1041" toLane="0"/>
	<connection contPos="-4.0" from="1068" fromLane="0" keepClear="true" to="1040" toLane="0"/>
	<connection contPos="-4.0" from="1069" fromLane="0" keepClear="true" to="1048" toLane="0"/>
	<connection contPos="-4.0" from="1070" fromLane="0" keepClear="true" to="1032" toLane="0"/>
	<connection contPos="-4.0" from="1071" fromLane="0" keepClear="true" to="1041" toLane="0"/>
	<connection contPos="-4.0" from="1072" fromLane="0" keepClear="true" to="1039" toLane="0"/>
	<connection contPos="-4.0" from="1073" fromLane="0" keepClear="true" to="1022" toLane="0"/>
	<connection contPos="-4.0" from="1074" fromLane="0" keepClear="true" to="1025" toLane="0"/>
	<connection contPos="-4.0" from="1075" fromLane="0" keepClear="true" to="1027" toLane="0"/>
	<connection contPos="-4.0" from="1076" fromLane="0" keepClear="true" to="1047" toLane="0"/>
	<connection contPos="-4.0" from="1077" fromLane="0" keepClear="true" to="1028" toLane="0"/>
	<connection contPos="-4.0" from="1078" fromLane="0" keepClear="true" to="1022" toLane="0"/>
	<connection contPos="-4.0" from="1079" fromLane="0" keepClear="true" to="1037" toLane="0"/>
	<connection contPos="-4.0" from="1080" fromLane="0" keepClear="true" to="1028" toLane="0"/>
	<connection contPos="-4.0" from="1081" fromLane="0" keepClear="true" to="1025" toLane="0"/>
	<connection contPos="-4.0" from="1082" fromLane="0" keepClear="true" to="1037" toLane="0"/>
	<connection contPos="-4.0" from="1083" fromLane="0" keepClear="true" to="1046" toLane="0"/>
	<connection contPos="-4.0" from="1084" fromLane="0" keepClear="true" to="1036" toLane="0"/>
	<connection contPos="-4.0" from="1085" fromLane="0" keepClear="true" to="1027" toLane="0"/>
	<connection contPos="-4.0" from="1086" fromLane="0" keepClear="true" to="1028" toLane="0"/>
	<connection contPos="-4.0" from="1087" fromLane="0" keepClear="true" to="1040" toLane="0"/>
	<connection contPos="-4.0" from="1088" fromLane="0" keepClear="true" to="1043" toLane="0"/>
	<connection contPos="-4.0" from="1089" fromLane="0" keepClear="true" to="1043" toLane="0"/>
	<connection contPos="-4.0" from="1090" fromLane="0" keepClear="true" to="1038" toLane="0"/>
	<connection contPos="-4.0" from="1091" fromLane="0" keepClear="true" to="1049" toLane="0"/>
</connections>
