<?xml version="1.0" encoding="UTF-8"?>

<!-- generated on Fri Dec 18 16:44:43 2020 by Eclipse SUMO netconvert Version 1.8.0
<configuration xmlns:xsi="http://www.w3.org/2001/XMLSchema-instance" xsi:noNamespaceSchemaLocation="http://sumo.dlr.de/xsd/netconvertConfiguration.xsd">

    <input>
        <node-files value="./converted_scenarios/SUMO/DEU_Muc-9_2_I-1-1/nodes.net.xml"/>
        <edge-files value="./converted_scenarios/SUMO/DEU_Muc-9_2_I-1-1/edges.net.xml"/>
        <connection-files value="./converted_scenarios/SUMO/DEU_Muc-9_2_I-1-1/_connections.net.xml"/>
        <tllogic-files value="./converted_scenarios/SUMO/DEU_Muc-9_2_I-1-1/_tll.net.xml"/>
    </input>

    <output>
        <output-file value="./converted_scenarios/SUMO/DEU_Muc-9_2_I-1-1/DEU_Muc-9_2_I-1-1.net.xml"/>
    </output>

    <processing>
        <plain.extend-edge-shape value="true"/>
        <geometry.remove.keep-edges.explicit value="true"/>
        <geometry.avoid-overlap value="true"/>
        <offset.disable-normalization value="true"/>
    </processing>

    <junctions>
        <no-turnarounds value="true"/>
        <junctions.internal-link-detail value="20"/>
    </junctions>

    <report>
        <aggregate-warnings value="5"/>
    </report>

    <random_number>
        <seed value="1234"/>
    </random_number>

</configuration>
-->

<net version="1.6" junctionCornerDetail="5" junctionLinkDetail="20" limitTurnSpeed="5.50" xmlns:xsi="http://www.w3.org/2001/XMLSchema-instance" xsi:noNamespaceSchemaLocation="http://sumo.dlr.de/xsd/net_file.xsd">

    <location netOffset="0.00,0.00" convBoundary="-127.95,-161.49,106.71,92.19" origBoundary="-127.95,-161.49,106.71,92.19" projParameter="!"/>

    <edge id=":10_0" function="internal">
        <lane id=":10_0_0" index="0" disallow="bus truck rail_fast" speed="6.80" length="7.60" width="2.50" shape="47.26,-59.26 46.68,-58.94 46.13,-58.63 45.61,-58.32 45.13,-58.02 44.68,-57.73 44.27,-57.45 43.89,-57.17 43.54,-56.89 43.22,-56.63 42.94,-56.37 42.69,-56.11 42.47,-55.86 42.29,-55.62 42.14,-55.39 42.02,-55.16 41.94,-54.94 41.89,-54.73 41.87,-54.52 41.89,-54.32"/>
    </edge>
    <edge id=":10_1" function="internal">
        <lane id=":10_1_0" index="0" disallow="bus truck rail_fast" speed="36.11" length="8.79" width="2.50" shape="47.26,-59.26 39.61,-54.93"/>
    </edge>
    <edge id=":10_2" function="internal">
        <lane id=":10_2_0" index="0" disallow="bus truck rail_fast" speed="7.59" length="9.23" width="2.50" shape="47.26,-59.26 46.54,-58.88 45.85,-58.53 45.19,-58.20 44.56,-57.91 43.96,-57.64 43.39,-57.40 42.85,-57.19 42.34,-57.01 41.86,-56.86 41.40,-56.73 40.98,-56.64 40.59,-56.57 40.22,-56.53 39.89,-56.52 39.58,-56.54 39.31,-56.58 39.06,-56.66 38.85,-56.76 38.66,-56.89"/>
    </edge>
    <edge id=":11_0" function="internal">
        <lane id=":11_0_0" index="0" disallow="bus truck rail_fast" speed="36.11" length="6.04" width="2.50" shape="40.28,-59.03 40.70,-59.17 41.09,-59.30 41.44,-59.42 41.76,-59.52 42.05,-59.62 42.31,-59.71 42.56,-59.80 42.80,-59.88 43.02,-59.97 43.25,-60.05 43.47,-60.15 43.70,-60.25 43.94,-60.35 44.19,-60.48 44.46,-60.61 44.76,-60.76 45.08,-60.93 45.44,-61.12 45.84,-61.33"/>
    </edge>
    <edge id=":11_1" function="internal">
        <lane id=":11_1_0" index="0" disallow="bus truck rail_fast" speed="36.11" length="9.13" width="2.50" shape="37.91,-56.80 45.84,-61.33"/>
    </edge>
    <edge id=":11_2" function="internal">
        <lane id=":11_2_0" index="0" disallow="bus truck rail_fast" speed="21.23" length="7.73" width="2.50" shape="39.94,-56.46 40.32,-56.90 40.66,-57.29 40.97,-57.64 41.25,-57.96 41.52,-58.25 41.76,-58.52 42.00,-58.76 42.23,-58.99 42.46,-59.20 42.69,-59.40 42.93,-59.59 43.19,-59.78 43.47,-59.97 43.77,-60.16 44.11,-60.37 44.47,-60.58 44.88,-60.81 45.34,-61.06 45.84,-61.33"/>
    </edge>
    <edge id=":14_0" function="internal">
        <lane id=":14_0_0" index="0" disallow="bus truck rail_fast" speed="36.11" length="0.10" width="2.50" shape="-65.82,-31.47 -65.82,-31.47"/>
    </edge>
    <edge id=":15_0" function="internal">
        <lane id=":15_0_0" index="0" disallow="bus truck rail_fast" speed="36.11" length="3.19" width="2.50" shape="-63.12,-30.45 -63.29,-30.28 -63.44,-30.13 -63.58,-30.00 -63.71,-29.88 -63.83,-29.77 -63.95,-29.68 -64.05,-29.59 -64.16,-29.52 -64.26,-29.44 -64.37,-29.37 -64.48,-29.30 -64.59,-29.23 -64.71,-29.16 -64.83,-29.08 -64.97,-28.99 -65.12,-28.89 -65.28,-28.79 -65.46,-28.67 -65.65,-28.53"/>
    </edge>
    <edge id=":17_0" function="internal">
        <lane id=":17_0_0" index="0" disallow="bus truck rail_fast" speed="36.11" length="9.09" width="2.50" shape="-1.28,-25.38 2.12,-16.96"/>
    </edge>
    <edge id=":17_1" function="internal">
        <lane id=":17_1_0" index="0" disallow="bus truck rail_fast" speed="11.87" length="10.47" width="2.50" shape="-3.92,-25.07 -3.27,-24.69 -2.68,-24.33 -2.17,-23.99 -1.71,-23.66 -1.30,-23.33 -0.94,-23.01 -0.62,-22.68 -0.33,-22.35 -0.07,-22.01 0.16,-21.65 0.37,-21.27 0.58,-20.87 0.77,-20.43 0.97,-19.96 1.16,-19.46 1.37,-18.91 1.60,-18.31 1.84,-17.66 2.12,-16.96"/>
    </edge>
    <edge id=":2_0" function="internal">
        <lane id=":2_0_0" index="0" disallow="bus truck rail_fast" speed="6.66" length="6.58" width="2.50" shape="-44.76,-89.26 -44.64,-89.11 -44.49,-88.92 -44.31,-88.68 -44.10,-88.41 -43.86,-88.11 -43.60,-87.79 -43.33,-87.45 -43.05,-87.11 -42.75,-86.77 -42.45,-86.43 -42.16,-86.10 -41.86,-85.80 -41.57,-85.51 -41.29,-85.26 -41.02,-85.05 -40.78,-84.88 -40.55,-84.76 -40.35,-84.70 -40.19,-84.70"/>
    </edge>
    <edge id=":2_1" function="internal">
        <lane id=":2_1_0" index="0" disallow="bus truck rail_fast" speed="8.51" length="7.32" width="2.50" shape="-44.76,-89.26 -44.40,-88.80 -44.06,-88.35 -43.74,-87.92 -43.44,-87.50 -43.17,-87.09 -42.91,-86.70 -42.68,-86.32 -42.47,-85.95 -42.28,-85.60 -42.11,-85.26 -41.96,-84.94 -41.83,-84.63 -41.73,-84.33 -41.65,-84.05 -41.59,-83.78 -41.55,-83.53 -41.53,-83.29 -41.53,-83.06 -41.56,-82.85"/>
    </edge>
    <edge id=":20_0" function="internal">
        <lane id=":20_0_0" index="0" disallow="bus truck rail_fast" speed="6.99" length="11.67" width="2.50" shape="-0.12,-15.81 -0.48,-16.70 -0.85,-17.52 -1.22,-18.28 -1.61,-18.97 -1.99,-19.61 -2.39,-20.19 -2.79,-20.70 -3.20,-21.15 -3.62,-21.55 -4.04,-21.88 -4.47,-22.14 -4.91,-22.35 -5.35,-22.50 -5.80,-22.58 -6.26,-22.60 -6.72,-22.56 -7.20,-22.46 -7.67,-22.30 -8.16,-22.08"/>
    </edge>
    <edge id=":20_1" function="internal">
        <lane id=":20_1_0" index="0" disallow="bus truck rail_fast" speed="12.23" length="11.01" width="2.50" shape="-0.12,-15.81 -0.41,-16.52 -0.72,-17.16 -1.04,-17.75 -1.35,-18.30 -1.67,-18.81 -1.97,-19.28 -2.27,-19.74 -2.55,-20.17 -2.81,-20.60 -3.04,-21.03 -3.25,-21.45 -3.42,-21.90 -3.55,-22.35 -3.64,-22.84 -3.67,-23.36 -3.66,-23.92 -3.59,-24.52 -3.45,-25.18 -3.25,-25.90"/>
    </edge>
    <edge id=":22_0" function="internal">
        <lane id=":22_0_0" index="0" disallow="bus truck rail_fast" speed="6.38" length="8.15" width="2.50" shape="14.45,-115.46 13.82,-115.12 13.22,-114.78 12.66,-114.45 12.14,-114.12 11.66,-113.80 11.22,-113.49 10.82,-113.19 10.46,-112.89 10.14,-112.59 9.85,-112.31 9.61,-112.03 9.41,-111.75 9.24,-111.49 9.12,-111.23 9.03,-110.97 8.98,-110.73 8.97,-110.48 9.00,-110.25 9.08,-110.02"/>
    </edge>
    <edge id=":22_1" function="internal">
        <lane id=":22_1_0" index="0" disallow="bus truck rail_fast" speed="36.11" length="9.22" width="2.50" shape="14.45,-115.46 6.40,-110.98"/>
    </edge>
    <edge id=":23_0" function="internal">
        <lane id=":23_0_0" index="0" disallow="bus truck rail_fast" speed="36.11" length="9.29" width="2.50" shape="5.12,-113.11 13.23,-117.64"/>
    </edge>
    <edge id=":23_1" function="internal">
        <lane id=":23_1_0" index="0" disallow="bus truck rail_fast" speed="9.60" length="9.78" width="2.50" shape="6.92,-110.58 7.03,-111.02 7.16,-111.45 7.32,-111.88 7.51,-112.29 7.71,-112.70 7.95,-113.10 8.20,-113.50 8.49,-113.88 8.79,-114.26 9.13,-114.63 9.48,-115.00 9.86,-115.35 10.27,-115.70 10.70,-116.04 11.16,-116.38 11.64,-116.71 12.14,-117.03 12.67,-117.34 13.23,-117.64"/>
    </edge>
    <edge id=":25_0" function="internal">
        <lane id=":25_0_0" index="0" disallow="bus truck rail_fast" speed="36.11" length="8.91" width="2.50" shape="-39.74,-80.29 -47.05,-75.20"/>
    </edge>
    <edge id=":25_1" function="internal">
        <lane id=":25_1_0" index="0" disallow="bus truck rail_fast" speed="10.32" length="9.67" width="2.50" shape="-41.59,-82.65 -41.72,-81.97 -41.85,-81.35 -41.99,-80.80 -42.14,-80.29 -42.29,-79.84 -42.47,-79.43 -42.65,-79.05 -42.86,-78.70 -43.09,-78.38 -43.34,-78.08 -43.61,-77.79 -43.92,-77.50 -44.26,-77.22 -44.62,-76.93 -45.03,-76.63 -45.47,-76.31 -45.95,-75.97 -46.48,-75.61 -47.05,-75.20"/>
    </edge>
    <edge id=":26_0" function="internal">
        <lane id=":26_0_0" index="0" disallow="bus truck rail_fast" speed="6.38" length="7.66" width="2.50" shape="-66.75,-61.15 -67.30,-60.75 -67.82,-60.36 -68.30,-59.98 -68.75,-59.62 -69.16,-59.26 -69.54,-58.92 -69.88,-58.59 -70.19,-58.27 -70.47,-57.96 -70.71,-57.66 -70.91,-57.37 -71.08,-57.10 -71.22,-56.83 -71.32,-56.58 -71.38,-56.34 -71.42,-56.11 -71.41,-55.89 -71.37,-55.68 -71.30,-55.49"/>
    </edge>
    <edge id=":26_1" function="internal">
        <lane id=":26_1_0" index="0" disallow="rail_fast" speed="36.11" length="8.71" width="2.50" shape="-66.75,-61.15 -73.84,-56.09"/>
    </edge>
    <edge id=":27_0" function="internal">
        <lane id=":27_0_0" index="0" disallow="rail_fast" speed="36.11" length="8.67" width="2.50" shape="-75.27,-58.15 -68.21,-63.18"/>
    </edge>
    <edge id=":27_1" function="internal">
        <lane id=":27_1_0" index="0" disallow="bus truck rail_fast" speed="9.86" length="9.24" width="2.50" shape="-73.44,-55.86 -73.36,-56.28 -73.27,-56.70 -73.15,-57.11 -73.01,-57.52 -72.84,-57.93 -72.66,-58.33 -72.45,-58.72 -72.22,-59.12 -71.97,-59.51 -71.69,-59.89 -71.40,-60.27 -71.08,-60.65 -70.73,-61.02 -70.37,-61.39 -69.98,-61.76 -69.57,-62.12 -69.14,-62.48 -68.69,-62.83 -68.21,-63.18"/>
    </edge>
    <edge id=":28_0" function="internal">
        <lane id=":28_0_0" index="0" disallow="bus truck rail_fast" speed="6.30" length="7.77" width="2.50" shape="-48.48,-77.25 -47.90,-77.67 -47.36,-78.08 -46.85,-78.47 -46.39,-78.84 -45.95,-79.21 -45.56,-79.56 -45.20,-79.89 -44.87,-80.22 -44.59,-80.53 -44.33,-80.82 -44.12,-81.11 -43.94,-81.38 -43.79,-81.63 -43.69,-81.88 -43.61,-82.11 -43.58,-82.32 -43.58,-82.52 -43.61,-82.71 -43.69,-82.89"/>
    </edge>
    <edge id=":28_1" function="internal">
        <lane id=":28_1_0" index="0" disallow="bus truck rail_fast" speed="36.11" length="8.88" width="2.50" shape="-48.48,-77.25 -41.19,-82.33"/>
    </edge>
    <edge id=":29_0" function="internal">
        <lane id=":29_0_0" index="0" disallow="rail_fast" speed="36.11" length="8.91" width="2.50" shape="-77.39,41.26 -82.59,48.49"/>
    </edge>
    <edge id=":29_1" function="internal">
        <lane id=":29_1_0" index="0" disallow="bus truck rail_fast" speed="10.41" length="9.72" width="2.50" shape="-80.00,39.56 -79.90,40.26 -79.82,40.89 -79.77,41.47 -79.74,42.00 -79.73,42.49 -79.75,42.94 -79.79,43.36 -79.86,43.76 -79.96,44.15 -80.08,44.52 -80.24,44.89 -80.42,45.27 -80.63,45.65 -80.88,46.05 -81.15,46.47 -81.46,46.92 -81.80,47.40 -82.18,47.92 -82.59,48.49"/>
    </edge>
    <edge id=":3_0" function="internal">
        <lane id=":3_0_0" index="0" disallow="bus truck rail_fast" speed="13.33" length="7.43" width="2.50" shape="-41.42,-83.08 -41.92,-83.30 -42.37,-83.51 -42.77,-83.71 -43.12,-83.90 -43.44,-84.09 -43.73,-84.27 -43.99,-84.46 -44.23,-84.66 -44.45,-84.86 -44.66,-85.07 -44.86,-85.30 -45.06,-85.54 -45.27,-85.80 -45.48,-86.08 -45.71,-86.38 -45.96,-86.72 -46.24,-87.08 -46.54,-87.48 -46.88,-87.91"/>
    </edge>
    <edge id=":3_1" function="internal">
        <lane id=":3_1_0" index="0" disallow="bus truck rail_fast" speed="36.11" length="5.76" width="2.50" shape="-43.78,-83.07 -43.98,-83.45 -44.16,-83.79 -44.33,-84.10 -44.48,-84.38 -44.61,-84.64 -44.74,-84.88 -44.86,-85.10 -44.98,-85.30 -45.10,-85.50 -45.22,-85.69 -45.35,-85.89 -45.48,-86.08 -45.63,-86.29 -45.79,-86.50 -45.96,-86.74 -46.15,-86.99 -46.37,-87.27 -46.61,-87.57 -46.88,-87.91"/>
    </edge>
    <edge id=":32_0" function="internal">
        <lane id=":32_0_0" index="0" disallow="bus truck rail_fast" speed="7.69" length="7.81" width="2.50" shape="-84.65,47.09 -84.31,46.60 -84.00,46.13 -83.70,45.66 -83.44,45.21 -83.19,44.78 -82.97,44.35 -82.78,43.94 -82.61,43.54 -82.47,43.15 -82.34,42.77 -82.25,42.41 -82.18,42.06 -82.13,41.72 -82.11,41.39 -82.11,41.07 -82.14,40.77 -82.19,40.48 -82.27,40.20 -82.37,39.93"/>
    </edge>
    <edge id=":32_1" function="internal">
        <lane id=":32_1_0" index="0" disallow="rail_fast" speed="36.11" length="9.01" width="2.50" shape="-84.65,47.09 -79.39,39.77"/>
    </edge>
    <edge id=":33_0" function="internal">
        <lane id=":33_0_0" index="0" disallow="bus truck rail_fast" speed="36.11" length="6.92" width="2.50" shape="41.92,-54.12 42.01,-53.61 42.08,-53.15 42.15,-52.73 42.22,-52.36 42.28,-52.01 42.34,-51.69 42.40,-51.40 42.46,-51.12 42.52,-50.85 42.59,-50.59 42.67,-50.32 42.75,-50.04 42.84,-49.76 42.94,-49.45 43.05,-49.12 43.17,-48.76 43.31,-48.36 43.46,-47.92 43.64,-47.43"/>
    </edge>
    <edge id=":33_1" function="internal">
        <lane id=":33_1_0" index="0" disallow="bus truck rail_fast" speed="36.11" length="9.26" width="2.50" shape="39.98,-55.93 40.29,-55.31 40.57,-54.75 40.82,-54.24 41.04,-53.78 41.25,-53.36 41.43,-52.97 41.61,-52.61 41.77,-52.26 41.92,-51.93 42.07,-51.59 42.21,-51.25 42.36,-50.90 42.51,-50.52 42.66,-50.12 42.83,-49.68 43.00,-49.20 43.20,-48.67 43.41,-48.08 43.64,-47.43"/>
    </edge>
    <edge id=":33_2" function="internal">
        <lane id=":33_2_0" index="0" disallow="bus truck rail_fast" speed="11.68" length="8.71" width="2.50" shape="38.62,-54.24 39.14,-53.87 39.61,-53.54 40.03,-53.22 40.41,-52.93 40.75,-52.65 41.05,-52.37 41.33,-52.11 41.57,-51.84 41.80,-51.56 42.00,-51.28 42.19,-50.98 42.37,-50.66 42.54,-50.31 42.70,-49.94 42.87,-49.52 43.05,-49.07 43.23,-48.58 43.42,-48.03 43.64,-47.43"/>
    </edge>
    <edge id=":36_0" function="internal">
        <lane id=":36_0_0" index="0" disallow="bus truck rail_fast" speed="6.77" length="11.69" width="2.50" shape="41.69,-45.44 41.36,-46.32 41.03,-47.13 40.68,-47.87 40.32,-48.55 39.94,-49.17 39.56,-49.72 39.17,-50.21 38.76,-50.63 38.34,-50.98 37.92,-51.27 37.48,-51.50 37.02,-51.66 36.56,-51.76 36.09,-51.79 35.60,-51.75 35.11,-51.65 34.60,-51.49 34.08,-51.26 33.55,-50.96"/>
    </edge>
    <edge id=":36_1" function="internal">
        <lane id=":36_1_0" index="0" disallow="bus truck rail_fast" speed="36.11" length="11.10" width="2.50" shape="41.69,-45.44 41.44,-46.15 41.20,-46.81 40.98,-47.42 40.77,-47.99 40.57,-48.52 40.38,-49.02 40.19,-49.50 40.00,-49.96 39.81,-50.40 39.62,-50.85 39.42,-51.29 39.22,-51.74 39.00,-52.21 38.78,-52.69 38.53,-53.20 38.27,-53.75 37.98,-54.33 37.68,-54.96 37.34,-55.64"/>
    </edge>
    <edge id=":36_2" function="internal">
        <lane id=":36_2_0" index="0" disallow="bus truck rail_fast" speed="9.01" length="11.27" width="2.50" shape="41.69,-45.44 41.36,-46.40 41.05,-47.31 40.77,-48.18 40.52,-49.01 40.29,-49.79 40.09,-50.53 39.91,-51.23 39.76,-51.89 39.63,-52.51 39.53,-53.08 39.46,-53.61 39.41,-54.10 39.39,-54.54 39.40,-54.94 39.43,-55.30 39.48,-55.62 39.57,-55.89 39.67,-56.12 39.81,-56.31"/>
    </edge>
    <edge id=":37_0" function="internal">
        <lane id=":37_0_0" index="0" disallow="bus truck rail_fast" speed="23.26" length="7.20" width="2.50" shape="5.06,-108.74 4.54,-108.60 4.07,-108.48 3.65,-108.37 3.26,-108.27 2.91,-108.18 2.59,-108.08 2.29,-107.99 2.00,-107.89 1.73,-107.79 1.47,-107.68 1.20,-107.57 0.94,-107.43 0.66,-107.29 0.37,-107.12 0.06,-106.93 -0.28,-106.72 -0.65,-106.49 -1.05,-106.22 -1.50,-105.93"/>
    </edge>
    <edge id=":37_1" function="internal">
        <lane id=":37_1_0" index="0" disallow="bus truck rail_fast" speed="36.11" length="9.18" width="2.50" shape="6.23,-110.87 -1.50,-105.93"/>
    </edge>
    <edge id=":38_0" function="internal">
        <lane id=":38_0_0" index="0" disallow="bus truck rail_fast" speed="36.11" length="8.71" width="2.50" shape="-32.39,-85.32 -39.57,-80.41"/>
    </edge>
    <edge id=":38_1" function="internal">
        <lane id=":38_1_0" index="0" disallow="bus truck rail_fast" speed="8.67" length="9.50" width="2.50" shape="-32.39,-85.32 -32.97,-84.95 -33.54,-84.60 -34.09,-84.28 -34.63,-83.99 -35.16,-83.72 -35.68,-83.49 -36.18,-83.28 -36.67,-83.10 -37.15,-82.95 -37.62,-82.83 -38.07,-82.74 -38.51,-82.67 -38.94,-82.63 -39.35,-82.63 -39.75,-82.64 -40.14,-82.69 -40.52,-82.77 -40.88,-82.87 -41.23,-83.01"/>
    </edge>
    <edge id=":39_0" function="internal">
        <lane id=":39_0_0" index="0" disallow="bus truck rail_fast" speed="21.83" length="6.86" width="2.50" shape="-39.99,-84.75 -39.50,-84.88 -39.05,-84.99 -38.64,-85.09 -38.28,-85.19 -37.94,-85.28 -37.63,-85.37 -37.34,-85.46 -37.07,-85.55 -36.82,-85.64 -36.56,-85.75 -36.31,-85.86 -36.06,-85.99 -35.80,-86.13 -35.52,-86.29 -35.22,-86.47 -34.90,-86.67 -34.55,-86.89 -34.16,-87.15 -33.74,-87.43"/>
    </edge>
    <edge id=":39_1" function="internal">
        <lane id=":39_1_0" index="0" disallow="bus truck rail_fast" speed="36.11" length="8.83" width="2.50" shape="-41.03,-82.44 -33.74,-87.43"/>
    </edge>
    <edge id=":40_0" function="internal">
        <lane id=":40_0_0" index="0" disallow="bus truck rail_fast" speed="36.11" length="9.26" width="2.50" shape="-2.86,-108.02 4.94,-113.02"/>
    </edge>
    <edge id=":40_1" function="internal">
        <lane id=":40_1_0" index="0" disallow="bus truck rail_fast" speed="8.50" length="10.16" width="2.50" shape="-2.86,-108.02 -2.23,-108.43 -1.62,-108.81 -1.02,-109.15 -0.44,-109.46 0.13,-109.74 0.69,-109.98 1.23,-110.19 1.75,-110.37 2.27,-110.52 2.76,-110.64 3.25,-110.72 3.71,-110.78 4.17,-110.80 4.61,-110.78 5.03,-110.74 5.44,-110.66 5.84,-110.55 6.22,-110.41 6.59,-110.24"/>
    </edge>
    <edge id=":41_0" function="internal">
        <lane id=":41_0_0" index="0" disallow="bus truck rail_fast" speed="36.11" length="5.61" width="2.50" shape="9.15,-109.84 9.31,-109.45 9.45,-109.10 9.57,-108.78 9.69,-108.49 9.79,-108.23 9.89,-107.98 9.99,-107.76 10.08,-107.55 10.17,-107.34 10.26,-107.14 10.36,-106.94 10.47,-106.73 10.58,-106.51 10.70,-106.28 10.84,-106.04 11.00,-105.77 11.17,-105.47 11.36,-105.15 11.57,-104.78"/>
    </edge>
    <edge id=":41_1" function="internal">
        <lane id=":41_1_0" index="0" disallow="bus truck rail_fast" speed="11.97" length="7.38" width="2.50" shape="6.76,-110.14 7.24,-109.89 7.66,-109.64 8.04,-109.41 8.37,-109.19 8.67,-108.98 8.94,-108.77 9.17,-108.55 9.39,-108.33 9.58,-108.11 9.76,-107.88 9.94,-107.63 10.11,-107.36 10.27,-107.08 10.45,-106.77 10.63,-106.44 10.83,-106.08 11.05,-105.68 11.30,-105.25 11.57,-104.78"/>
    </edge>
    <edge id=":42_0" function="internal">
        <lane id=":42_0_0" index="0" disallow="bus truck rail_fast" speed="6.28" length="7.21" width="2.50" shape="35.51,-64.25 35.85,-63.66 36.19,-63.12 36.51,-62.60 36.83,-62.12 37.13,-61.67 37.42,-61.26 37.69,-60.88 37.96,-60.54 38.21,-60.22 38.45,-59.95 38.68,-59.70 38.90,-59.49 39.10,-59.31 39.30,-59.17 39.48,-59.06 39.65,-58.99 39.81,-58.95 39.95,-58.94 40.09,-58.97"/>
    </edge>
    <edge id=":42_1" function="internal">
        <lane id=":42_1_0" index="0" disallow="bus truck rail_fast" speed="36.11" length="9.24" width="2.50" shape="35.51,-64.25 39.90,-56.11"/>
    </edge>
    <edge id=":42_2" function="internal">
        <lane id=":42_2_0" index="0" disallow="bus truck rail_fast" speed="7.72" length="8.99" width="2.50" shape="35.51,-64.25 35.88,-63.60 36.23,-62.98 36.54,-62.38 36.83,-61.80 37.09,-61.25 37.32,-60.72 37.52,-60.21 37.70,-59.72 37.84,-59.26 37.96,-58.82 38.05,-58.40 38.11,-58.01 38.14,-57.64 38.14,-57.29 38.12,-56.97 38.06,-56.67 37.98,-56.39 37.87,-56.13 37.73,-55.90"/>
    </edge>
    <edge id=":43_0" function="internal">
        <lane id=":43_0_0" index="0" disallow="bus truck rail_fast" speed="36.11" length="8.34" width="2.50" shape="37.26,-55.82 33.26,-63.14"/>
    </edge>
    <edge id=":43_1" function="internal">
        <lane id=":43_1_0" index="0" disallow="bus truck rail_fast" speed="25.29" length="8.14" width="2.50" shape="38.51,-57.02 38.05,-57.41 37.63,-57.77 37.26,-58.09 36.92,-58.39 36.61,-58.66 36.33,-58.92 36.07,-59.16 35.83,-59.40 35.61,-59.64 35.39,-59.88 35.19,-60.14 34.98,-60.40 34.78,-60.69 34.56,-61.01 34.34,-61.35 34.10,-61.73 33.84,-62.15 33.56,-62.62 33.26,-63.14"/>
    </edge>
    <edge id=":43_2" function="internal">
        <lane id=":43_2_0" index="0" disallow="bus truck rail_fast" speed="36.11" length="6.55" width="2.50" shape="35.90,-57.17 35.73,-57.63 35.59,-58.05 35.46,-58.43 35.34,-58.77 35.23,-59.08 35.13,-59.37 35.03,-59.64 34.94,-59.89 34.84,-60.14 34.74,-60.38 34.64,-60.62 34.52,-60.86 34.39,-61.12 34.25,-61.39 34.10,-61.68 33.92,-61.99 33.72,-62.34 33.50,-62.72 33.26,-63.14"/>
    </edge>
    <edge id=":44_0" function="internal">
        <lane id=":44_0_0" index="0" disallow="bus truck rail_fast" speed="6.38" length="6.96" width="2.50" shape="9.47,-103.42 9.37,-103.59 9.24,-103.81 9.08,-104.08 8.89,-104.40 8.68,-104.75 8.45,-105.12 8.20,-105.51 7.94,-105.91 7.67,-106.32 7.40,-106.72 7.12,-107.10 6.84,-107.47 6.57,-107.81 6.31,-108.11 6.06,-108.36 5.83,-108.57 5.61,-108.71 5.42,-108.79 5.25,-108.79"/>
    </edge>
    <edge id=":44_1" function="internal">
        <lane id=":44_1_0" index="0" disallow="bus truck rail_fast" speed="9.57" length="7.80" width="2.50" shape="9.47,-103.42 9.18,-103.90 8.89,-104.34 8.61,-104.73 8.35,-105.09 8.10,-105.43 7.86,-105.74 7.64,-106.04 7.44,-106.32 7.25,-106.60 7.09,-106.88 6.95,-107.17 6.84,-107.47 6.75,-107.79 6.69,-108.13 6.66,-108.50 6.67,-108.90 6.70,-109.35 6.77,-109.84 6.88,-110.39"/>
    </edge>
    <edge id=":45_0" function="internal">
        <lane id=":45_0_0" index="0" disallow="bus truck rail_fast" speed="36.11" length="3.08" width="2.50" shape="-63.66,-38.77 -63.75,-38.98 -63.85,-39.17 -63.93,-39.34 -64.01,-39.49 -64.08,-39.62 -64.15,-39.75 -64.22,-39.86 -64.29,-39.97 -64.36,-40.07 -64.43,-40.17 -64.50,-40.27 -64.57,-40.38 -64.65,-40.49 -64.74,-40.60 -64.83,-40.73 -64.93,-40.86 -65.04,-41.02 -65.16,-41.19 -65.29,-41.38"/>
    </edge>
    <edge id=":46_0" function="internal">
        <lane id=":46_0_0" index="0" disallow="bus truck rail_fast" speed="6.32" length="6.75" width="2.50" shape="-70.50,-48.95 -70.61,-49.11 -70.75,-49.32 -70.93,-49.57 -71.13,-49.86 -71.36,-50.19 -71.61,-50.53 -71.88,-50.89 -72.15,-51.26 -72.44,-51.63 -72.73,-51.99 -73.03,-52.35 -73.32,-52.68 -73.60,-52.98 -73.88,-53.25 -74.14,-53.48 -74.38,-53.66 -74.60,-53.78 -74.80,-53.84 -74.96,-53.83"/>
    </edge>
    <edge id=":46_1" function="internal">
        <lane id=":46_1_0" index="0" disallow="bus truck rail_fast" speed="9.50" length="7.70" width="2.50" shape="-70.50,-48.95 -70.82,-49.40 -71.13,-49.81 -71.43,-50.19 -71.71,-50.53 -71.98,-50.84 -72.23,-51.13 -72.47,-51.41 -72.68,-51.68 -72.87,-51.95 -73.05,-52.21 -73.20,-52.49 -73.33,-52.78 -73.43,-53.09 -73.51,-53.42 -73.56,-53.79 -73.58,-54.19 -73.57,-54.63 -73.53,-55.12 -73.47,-55.66"/>
    </edge>
    <edge id=":47_0" function="internal">
        <lane id=":47_0_0" index="0" disallow="bus truck rail_fast" speed="36.11" length="5.53" width="2.50" shape="-71.22,-55.31 -71.04,-54.93 -70.88,-54.59 -70.74,-54.29 -70.61,-54.01 -70.49,-53.76 -70.38,-53.53 -70.27,-53.31 -70.17,-53.11 -70.07,-52.91 -69.96,-52.72 -69.86,-52.53 -69.74,-52.33 -69.61,-52.12 -69.48,-51.91 -69.33,-51.67 -69.16,-51.42 -68.97,-51.14 -68.76,-50.83 -68.53,-50.49"/>
    </edge>
    <edge id=":47_1" function="internal">
        <lane id=":47_1_0" index="0" disallow="bus truck rail_fast" speed="21.09" length="7.04" width="2.50" shape="-73.37,-55.50 -72.95,-55.20 -72.56,-54.92 -72.22,-54.67 -71.91,-54.43 -71.63,-54.21 -71.37,-54.01 -71.14,-53.81 -70.92,-53.61 -70.72,-53.41 -70.53,-53.21 -70.34,-53.00 -70.15,-52.77 -69.96,-52.53 -69.77,-52.27 -69.56,-51.98 -69.33,-51.66 -69.09,-51.31 -68.82,-50.92 -68.53,-50.49"/>
    </edge>
    <edge id=":48_0" function="internal">
        <lane id=":48_0_0" index="0" disallow="bus truck rail_fast" speed="36.11" length="3.10" width="2.50" shape="-63.22,-42.77 -63.09,-42.58 -62.96,-42.41 -62.85,-42.26 -62.75,-42.12 -62.66,-42.00 -62.57,-41.88 -62.49,-41.77 -62.41,-41.67 -62.33,-41.57 -62.26,-41.47 -62.19,-41.37 -62.12,-41.26 -62.05,-41.15 -61.98,-41.02 -61.90,-40.89 -61.82,-40.74 -61.74,-40.57 -61.65,-40.38 -61.55,-40.17"/>
    </edge>
    <edge id=":49_0" function="internal">
        <lane id=":49_0_0" index="0" disallow="bus truck rail_fast" speed="36.11" length="2.23" width="2.50" shape="-48.25,8.11 -49.94,9.56"/>
    </edge>
    <edge id=":49_1" function="internal">
        <lane id=":49_1_0" index="0" disallow="bus truck rail_fast" speed="36.11" length="10.04" width="2.50" shape="-42.23,3.12 -49.94,9.56"/>
    </edge>
    <edge id=":5_0" function="internal">
        <lane id=":5_0_0" index="0" disallow="bus truck rail_fast" speed="36.11" length="3.82" width="2.50" shape="-8.34,-21.98 -8.59,-21.85 -8.82,-21.73 -9.02,-21.62 -9.20,-21.51 -9.37,-21.41 -9.52,-21.32 -9.66,-21.23 -9.79,-21.14 -9.91,-21.06 -10.04,-20.97 -10.16,-20.88 -10.28,-20.78 -10.42,-20.68 -10.56,-20.57 -10.71,-20.45 -10.88,-20.32 -11.06,-20.18 -11.27,-20.02 -11.50,-19.85"/>
    </edge>
    <edge id=":5_1" function="internal">
        <lane id=":5_1_0" index="0" disallow="bus truck rail_fast" speed="36.11" length="11.04" width="2.50" shape="-2.54,-26.31 -11.50,-19.85"/>
    </edge>
    <edge id=":50_0" function="internal">
        <lane id=":50_0_0" index="0" disallow="bus truck rail_fast" speed="36.11" length="8.99" width="2.50" shape="-72.02,33.79 -77.27,41.10"/>
    </edge>
    <edge id=":50_1" function="internal">
        <lane id=":50_1_0" index="0" disallow="bus truck rail_fast" speed="7.61" length="9.78" width="2.50" shape="-72.02,33.79 -72.49,34.42 -72.94,35.01 -73.39,35.56 -73.83,36.07 -74.27,36.54 -74.69,36.97 -75.12,37.36 -75.53,37.71 -75.94,38.02 -76.35,38.29 -76.74,38.52 -77.13,38.71 -77.51,38.87 -77.89,38.98 -78.26,39.05 -78.62,39.08 -78.98,39.08 -79.33,39.03 -79.68,38.95"/>
    </edge>
    <edge id=":51_0" function="internal">
        <lane id=":51_0_0" index="0" disallow="bus truck rail_fast" speed="24.77" length="6.68" width="2.50" shape="-78.63,36.86 -78.23,36.57 -77.87,36.31 -77.54,36.07 -77.24,35.85 -76.98,35.64 -76.73,35.45 -76.51,35.26 -76.30,35.08 -76.10,34.90 -75.91,34.71 -75.73,34.52 -75.55,34.31 -75.36,34.09 -75.16,33.84 -74.96,33.57 -74.74,33.28 -74.50,32.95 -74.23,32.59 -73.94,32.18"/>
    </edge>
    <edge id=":51_1" function="internal">
        <lane id=":51_1_0" index="0" disallow="bus truck rail_fast" speed="36.11" length="9.24" width="2.50" shape="-79.33,39.69 -73.94,32.18"/>
    </edge>
    <edge id=":52_0" function="internal">
        <lane id=":52_0_0" index="0" disallow="bus truck rail_fast" speed="36.11" length="10.26" width="2.50" shape="-51.55,7.65 -43.67,1.08"/>
    </edge>
    <edge id=":52_1" function="internal">
        <lane id=":52_1_0" index="0" disallow="bus truck rail_fast" speed="7.28" length="10.83" width="2.50" shape="-51.55,7.65 -50.79,7.01 -50.06,6.41 -49.37,5.86 -48.70,5.35 -48.07,4.88 -47.46,4.46 -46.89,4.09 -46.34,3.76 -45.82,3.47 -45.34,3.23 -44.88,3.04 -44.46,2.89 -44.07,2.78 -43.70,2.72 -43.37,2.70 -43.06,2.73 -42.79,2.81 -42.55,2.92 -42.33,3.09"/>
    </edge>
    <edge id=":54_0" function="internal">
        <lane id=":54_0_0" index="0" disallow="bus truck rail_fast" speed="6.00" length="7.46" width="2.50" shape="-84.21,32.24 -83.76,32.80 -83.33,33.33 -82.91,33.82 -82.51,34.27 -82.14,34.70 -81.78,35.08 -81.43,35.44 -81.11,35.76 -80.81,36.04 -80.52,36.29 -80.26,36.50 -80.01,36.68 -79.78,36.83 -79.57,36.94 -79.38,37.02 -79.20,37.06 -79.05,37.07 -78.91,37.04 -78.80,36.98"/>
    </edge>
    <edge id=":54_1" function="internal">
        <lane id=":54_1_0" index="0" disallow="bus truck rail_fast" speed="13.41" length="8.47" width="2.50" shape="-84.21,32.24 -83.82,32.72 -83.45,33.15 -83.10,33.54 -82.78,33.90 -82.48,34.22 -82.20,34.52 -81.95,34.80 -81.71,35.07 -81.49,35.34 -81.28,35.62 -81.09,35.90 -80.92,36.21 -80.76,36.53 -80.61,36.89 -80.48,37.28 -80.35,37.72 -80.23,38.21 -80.13,38.76 -80.03,39.37"/>
    </edge>
    <edge id=":55_0" function="internal">
        <lane id=":55_0_0" index="0" disallow="bus truck rail_fast" speed="36.11" length="6.55" width="2.50" shape="-82.45,39.75 -82.64,39.30 -82.82,38.90 -82.98,38.54 -83.13,38.21 -83.27,37.91 -83.41,37.63 -83.54,37.38 -83.67,37.14 -83.80,36.92 -83.94,36.70 -84.08,36.48 -84.24,36.25 -84.41,36.02 -84.59,35.78 -84.80,35.52 -85.02,35.23 -85.27,34.92 -85.54,34.57 -85.85,34.19"/>
    </edge>
    <edge id=":55_1" function="internal">
        <lane id=":55_1_0" index="0" disallow="bus truck rail_fast" speed="11.50" length="7.82" width="2.50" shape="-79.87,38.89 -80.41,38.71 -80.90,38.55 -81.34,38.38 -81.73,38.22 -82.09,38.05 -82.40,37.89 -82.70,37.71 -82.96,37.53 -83.21,37.33 -83.45,37.12 -83.67,36.90 -83.90,36.65 -84.13,36.39 -84.36,36.10 -84.61,35.78 -84.88,35.43 -85.17,35.05 -85.49,34.64 -85.85,34.19"/>
    </edge>
    <edge id=":57_0" function="internal">
        <lane id=":57_0_0" index="0" disallow="bus truck rail_fast" speed="36.11" length="9.86" width="2.50" shape="-39.68,2.94 -36.06,12.11"/>
    </edge>
    <edge id=":57_1" function="internal">
        <lane id=":57_1_0" index="0" disallow="bus truck rail_fast" speed="17.39" length="10.96" width="2.50" shape="-42.19,3.22 -41.63,3.74 -41.13,4.22 -40.66,4.67 -40.23,5.09 -39.84,5.49 -39.48,5.88 -39.14,6.25 -38.83,6.63 -38.55,7.00 -38.28,7.38 -38.02,7.78 -37.77,8.19 -37.53,8.63 -37.30,9.10 -37.07,9.61 -36.83,10.16 -36.59,10.75 -36.33,11.40 -36.06,12.11"/>
    </edge>
    <edge id=":6_0" function="internal">