<!-- generated on Tue Feb  9 22:16:05 2021 by Eclipse SUMO netconvert Version 1.8.0
<configuration xmlns:xsi="http://www.w3.org/2001/XMLSchema-instance" xsi:noNamespaceSchemaLocation="http://sumo.dlr.de/xsd/netconvertConfiguration.xsd">

    <input>
        <node-files value="./converted_scenarios/scenario-factory/ESP_Monzon-3_1_I-1-1/ESP_Monzon-3_1_I-1-1.nod.xml"/>
        <edge-files value="./converted_scenarios/scenario-factory/ESP_Monzon-3_1_I-1-1/ESP_Monzon-3_1_I-1-1.edg.xml"/>
        <connection-files value="./converted_scenarios/scenario-factory/ESP_Monzon-3_1_I-1-1/ESP_Monzon-3_1_I-1-1.con.xml"/>
        <tllogic-files value="./converted_scenarios/scenario-factory/ESP_Monzon-3_1_I-1-1/ESP_Monzon-3_1_I-1-1.tll.xml"/>
        <type-files value="/home/zen/commonroad-interactive-benchmarks/install/commonroad-map-tool/crmapconverter/sumo_map/templates/DEU.typ.xml"/>
    </input>

    <output>
        <output-file value="./converted_scenarios/scenario-factory/ESP_Monzon-3_1_I-1-1/ESP_Monzon-3_1_I-1-1.net.xml"/>
    </output>

    <processing>
        <geometry.remove.keep-edges.explicit value="true"/>
        <geometry.avoid-overlap value="true"/>
        <offset.disable-normalization value="true"/>
    </processing>

    <junctions>
        <no-turnarounds value="true"/>
        <junctions.internal-link-detail value="20"/>
    </junctions>

    <report>
        <aggregate-warnings value="5"/>
    </report>

    <random_number>
        <seed value="1234"/>
    </random_number>

</configuration>
--><net xmlns:xsi="http://www.w3.org/2001/XMLSchema-instance" version="1.6" junctionCornerDetail="5" junctionLinkDetail="20" limitTurnSpeed="5.50" xsi:noNamespaceSchemaLocation="http://sumo.dlr.de/xsd/net_file.xsd">

    <location netOffset="0.00,0.00" convBoundary="124.20,-639.76,567.00,-263.36" origBoundary="124.20,-639.76,568.06,-263.36" projParameter="!"/>

    <type id="highway.bridleway" priority="1" speed="2.78" allow="pedestrian" oneway="1" width="2.00"/>
    <type id="highway.bus_guideway" priority="1" speed="27.78" allow="bus" oneway="1"/>
    <type id="highway.cycleway" priority="1" speed="8.33" allow="bicycle" oneway="0" width="1.00"/>
    <type id="highway.footway" priority="1" speed="2.78" allow="pedestrian" oneway="1" width="2.00"/>
    <type id="highway.ford" priority="1" speed="2.78" allow="army" oneway="0"/>
    <type id="highway.living_street" priority="2" speed="2.78" disallow="tram rail_urban rail rail_electric rail_fast ship" oneway="0"/>
    <type id="highway.motorway" priority="14" speed="39.44" allow="private emergency authority army vip passenger hov taxi bus coach delivery truck trailer motorcycle evehicle custom1 custom2" oneway="1"/>
    <type id="highway.motorway_link" priority="9" speed="22.22" allow="private emergency authority army vip passenger hov taxi bus coach delivery truck trailer motorcycle evehicle custom1 custom2" oneway="1"/>
    <type id="highway.path" priority="1" speed="2.78" allow="pedestrian bicycle" oneway="0" width="2.00"/>
    <type id="highway.pedestrian" priority="1" speed="2.78" allow="pedestrian" oneway="1" width="2.00"/>
    <type id="highway.primary" priority="12" speed="27.78" disallow="pedestrian tram rail_urban rail rail_electric rail_fast ship" oneway="0"/>
    <type id="highway.primary_link" priority="7" speed="22.22" disallow="pedestrian tram rail_urban rail rail_electric rail_fast ship" oneway="0"/>
    <type id="highway.raceway" priority="15" speed="83.33" allow="vip" oneway="0"/>
    <type id="highway.residential" priority="3" speed="13.89" disallow="pedestrian tram rail_urban rail rail_electric rail_fast ship" oneway="0"/>
    <type id="highway.secondary" priority="11" speed="27.78" disallow="pedestrian tram rail_urban rail rail_electric rail_fast ship" oneway="0"/>
    <type id="highway.secondary_link" priority="6" speed="22.22" disallow="pedestrian tram rail_urban rail rail_electric rail_fast ship" oneway="0"/>
    <type id="highway.service" priority="1" speed="5.56" allow="pedestrian delivery bicycle" oneway="0"/>
    <type id="highway.stairs" priority="1" speed="1.39" allow="pedestrian" oneway="1" width="2.00"/>
    <type id="highway.step" priority="1" speed="1.39" allow="pedestrian" oneway="1" width="2.00"/>
    <type id="highway.steps" priority="1" speed="1.39" allow="pedestrian" oneway="1" width="2.00"/>
    <type id="highway.tertiary" priority="10" speed="22.22" disallow="pedestrian tram rail_urban rail rail_electric rail_fast ship" oneway="0"/>
    <type id="highway.tertiary_link" priority="5" speed="22.22" disallow="pedestrian tram rail_urban rail rail_electric rail_fast ship" oneway="0"/>
    <type id="highway.track" priority="1" speed="5.56" allow="pedestrian motorcycle moped bicycle" oneway="0"/>
    <type id="highway.trunk" priority="13" speed="27.78" disallow="pedestrian bicycle tram rail_urban rail rail_electric rail_fast ship" oneway="0"/>
    <type id="highway.trunk_link" priority="8" speed="22.22" disallow="pedestrian bicycle tram rail_urban rail rail_electric rail_fast ship" oneway="0"/>
    <type id="highway.unclassified" priority="4" speed="13.89" disallow="pedestrian tram rail_urban rail rail_electric rail_fast ship" oneway="0"/>
    <type id="highway.unsurfaced" priority="1" speed="8.33" disallow="tram rail_urban rail rail_electric rail_fast ship" oneway="0"/>
    <type id="railway.highspeed" priority="21" speed="69.44" allow="rail_fast" oneway="1"/>
    <type id="railway.light_rail" priority="19" speed="27.78" allow="rail_urban" oneway="1"/>
    <type id="railway.preserved" priority="16" speed="27.78" allow="rail" oneway="1"/>
    <type id="railway.rail" priority="20" speed="44.44" allow="rail" oneway="1"/>
    <type id="railway.subway" priority="18" speed="27.78" allow="rail_urban" oneway="1"/>
    <type id="railway.tram" priority="17" speed="13.89" allow="tram" oneway="1"/>

    <edge id=":37_0" function="internal">
        <lane id=":37_0_0" index="0" disallow="pedestrian tram rail_urban rail rail_electric rail_fast ship" speed="36.11" length="0.21" width="3.50" shape="293.32,-338.41 293.49,-338.53"/>
    </edge>
    <edge id=":40_0" function="internal">
        <lane id=":40_0_0" index="0" disallow="pedestrian tram rail_urban rail rail_electric rail_fast ship" speed="36.11" length="4.25" width="3.50" shape="319.13,-335.58 319.30,-335.31 319.45,-335.06 319.58,-334.84 319.69,-334.64 319.80,-334.45 319.89,-334.28 319.98,-334.11 320.06,-333.96 320.14,-333.80 320.21,-333.65 320.29,-333.50 320.36,-333.34 320.44,-333.17 320.52,-332.99 320.61,-332.80 320.71,-332.58 320.82,-332.35 320.94,-332.09 321.07,-331.80"/>
    </edge>
    <edge id=":49_0" function="internal">
        <lane id=":49_0_0" index="0" disallow="pedestrian tram rail_urban rail rail_electric rail_fast ship" speed="3.36" length="1.52" width="3.50" shape="146.09,-306.57 145.96,-305.91 145.92,-305.06"/>
    </edge>
    <edge id=":49_1" function="internal">
        <lane id=":49_1_0" index="0" disallow="pedestrian tram rail_urban rail rail_electric rail_fast ship" speed="36.11" length="9.70" width="3.50" shape="143.71,-309.76 136.08,-303.77"/>
    </edge>
    <edge id=":51_0" function="internal">
        <lane id=":51_0_0" index="0" disallow="pedestrian tram rail_urban rail rail_electric rail_fast ship" speed="3.14" length="1.39" width="3.50" shape="267.00,-325.36 267.26,-325.26 268.35,-325.04"/>
    </edge>
    <edge id=":51_1" function="internal">
        <lane id=":51_1_0" index="0" disallow="pedestrian tram rail_urban rail rail_electric rail_fast ship" speed="36.11" length="12.38" width="3.50" shape="263.17,-323.56 267.05,-315.11 268.29,-312.29"/>
    </edge>
    <edge id=":51_2" function="internal">
        <lane id=":51_2_0" index="0" disallow="pedestrian tram rail_urban rail rail_electric rail_fast ship" speed="36.11" length="12.39" width="3.50" shape="260.99,-314.17 270.85,-321.67"/>
    </edge>
    <edge id=":51_3" function="internal">
        <lane id=":51_3_0" index="0" disallow="pedestrian tram rail_urban rail rail_electric rail_fast ship" speed="36.11" length="0.58" width="3.50" shape="263.67,-310.69 264.22,-310.52"/>
    </edge>
    <edge id=":52_0" function="internal">
        <lane id=":52_0_0" index="0" disallow="pedestrian tram rail_urban rail rail_electric rail_fast ship" speed="11.63" length="25.77" width="3.50" shape="241.89,-380.68 241.33,-379.04 241.10,-377.39 241.12,-375.18 241.52,-372.44 242.37,-369.23 243.88,-365.07 247.89,-356.30"/>
    </edge>
    <edge id=":52_1" function="internal">
        <lane id=":52_1_0" index="0" disallow="pedestrian tram rail_urban rail rail_electric rail_fast ship" speed="36.11" length="10.05" width="3.50" shape="241.39,-381.33 233.36,-375.29"/>
    </edge>
    <edge id=":52_2" function="internal">
        <lane id=":52_2_0" index="0" disallow="pedestrian tram rail_urban rail rail_electric rail_fast ship" speed="36.11" length="25.37" width="3.50" shape="236.96,-379.16 237.06,-378.54 241.46,-369.85 247.89,-356.30"/>
    </edge>
    <edge id=":52_3" function="internal">
        <lane id=":52_3_0" index="0" disallow="pedestrian tram rail_urban rail rail_electric rail_fast ship" speed="6.69" length="9.25" width="3.50" shape="236.96,-379.16 235.23,-381.59 235.35,-381.06 235.25,-379.98 234.86,-378.96 234.00,-377.56 232.78,-376.10"/>
    </edge>
    <edge id=":53_0" function="internal">
        <lane id=":53_0_0" index="0" disallow="pedestrian tram rail_urban rail rail_electric rail_fast ship" speed="36.11" length="347.73" width="3.49" shape="518.65,-596.71 506.30,-587.33 244.07,-383.36"/>
    </edge>
    <edge id=":53_1" function="internal">
        <lane id=":53_1_0" index="0" disallow="pedestrian tram rail_urban rail rail_electric rail_fast ship" speed="36.11" length="346.52" width="3.49" shape="518.65,-596.71 377.39,-489.27 242.85,-386.92"/>
        <lane id=":53_1_1" index="1" disallow="pedestrian tram rail_urban rail rail_electric rail_fast ship" speed="36.11" length="346.52" width="3.50" shape="516.54,-599.50 375.28,-492.06 240.74,-389.71"/>
    </edge>
    <edge id=":53_3" function="internal">
        <lane id=":53_3_0" index="0" disallow="pedestrian tram rail_urban rail rail_electric rail_fast ship" speed="36.11" length="3.62" width="3.50" shape="234.80,-400.57 237.71,-402.73"/>
    </edge>
    <edge id=":53_4" function="internal">
        <lane id=":53_4_0" index="0" disallow="pedestrian tram rail_urban rail rail_electric rail_fast ship" speed="36.11" length="346.53" width="3.50" shape="238.62,-392.49 373.16,-494.84 514.42,-602.29"/>
    </edge>
    <edge id=":55_0" function="internal">
        <lane id=":55_0_0" index="0" disallow="pedestrian tram rail_urban rail rail_electric rail_fast ship" speed="33.49" length="21.50" width="3.50" shape="227.47,-392.70 223.82,-400.14 220.44,-406.57 218.32,-410.03 217.18,-411.54"/>
    </edge>
    <edge id=":55_1" function="internal">
        <lane id=":55_1_0" index="0" disallow="pedestrian tram rail_urban rail rail_electric rail_fast ship" speed="8.73" length="14.04" width="3.48" shape="227.47,-392.70 228.42,-390.84 228.35,-391.96 228.55,-393.07 229.19,-394.64 230.12,-396.05 231.60,-397.76 234.12,-400.03 234.64,-400.45"/>
    </edge>
    <edge id=":55_2" function="internal">
        <lane id=":55_2_0" index="0" disallow="pedestrian tram rail_urban rail rail_electric rail_fast ship" speed="10.18" length="21.04" width="3.48" shape="219.65,-414.01 225.24,-407.95 229.09,-404.25 231.58,-402.24 232.94,-401.39 233.92,-400.97 234.44,-400.85 234.97,-400.86 234.64,-400.45"/>
    </edge>
    <edge id=":55_3" function="internal">
        <lane id=":55_3_0" index="0" disallow="pedestrian tram rail_urban rail rail_electric rail_fast ship" speed="29.12" length="26.58" width="3.44" shape="219.65,-414.01 221.11,-412.14 223.36,-408.49 226.87,-401.86 232.17,-390.63"/>
    </edge>
    <edge id=":55_4" function="internal">
        <lane id=":55_4_0" index="0" disallow="pedestrian tram rail_urban rail rail_electric rail_fast ship" speed="11.85" length="35.43" width="3.50" shape="211.15,-382.32 217.51,-387.48 219.50,-389.68 220.87,-391.61 221.96,-393.71 222.54,-395.39 222.90,-397.12 223.01,-398.90 222.88,-400.67 222.35,-402.97 221.49,-405.18 220.05,-407.76 218.32,-410.17 217.18,-411.54"/>
    </edge>
    <edge id=":55_5" function="internal">
        <lane id=":55_5_0" index="0" disallow="pedestrian tram rail_urban rail rail_electric rail_fast ship" speed="36.11" length="29.67" width="3.48" shape="211.15,-382.32 232.20,-398.61 234.64,-400.45"/>
    </edge>
    <edge id=":55_6" function="internal">
        <lane id=":55_6_0" index="0" disallow="pedestrian tram rail_urban rail rail_electric rail_fast ship" speed="9.52" length="25.28" width="3.44" shape="211.15,-382.32 219.43,-388.55 222.81,-390.70 225.36,-392.00 227.52,-392.75 228.65,-392.94 229.79,-392.91 230.34,-392.76 230.85,-392.51 231.30,-392.16 231.66,-391.72 232.17,-390.63"/>
    </edge>
    <edge id=":56_0" function="internal">
        <lane id=":56_0_0" index="0" disallow="pedestrian tram rail_urban rail rail_electric rail_fast ship" speed="8.07" length="13.72" width="3.47" shape="242.85,-386.92 241.27,-385.93 239.01,-385.18 236.16,-384.36 235.10,-383.84 234.70,-383.41 234.61,-382.84 236.85,-379.33"/>
    </edge>
    <edge id=":56_1" function="internal">
        <lane id=":56_1_0" index="0" disallow="pedestrian tram rail_urban rail rail_electric rail_fast ship" speed="36.11" length="26.40" width="3.50" shape="242.85,-386.92 232.12,-378.66 221.93,-370.81"/>
        <lane id=":56_1_1" index="1" disallow="pedestrian tram rail_urban rail rail_electric rail_fast ship" speed="36.11" length="26.44" width="3.50" shape="240.74,-389.71 229.99,-381.43 219.79,-373.58"/>
    </edge>
    <edge id=":56_3" function="internal">
        <lane id=":56_3_0" index="0" disallow="pedestrian tram rail_urban rail rail_electric rail_fast ship" speed="8.20" length="17.51" width="3.50" shape="240.74,-389.71 237.62,-387.58 235.96,-386.77 234.18,-386.26 232.95,-386.21 231.75,-386.47 230.68,-387.07 229.82,-387.95 229.14,-388.98 227.55,-392.52"/>
    </edge>
    <edge id=":56_4" function="internal">
        <lane id=":56_4_0" index="0" disallow="pedestrian tram rail_urban rail rail_electric rail_fast ship" speed="5.18" length="6.50" width="3.50" shape="232.24,-390.44 232.49,-390.60 233.01,-390.90 234.09,-392.41 235.50,-394.44 236.47,-395.26"/>
    </edge>
    <edge id=":56_5" function="internal">
        <lane id=":56_5_0" index="0" disallow="pedestrian tram rail_urban rail rail_electric rail_fast ship" speed="36.11" length="12.17" width="3.47" shape="232.24,-390.44 232.75,-388.95 233.72,-384.74 234.31,-383.23 236.85,-379.33"/>
    </edge>
    <edge id=":56_6" function="internal">
        <lane id=":56_6_0" index="0" disallow="pedestrian tram rail_urban rail rail_electric rail_fast ship" speed="11.20" length="21.89" width="3.50" shape="232.24,-390.44 232.37,-389.97 232.45,-388.91 232.18,-387.33 231.59,-385.83 230.50,-383.99 228.87,-381.87 226.30,-379.14 222.71,-375.93 219.79,-373.58"/>
    </edge>
    <edge id=":56_7" function="internal">
        <lane id=":56_7_0" index="0" disallow="pedestrian tram rail_urban rail rail_electric rail_fast ship" speed="10.79" length="21.70" width="3.50" shape="215.52,-379.12 217.39,-380.31 220.94,-381.95 225.05,-383.75 227.00,-384.85 228.29,-385.92 228.93,-386.83 229.12,-387.35 229.21,-387.91 229.07,-389.01 227.55,-392.52"/>
    </edge>
    <edge id=":56_8" function="internal">
        <lane id=":56_8_0" index="0" disallow="pedestrian tram rail_urban rail rail_electric rail_fast ship" speed="36.11" length="26.45" width="3.50" shape="215.52,-379.12 225.72,-386.98 236.47,-395.26"/>
        <lane id=":56_8_1" index="1" disallow="pedestrian tram rail_urban rail rail_electric rail_fast ship" speed="36.11" length="26.46" width="3.50" shape="217.63,-376.34 227.85,-384.21 238.60,-392.48"/>
    </edge>
    <edge id=":56_10" function="internal">
        <lane id=":56_10_0" index="0" disallow="pedestrian tram rail_urban rail rail_electric rail_fast ship" speed="9.92" length="23.31" width="3.47" shape="217.63,-376.34 222.21,-379.66 225.58,-381.72 228.13,-382.94 230.28,-383.62 231.96,-383.79 233.07,-383.62 234.07,-383.11 236.85,-379.33"/>
    </edge>

    <edge id="13607" from="56" to="9" priority="3" type="highway.residential" spreadType="center" length="70.00" shape="232.62,-382.00 165.35,-329.54">
        <lane id="13607_0" index="0" disallow="pedestrian tram rail_urban rail rail_electric rail_fast ship" speed="36.11" length="70.00" width="3.50" customShape="1" shape="221.93,-370.81 166.42,-328.16"/>
        <lane id="13607_1" index="1" disallow="pedestrian tram rail_urban rail rail_electric rail_fast ship" speed="36.11" length="70.01" width="3.50" customShape="1" shape="219.80,-373.58 164.28,-330.93"/>
    </edge>
    <edge id="13610" from="33" to="56" priority="3" type="highway.residential" spreadType="center" length="70.02" shape="161.07,-335.08 228.32,-387.52">
        <lane id="13610_0" index="0" disallow="pedestrian tram rail_urban rail rail_electric rail_fast ship" speed="36.11" length="70.02" width="3.50" customShape="1" shape="160.00,-336.47 215.53,-379.13"/>
        <lane id="13610_1" index="1" disallow="pedestrian tram rail_urban rail rail_electric rail_fast ship" speed="36.11" length="70.04" width="3.50" customShape="1" shape="162.13,-333.69 217.67,-376.36"/>
    </edge>
    <edge id="13612" from="53" to="56" priority="3" type="highway.residential" spreadType="center" length="0.21" shape="313.87,-443.13 232.36,-381.81">
        <lane id="13612_0" index="0" disallow="pedestrian tram rail_urban rail rail_electric rail_fast ship" speed="36.11" length="0.25" width="3.49" customShape="1" shape="243.05,-387.07 242.85,-386.92"/>
        <lane id="13612_1" index="1" disallow="pedestrian tram rail_urban rail rail_electric rail_fast ship" speed="36.11" length="0.21" width="3.50" customShape="1" shape="240.91,-389.84 240.74,-389.71"/>
    </edge>
    <edge id="13615" from="56" to="53" priority="3" type="highway.residential" spreadType="center" length="0.21" shape="228.16,-387.39 309.67,-448.72">
        <lane id="13615_0" index="0" disallow="pedestrian tram rail_urban rail rail_electric rail_fast ship" speed="36.11" length="0.21" width="3.50" customShape="1" shape="236.47,-395.26 236.63,-395.39"/>
        <lane id="13615_1" index="1" disallow="pedestrian tram rail_urban rail rail_electric rail_fast ship" speed="36.11" length="0.21" width="3.50" customShape="1" shape="238.60,-392.48 238.77,-392.61"/>
    </edge>
    <edge id="13617" from="48" to="53" priority="3" type="highway.residential" spreadType="center" length="62.00" shape="567.00,-635.57 313.86,-443.12">
        <lane id="13617_0" index="0" disallow="pedestrian tram rail_urban rail rail_electric rail_fast ship" speed="36.11" length="62.01" width="3.50" customShape="1" shape="568.06,-634.18 518.65,-596.71"/>
        <lane id="13617_1" index="1" disallow="pedestrian tram rail_urban rail rail_electric rail_fast ship" speed="36.11" length="62.00" width="3.50" customShape="1" shape="565.94,-636.97 516.54,-599.50"/>
    </edge>
    <edge id="13619" from="53" to="27" priority="3" type="highway.residential" spreadType="center" length="62.00" shape="310.70,-447.31 563.82,-639.76">
        <lane id="13619_0" index="0" disallow="pedestrian tram rail_urban rail rail_electric rail_fast ship" speed="36.11" length="62.00" width="3.50" customShape="1" shape="514.42,-602.29 563.82,-639.76"/>
    </edge>
    <edge id="13648" from="55" to="56" priority="3" type="highway.residential" spreadType="center" length="0.20" shape="226.26,-399.41 232.01,-385.13">
        <lane id="13648_0" index="0" disallow="pedestrian tram rail_urban rail rail_electric rail_fast ship" speed="36.11" length="0.20" width="3.44" customShape="1" shape="232.17,-390.63 232.24,-390.44"/>
    </edge>
    <edge id="13649" from="56" to="55" priority="3" type="highway.residential" spreadType="center" length="0.20" shape="228.82,-383.84 223.04,-398.11">
        <lane id="13649_0" index="0" disallow="pedestrian tram rail_urban rail rail_electric rail_fast ship" speed="36.11" length="0.20" width="3.50" customShape="1" shape="227.55,-392.52 227.47,-392.70"/>
    </edge>
    <edge id="13651" from="36" to="55" priority="3" type="highway.residential" spreadType="center" length="69.77" shape="160.55,-388.86 224.40,-400.49">
        <lane id="13651_0" index="0" disallow="pedestrian tram rail_urban rail rail_electric rail_fast ship" speed="36.11" length="69.77" width="3.49" customShape="1" shape="160.55,-388.86 166.60,-392.60 171.38,-395.57 175.07,-398.32 179.38,-401.93 187.09,-408.66 191.51,-412.14 194.90,-414.42 198.05,-416.13 200.88,-417.30 203.84,-418.13 206.36,-418.51 208.92,-418.59 211.46,-418.36 213.96,-417.81 215.85,-417.03 217.16,-416.24 218.37,-415.30 219.65,-414.01"/>
    </edge>
    <edge id="13652" from="55" to="29" priority="3" type="highway.residential" spreadType="center" length="70.00" shape="225.06,-397.06 158.17,-383.28">
        <lane id="13652_0" index="0" disallow="pedestrian tram rail_urban rail rail_electric rail_fast ship" speed="36.11" length="70.00" width="3.50" customShape="1" shape="217.18,-411.54 215.95,-412.78 214.94,-413.52 213.85,-414.11 212.17,-414.65 209.94,-415.00 207.65,-415.05 205.36,-414.81 203.10,-414.28 200.44,-413.31 197.88,-412.04 195.00,-410.27 191.83,-407.96 187.59,-404.47 179.94,-397.82 175.53,-394.29 171.73,-391.66 166.94,-388.71 158.17,-383.28"/>
    </edge>
    <edge id="13728" from="42" to="51" priority="3" type="highway.residential" spreadType="center" length="83.29">
        <lane id="13728_0" index="0" disallow="pedestrian tram rail_urban rail rail_electric rail_fast ship" speed="36.11" length="83.29" width="3.50" customShape="1" shape="195.00,-263.36 221.77,-284.02 260.94,-314.24"/>
    </edge>
    <edge id="13730" from="51" to="37" priority="3" type="highway.residential" spreadType="center" length="28.03">
        <lane id="13730_0" index="0" disallow="pedestrian tram rail_urban rail rail_electric rail_fast ship" speed="36.11" length="28.03" width="3.50" customShape="1" shape="270.81,-321.71 287.18,-333.85 293.32,-338.41"/>
    </edge>
    <edge id="13808" from="53" to="52" priority="3" type="highway.residential" spreadType="center" length="3.36" shape="312.98,-444.67 236.72,-373.55">
        <lane id="13808_0" index="0" disallow="pedestrian tram rail_urban rail rail_electric rail_fast ship" speed="36.11" length="3.36" width="3.49" customShape="1" shape="244.07,-383.36 243.97,-383.28 241.42,-381.29"/>
    </edge>
    <edge id="13810" from="52" to="49" priority="3" type="highway.residential" spreadType="center" length="111.05">
        <lane id="13810_0" index="0" disallow="pedestrian tram rail_urban rail rail_electric rail_fast ship" speed="36.11" length="111.05" width="3.50" customShape="1" shape="233.38,-375.27 157.61,-320.10 143.71,-309.76"/>
    </edge>
    <edge id="13818" from="34" to="55" priority="3" type="highway.residential" spreadType="center" length="65.35">
        <lane id="13818_0" index="0" disallow="pedestrian tram rail_urban rail rail_electric rail_fast ship" speed="36.11" length="65.35" width="3.50" customShape="1" shape="159.32,-342.51 211.15,-382.32"/>
    </edge>
    <edge id="13820" from="55" to="53" priority="3" type="highway.residential" spreadType="center" length="0.20" shape="224.66,-398.76 310.94,-447.46">
        <lane id="13820_0" index="0" disallow="pedestrian tram rail_urban rail rail_electric rail_fast ship" speed="36.11" length="0.20" width="3.48" customShape="1" shape="234.64,-400.45 234.80,-400.57"/>
    </edge>
    <edge id="13835" from="49" to="45" priority="3" type="highway.residential" spreadType="center" length="44.87">
        <lane id="13835_0" index="0" disallow="pedestrian tram rail_urban rail rail_electric rail_fast ship" speed="36.11" length="44.87" width="3.50" customShape="1" shape="142.82,-302.80 160.04,-279.21 169.27,-266.55"/>
    </edge>
    <edge id="13836" from="46" to="47" priority="3" type="highway.residential" spreadType="center" length="31.33">
        <lane id="13836_0" index="0" disallow="pedestrian tram rail_urban rail rail_electric rail_fast ship" speed="36.11" length="31.33" width="3.50" customShape="1" shape="166.44,-264.49 157.21,-277.14 147.98,-289.80"/>
    </edge>
    <edge id="13927" from="56" to="52" priority="3" type="highway.residential" spreadType="center" length="0.20">
        <lane id="13927_0" index="0" disallow="pedestrian tram rail_urban rail rail_electric rail_fast ship" speed="36.11" length="0.20" width="3.47" customShape="1" shape="236.85,-379.33 236.96,-379.16"/>
    </edge>
    <edge id="13929" from="52" to="51" priority="3" type="highway.residential" spreadType="center" length="36.13">
        <lane id="13929_0" index="0" disallow="pedestrian tram rail_urban rail rail_electric rail_fast ship" speed="36.11" length="36.13" width="3.50" customShape="1" shape="247.89,-356.30 251.62,-348.39 263.27,-323.61"/>
    </edge>
    <edge id="13931" from="51" to="38" priority="3" type="highway.residential" spreadType="center" length="44.38">
        <lane id="13931_0" index="0" disallow="pedestrian tram rail_urban rail rail_electric rail_fast ship" speed="36.11" length="44.38" width="3.50" customShape="1" shape="268.37,-312.32 279.78,-285.98 286.01,-271.60"/>
    </edge>
    <edge id="13966" from="40" to="41" priority="3" type="highway.residential" spreadType="center" length="52.81">
        <lane id="13966_0" index="0" disallow="pedestrian tram rail_urban rail rail_electric rail_fast ship" speed="36.11" length="52.81" width="3.50" customShape="1" shape="321.07,-331.80 325.34,-322.79 331.00,-309.86 341.88,-283.27"/>
    </edge>
    <edge id="13967" from="43" to="44" priority="3" type="highway.residential" spreadType="center" length="54.70">
        <lane id="13967_0" index="0" disallow="pedestrian tram rail_urban rail rail_electric rail_fast ship" speed="36.11" length="54.70" width="3.50" customShape="1" shape="338.64,-281.96 327.79,-308.46 322.17,-321.31 317.02,-332.19"/>
    </edge>
    <edge id="15700" from="53" to="54" priority="3" type="highway.residential" spreadType="center" length="67.46">
        <lane id="15700_0" index="0" disallow="pedestrian tram rail_urban rail rail_electric rail_fast ship" speed="36.11" length="67.46" width="3.50" customShape="1" shape="237.71,-402.73 292.03,-442.73"/>
    </edge>
    <edge id="15759" from="49" to="50" priority="3" type="highway.residential" spreadType="center" length="15.12">
        <lane id="15759_0" index="0" disallow="pedestrian tram rail_urban rail rail_electric rail_fast ship" speed="36.11" length="15.12" width="3.50" customShape="1" shape="136.08,-303.77 124.20,-294.41"/>
    </edge>
    <edge id="16103" from="37" to="40" priority="3" type="highway.residential" spreadType="center" length="30.43">
        <lane id="16103_0" index="0" disallow="pedestrian tram rail_urban rail rail_electric rail_fast ship" speed="36.11" length="30.43" width="3.50" customShape="1" shape="293.49,-338.53 296.46,-340.55 299.16,-342.05 302.00,-343.22 304.39,-343.85 306.22,-344.08 308.07,-344.04 309.89,-343.73 311.64,-343.12 313.26,-342.24 314.75,-341.14 316.49,-339.40 318.00,-337.45 319.13,-335.58"/>
    </edge>

    <junction id="27" type="dead_end" x="563.82" y="-639.76" incLanes="13619_0" intLanes="" shape="562.77,-641.15 564.88,-638.36" rightOfWay="edgePriority"/>
    <junction id="29" type="dead_end" x="158.17" y="-383.28" incLanes="13652_0" intLanes="" shape="159.09,-381.79 157.25,-384.77" rightOfWay="edgePriority"/>
    <junction id="33" type="dead_end" x="161.07" y="-335.08" incLanes="" intLanes="" shape="163.20,-332.30 158.94,-337.85" rightOfWay="edgePriority"/>
    <junction id="34" type="dead_end" x="159.32" y="-342.51" incLanes="" intLanes="" shape="160.39,-341.12 158.25,-343.90" rightOfWay="edgePriority"/>
    <junction id="36" type="dead_end" x="160.55" y="-388.86" incLanes="" intLanes="" shape="161.46,-387.37 159.63,-390.35" rightOfWay="edgePriority"/>
    <junction id="37" type="priority" x="293.40" y="-338.47" incLanes="13730_0" intLanes=":37_0_0" shape="294.48,-337.09 292.51,-339.98 292.27,-339.81 294.36,-337.00" rightOfWay="edgePriority">
        <request index="0" response="0" foes="0" cont="0"/>
    </junction>
    <junction id="38" type="dead_end" x="286.01" y="-271.60" incLanes="13931_0" intLanes="" shape="287.62,-272.30 284.41,-270.91" rightOfWay="edgePriority"/>
    <junction id="40" type="priority" x="320.16" y="-333.72" incLanes="16103_0" intLanes=":40_0_0" shape="319.49,-331.05 322.65,-332.55 321.98,-334.00 321.75,-334.51 321.49,-335.00 321.16,-335.60 320.69,-336.39 317.57,-334.78 318.36,-333.44 318.60,-332.95 318.84,-332.46 319.11,-331.86" rightOfWay="edgePriority">
        <request index="0" response="0" foes="0" cont="0"/>
    </junction>
    <junction id="41" type="dead_end" x="341.88" y="-283.27" incLanes="13966_0" intLanes="" shape="343.50,-283.93 340.27,-282.61" rightOfWay="edgePriority"/>
    <junction id="42" type="dead_end" x="195.00" y="-263.36" incLanes="" intLanes="" shape="196.07,-261.98 193.93,-264.75" rightOfWay="edgePriority"/>
    <junction id="43" type="dead_end" x="338.64" y="-281.96" incLanes="" intLanes="" shape="340.26,-282.62 337.02,-281.30" rightOfWay="edgePriority"/>
    <junction id="44" type="dead_end" x="317.02" y="-332.19" incLanes="13967_0" intLanes="" shape="315.44,-331.44 318.60,-332.93" rightOfWay="edgePriority"/>
    <junction id="45" type="dead_end" x="169.27" y="-266.55" incLanes="13835_0" intLanes="" shape="170.68,-267.59 167.85,-265.52" rightOfWay="edgePriority"/>
    <junction id="46" type="dead_end" x="166.44" y="-264.49" incLanes="" intLanes="" shape="167.86,-265.52 165.03,-263.46" rightOfWay="edgePriority"/>
    <junction id="47" type="dead_end" x="147.98" y="-289.80" incLanes="13836_0" intLanes="" shape="146.57,-288.77 149.39,-290.83" rightOfWay="edgePriority"/>