<routes>
	<vehicle depart="0.1" departLane="0" departPos="16.88749465271847" departSpeed="0.010366203" id="345" type="bicycle">
		<route edges="13818 13648"/>
	</vehicle>
	<vehicle depart="0.1" departLane="0" departPos="15.147577098396003" departSpeed="0.59854849" id="317" type="passenger">
		<route edges="15759"/>
	</vehicle>
	<vehicle depart="0.1" departLane="0" departPos="12.597901860141995" departSpeed="0.025869443" id="358" type="passenger">
		<route edges="13818 13648"/>
	</vehicle>
	<vehicle depart="0.1" departLane="1" departPos="34.291218468936464" departSpeed="3.6428351" id="376" type="passenger">
		<route edges="13610 13927"/>
	</vehicle>
	<vehicle depart="0.1" departLane="0" departPos="5.735399762598791" departSpeed="0.046461565" id="382" type="passenger">
		<route edges="13818 13648"/>
	</vehicle>
	<vehicle depart="0.1" departLane="1" departPos="19.945874781013764" departSpeed="3.7911866" id="383" type="passenger">
		<route edges="13610 13927"/>
	</vehicle>
	<vehicle depart="0.1" departLane="1" departPos="10.856011725760263" departSpeed="0.5298617" id="387" type="passenger">
		<route edges="13610 13927"/>
	</vehicle>
	<vehicle depart="0.1" departLane="0" departPos="49.411262986063505" departSpeed="22.062442" id="321" type="motorcycle">
		<route edges="13810 13835"/>
	</vehicle>
</routes>
