<routes>
	<vehicle depart="0.1" departLane="0" departPos="52.87190038689831" departSpeed="0.033730058" id="37" type="bicycle">
		<route edges="11385 11216"/>
	</vehicle>
	<vehicle depart="0.1" departLane="0" departPos="11.062807250453854" departSpeed="0.24002766" id="32" type="passenger">
		<route edges=":39_3 11216 11219"/>
	</vehicle>
	<vehicle depart="0.1" departLane="0" departPos="63.270748419242146" departSpeed="0.31949921" id="34" type="passenger">
		<route edges="11385 11216"/>
	</vehicle>
	<vehicle depart="0.1" departLane="0" departPos="11.94421120574834" departSpeed="0.76464555" id="35" type="passenger">
		<route edges="11385 11216"/>
	</vehicle>
	<vehicle depart="0.1" departLane="0" departPos="27.713662503030996" departSpeed="0.75448143" id="36" type="passenger">
		<route edges="11385 11216"/>
	</vehicle>
	<vehicle depart="0.1" departLane="0" departPos="35.46907832909939" departSpeed="0.010236673" id="313" type="passenger">
		<route edges=":39_5 11212"/>
	</vehicle>
	<vehicle depart="0.1" departLane="0" departPos="7.261917261257122" departSpeed="2.2914797" id="319" type="passenger">
		<route edges=":39_5 11212"/>
	</vehicle>
	<vehicle depart="0.1" departLane="0" departPos="24.90775573088606" departSpeed="1.4752253" id="331" type="passenger">
		<route edges=":39_5 11212"/>
	</vehicle>
	<vehicle depart="0.1" departLane="0" departPos="26.566617613521885" departSpeed="0.0" id="332" type="passenger">
		<route edges="11215 11212"/>
	</vehicle>
	<vehicle depart="0.1" departLane="0" departPos="28.208518748410796" departSpeed="1.0038418" id="358" type="passenger">
		<route edges=":39_0 11216"/>
	</vehicle>
</routes>
