<routes>
	<vehicle depart="0.1" departLane="0" departPos="16.667205633701094" departSpeed="0.59490271" id="315" type="bicycle">
		<route edges="2010 3250"/>
	</vehicle>
	<vehicle depart="0.1" departLane="0" departPos="7.9933902124460925" departSpeed="0.36747717" id="320" type="passenger">
		<route edges="2010 3250"/>
	</vehicle>
	<vehicle depart="0.1" departLane="0" departPos="29.954717868249762" departSpeed="1.6844073" id="322" type="passenger">
		<route edges=":21_0 2010"/>
	</vehicle>
	<vehicle depart="0.1" departLane="0" departPos="5.79691900596166" departSpeed="9.8220577" id="323" type="passenger">
		<route edges=":21_5 1963"/>
	</vehicle>
	<vehicle depart="0.1" departLane="0" departPos="11.166373791462417" departSpeed="0.12524566" id="325" type="passenger">
		<route edges=":21_1 2010"/>
	</vehicle>
	<vehicle depart="0.1" departLane="0" departPos="18.680295302990057" departSpeed="0.0" id="328" type="passenger">
		<route edges="1965 2010"/>
	</vehicle>
	<vehicle depart="0.1" departLane="0" departPos="17.086088344472607" departSpeed="17.339596" id="331" type="passenger">
		<route edges=":22_0 2012 1920"/>
	</vehicle>
	<vehicle depart="0.1" departLane="1" departPos="8.58544355369225" departSpeed="8.2784204" id="338" type="passenger">
		<route edges="2003 2010"/>
	</vehicle>
	<vehicle depart="0.1" departLane="0" departPos="3.462250591977956" departSpeed="0.0069393478" id="330" type="motorcycle">
		<route edges=":21_1 2010"/>
	</vehicle>
</routes>
