<routes>
	<vehicle depart="0.1" departLane="0" departPos="22.741578874007118" departSpeed="7.9091699" id="39" type="passenger">
		<route edges=":55_3 72275 72272 72269"/>
	</vehicle>
	<vehicle depart="0.1" departLane="0" departPos="15.808495118780126" departSpeed="0.20325879" id="310" type="passenger">
		<route edges="71835 71976"/>
	</vehicle>
	<vehicle depart="0.1" departLane="0" departPos="2.5" departSpeed="0.48545763" id="315" type="passenger">
		<route edges=":55_1 71895"/>
	</vehicle>
	<vehicle depart="0.1" departLane="0" departPos="54.586706450184" departSpeed="2.171165" id="330" type="passenger">
		<route edges="71894 72275"/>
	</vehicle>
	<vehicle depart="0.1" departLane="0" departPos="44.430143533394315" departSpeed="3.3327522" id="334" type="passenger">
		<route edges="71894 72275"/>
	</vehicle>
	<vehicle depart="0.1" departLane="0" departPos="33.457855386633554" departSpeed="2.5784456" id="339" type="passenger">
		<route edges="71894 72275"/>
	</vehicle>
	<vehicle depart="0.1" departLane="0" departPos="24.67763300594689" departSpeed="2.0238029" id="344" type="passenger">
		<route edges="71894 72275"/>
	</vehicle>
	<vehicle depart="0.1" departLane="0" departPos="13.258753104415455" departSpeed="1.5539238" id="347" type="passenger">
		<route edges="71894 72275"/>
	</vehicle>
	<vehicle depart="0.1" departLane="0" departPos="4.593592474532519" departSpeed="1.1327652" id="349" type="passenger">
		<route edges="71894 72275"/>
	</vehicle>
	<vehicle depart="0.1" departLane="0" departPos="19.915377390375404" departSpeed="0.63207264" id="30" type="truck">
		<route edges=":55_1 71895"/>
	</vehicle>
</routes>
