<!-- generated on Tue Feb  9 22:04:23 2021 by Eclipse SUMO netconvert Version 1.8.0
<configuration xmlns:xsi="http://www.w3.org/2001/XMLSchema-instance" xsi:noNamespaceSchemaLocation="http://sumo.dlr.de/xsd/netconvertConfiguration.xsd">

    <input>
        <node-files value="./converted_scenarios/scenario-factory/ESP_Ceuta-15_1_I-1-1/ESP_Ceuta-15_1_I-1-1.nod.xml"/>
        <edge-files value="./converted_scenarios/scenario-factory/ESP_Ceuta-15_1_I-1-1/ESP_Ceuta-15_1_I-1-1.edg.xml"/>
        <connection-files value="./converted_scenarios/scenario-factory/ESP_Ceuta-15_1_I-1-1/ESP_Ceuta-15_1_I-1-1.con.xml"/>
        <tllogic-files value="./converted_scenarios/scenario-factory/ESP_Ceuta-15_1_I-1-1/ESP_Ceuta-15_1_I-1-1.tll.xml"/>
        <type-files value="/home/zen/commonroad-interactive-benchmarks/install/commonroad-map-tool/crmapconverter/sumo_map/templates/DEU.typ.xml"/>
    </input>

    <output>
        <output-file value="./converted_scenarios/scenario-factory/ESP_Ceuta-15_1_I-1-1/ESP_Ceuta-15_1_I-1-1.net.xml"/>
    </output>

    <processing>
        <geometry.remove.keep-edges.explicit value="true"/>
        <geometry.avoid-overlap value="true"/>
        <offset.disable-normalization value="true"/>
    </processing>

    <junctions>
        <no-turnarounds value="true"/>
        <junctions.internal-link-detail value="20"/>
    </junctions>

    <report>
        <aggregate-warnings value="5"/>
    </report>

    <random_number>
        <seed value="1234"/>
    </random_number>

</configuration>
--><net xmlns:xsi="http://www.w3.org/2001/XMLSchema-instance" version="1.6" junctionCornerDetail="5" junctionLinkDetail="20" limitTurnSpeed="5.50" xsi:noNamespaceSchemaLocation="http://sumo.dlr.de/xsd/net_file.xsd">

    <location netOffset="0.00,0.00" convBoundary="-270.25,-1024.14,-146.29,-848.87" origBoundary="-270.25,-1031.46,-146.29,-848.87" projParameter="!"/>

    <type id="highway.bridleway" priority="1" speed="2.78" allow="pedestrian" oneway="1" width="2.00"/>
    <type id="highway.bus_guideway" priority="1" speed="27.78" allow="bus" oneway="1"/>
    <type id="highway.cycleway" priority="1" speed="8.33" allow="bicycle" oneway="0" width="1.00"/>
    <type id="highway.footway" priority="1" speed="2.78" allow="pedestrian" oneway="1" width="2.00"/>
    <type id="highway.ford" priority="1" speed="2.78" allow="army" oneway="0"/>
    <type id="highway.living_street" priority="2" speed="2.78" disallow="tram rail_urban rail rail_electric rail_fast ship" oneway="0"/>
    <type id="highway.motorway" priority="14" speed="39.44" allow="private emergency authority army vip passenger hov taxi bus coach delivery truck trailer motorcycle evehicle custom1 custom2" oneway="1"/>
    <type id="highway.motorway_link" priority="9" speed="22.22" allow="private emergency authority army vip passenger hov taxi bus coach delivery truck trailer motorcycle evehicle custom1 custom2" oneway="1"/>
    <type id="highway.path" priority="1" speed="2.78" allow="pedestrian bicycle" oneway="0" width="2.00"/>
    <type id="highway.pedestrian" priority="1" speed="2.78" allow="pedestrian" oneway="1" width="2.00"/>
    <type id="highway.primary" priority="12" speed="27.78" disallow="pedestrian tram rail_urban rail rail_electric rail_fast ship" oneway="0"/>
    <type id="highway.primary_link" priority="7" speed="22.22" disallow="pedestrian tram rail_urban rail rail_electric rail_fast ship" oneway="0"/>
    <type id="highway.raceway" priority="15" speed="83.33" allow="vip" oneway="0"/>
    <type id="highway.residential" priority="3" speed="13.89" disallow="pedestrian tram rail_urban rail rail_electric rail_fast ship" oneway="0"/>
    <type id="highway.secondary" priority="11" speed="27.78" disallow="pedestrian tram rail_urban rail rail_electric rail_fast ship" oneway="0"/>
    <type id="highway.secondary_link" priority="6" speed="22.22" disallow="pedestrian tram rail_urban rail rail_electric rail_fast ship" oneway="0"/>
    <type id="highway.service" priority="1" speed="5.56" allow="pedestrian delivery bicycle" oneway="0"/>
    <type id="highway.stairs" priority="1" speed="1.39" allow="pedestrian" oneway="1" width="2.00"/>
    <type id="highway.step" priority="1" speed="1.39" allow="pedestrian" oneway="1" width="2.00"/>
    <type id="highway.steps" priority="1" speed="1.39" allow="pedestrian" oneway="1" width="2.00"/>
    <type id="highway.tertiary" priority="10" speed="22.22" disallow="pedestrian tram rail_urban rail rail_electric rail_fast ship" oneway="0"/>
    <type id="highway.tertiary_link" priority="5" speed="22.22" disallow="pedestrian tram rail_urban rail rail_electric rail_fast ship" oneway="0"/>
    <type id="highway.track" priority="1" speed="5.56" allow="pedestrian motorcycle moped bicycle" oneway="0"/>
    <type id="highway.trunk" priority="13" speed="27.78" disallow="pedestrian bicycle tram rail_urban rail rail_electric rail_fast ship" oneway="0"/>
    <type id="highway.trunk_link" priority="8" speed="22.22" disallow="pedestrian bicycle tram rail_urban rail rail_electric rail_fast ship" oneway="0"/>
    <type id="highway.unclassified" priority="4" speed="13.89" disallow="pedestrian tram rail_urban rail rail_electric rail_fast ship" oneway="0"/>
    <type id="highway.unsurfaced" priority="1" speed="8.33" disallow="tram rail_urban rail rail_electric rail_fast ship" oneway="0"/>
    <type id="railway.highspeed" priority="21" speed="69.44" allow="rail_fast" oneway="1"/>
    <type id="railway.light_rail" priority="19" speed="27.78" allow="rail_urban" oneway="1"/>
    <type id="railway.preserved" priority="16" speed="27.78" allow="rail" oneway="1"/>
    <type id="railway.rail" priority="20" speed="44.44" allow="rail" oneway="1"/>
    <type id="railway.subway" priority="18" speed="27.78" allow="rail_urban" oneway="1"/>
    <type id="railway.tram" priority="17" speed="13.89" allow="tram" oneway="1"/>

    <edge id=":17_0" function="internal">
        <lane id=":17_0_0" index="0" disallow="pedestrian tram rail_urban rail rail_electric rail_fast ship" speed="36.11" length="4.71" width="3.50" shape="-178.33,-945.52 -183.03,-945.80"/>
    </edge>
    <edge id=":53_0" function="internal">
        <lane id=":53_0_0" index="0" disallow="pedestrian tram rail_urban rail rail_electric rail_fast ship" speed="36.11" length="5.09" width="3.50" shape="-182.97,-949.31 -177.89,-949.01"/>
    </edge>
    <edge id=":55_0" function="internal">
        <lane id=":55_0_0" index="0" disallow="pedestrian tram rail_urban rail rail_electric rail_fast ship" speed="10.46" length="24.18" width="3.49" shape="-192.92,-989.30 -197.97,-989.84 -201.99,-990.08 -205.01,-990.09 -207.02,-989.98 -209.01,-989.73 -210.00,-989.54 -210.98,-989.29 -211.93,-988.97 -212.84,-988.54 -213.68,-988.00 -214.41,-987.30 -214.94,-986.44 -215.22,-985.49"/>
    </edge>
    <edge id=":55_1" function="internal">
        <lane id=":55_1_0" index="0" disallow="pedestrian tram rail_urban rail rail_electric rail_fast ship" speed="15.85" length="29.78" width="3.50" shape="-192.92,-989.30 -194.08,-989.53 -195.16,-989.90 -196.20,-990.39 -198.12,-991.62 -199.87,-993.10 -202.22,-995.60 -204.33,-998.31 -206.87,-1002.11 -209.72,-1007.07 -211.82,-1011.14"/>
    </edge>
    <edge id=":55_2" function="internal">
        <lane id=":55_2_0" index="0" disallow="pedestrian tram rail_urban rail rail_electric rail_fast ship" speed="14.97" length="26.56" width="3.50" shape="-208.78,-1012.87 -206.74,-1008.91 -204.11,-1004.30 -201.82,-1000.77 -199.95,-998.30 -197.90,-996.02 -196.45,-994.72 -194.87,-993.63 -194.11,-993.24 -193.32,-992.95 -192.48,-992.77"/>
    </edge>
    <edge id=":55_3" function="internal">
        <lane id=":55_3_0" index="0" disallow="pedestrian tram rail_urban rail rail_electric rail_fast ship" speed="19.63" length="29.00" width="3.49" shape="-208.78,-1012.87 -208.24,-1011.67 -207.90,-1010.62 -207.68,-1009.53 -207.56,-1008.43 -207.64,-1006.22 -208.07,-1004.05 -209.13,-1000.90 -211.43,-995.85 -213.28,-991.82 -214.44,-988.71 -215.02,-986.57 -215.22,-985.49"/>
    </edge>
    <edge id=":55_4" function="internal">
        <lane id=":55_4_0" index="0" disallow="pedestrian tram rail_urban rail rail_electric rail_fast ship" speed="18.64" length="26.72" width="3.50" shape="-218.67,-986.06 -218.45,-987.20 -217.84,-989.42 -216.63,-992.56 -214.75,-996.48 -212.47,-1001.23 -211.45,-1004.05 -211.04,-1005.89 -210.94,-1007.76 -211.02,-1008.61 -211.20,-1009.47 -211.46,-1010.32 -211.82,-1011.14"/>
    </edge>
    <edge id=":55_5" function="internal">
        <lane id=":55_5_0" index="0" disallow="pedestrian tram rail_urban rail rail_electric rail_fast ship" speed="11.54" length="29.45" width="3.50" shape="-218.67,-986.07 -218.31,-987.42 -217.63,-988.77 -216.69,-989.91 -215.61,-990.82 -214.46,-991.53 -213.29,-992.07 -212.10,-992.49 -210.89,-992.82 -208.55,-993.24 -206.20,-993.47 -202.73,-993.56 -198.16,-993.36 -192.48,-992.77"/>
    </edge>
    <edge id=":56_0" function="internal">
        <lane id=":56_0_0" index="0" disallow="pedestrian tram rail_urban rail rail_electric rail_fast ship" speed="10.28" length="21.05" width="3.48" shape="-200.14,-947.07 -204.27,-947.30 -208.39,-947.36 -211.48,-947.24 -213.53,-947.03 -215.55,-946.66 -216.55,-946.40 -217.52,-946.06 -218.45,-945.62 -219.30,-945.04 -219.99,-944.28 -220.27,-943.94"/>
    </edge>
    <edge id=":56_1" function="internal">
        <lane id=":56_1_0" index="0" disallow="pedestrian tram rail_urban rail rail_electric rail_fast ship" speed="10.60" length="28.37" width="3.50" shape="-200.14,-947.07 -204.38,-947.53 -207.18,-948.03 -209.92,-948.75 -212.57,-949.75 -213.84,-950.39 -215.05,-951.13 -216.16,-952.01 -217.16,-953.01 -218.00,-954.15 -218.66,-955.41 -219.10,-956.76 -219.34,-958.15 -219.39,-959.57 -219.28,-960.98 -219.04,-962.38"/>
    </edge>
    <edge id=":56_2" function="internal">
        <lane id=":56_2_0" index="0" disallow="pedestrian tram rail_urban rail rail_electric rail_fast ship" speed="9.43" length="22.30" width="3.50" shape="-215.62,-961.66 -215.80,-960.58 -215.87,-959.53 -215.81,-958.51 -215.61,-957.54 -215.26,-956.63 -214.75,-955.78 -214.10,-955.01 -213.32,-954.32 -212.44,-953.70 -211.47,-953.16 -210.47,-952.70 -208.24,-951.92 -205.92,-951.35 -203.55,-950.94 -199.89,-950.56"/>
    </edge>
    <edge id=":56_3" function="internal">
        <lane id=":56_3_0" index="0" disallow="pedestrian tram rail_urban rail rail_electric rail_fast ship" speed="36.11" length="18.32" width="3.48" shape="-215.62,-961.66 -216.35,-958.52 -220.27,-943.94"/>
    </edge>
    <edge id=":56_4" function="internal">
        <lane id=":56_4_0" index="0" disallow="pedestrian tram rail_urban rail rail_electric rail_fast ship" speed="36.11" length="18.15" width="3.50" shape="-223.63,-944.82 -219.75,-959.33 -219.04,-962.38"/>
    </edge>
    <edge id=":56_5" function="internal">
        <lane id=":56_5_0" index="0" disallow="pedestrian tram rail_urban rail rail_electric rail_fast ship" speed="11.53" length="25.79" width="3.50" shape="-223.63,-944.82 -223.23,-945.65 -222.29,-946.93 -221.17,-947.91 -219.99,-948.64 -218.78,-949.19 -217.55,-949.62 -215.17,-950.20 -212.77,-950.56 -209.22,-950.81 -204.54,-950.80 -199.89,-950.56"/>
    </edge>
    <edge id=":57_0" function="internal">
        <lane id=":57_0_0" index="0" disallow="pedestrian tram rail_urban rail rail_electric rail_fast ship" speed="10.63" length="23.51" width="3.50" shape="-195.45,-969.49 -198.51,-969.71 -201.59,-969.75 -204.65,-969.55 -206.68,-969.24 -208.66,-968.74 -209.63,-968.40 -210.57,-967.99 -211.47,-967.51 -212.33,-966.95 -213.11,-966.29 -213.82,-965.55 -214.42,-964.72 -214.91,-963.82 -215.30,-962.87 -215.56,-961.93"/>
    </edge>
    <edge id=":57_1" function="internal">
        <lane id=":57_1_0" index="0" disallow="pedestrian tram rail_urban rail rail_electric rail_fast ship" speed="11.57" length="32.16" width="3.50" shape="-195.45,-969.49 -200.56,-970.13 -204.34,-970.87 -208.06,-971.91 -210.47,-972.83 -212.76,-973.99 -213.85,-974.68 -214.88,-975.45 -215.84,-976.31 -216.69,-977.27 -217.43,-978.32 -218.03,-979.46 -218.47,-980.67 -218.75,-981.92 -218.88,-983.20 -218.86,-984.49 -218.72,-985.77"/>
    </edge>
    <edge id=":57_2" function="internal">
        <lane id=":57_2_0" index="0" disallow="pedestrian tram rail_urban rail rail_electric rail_fast ship" speed="10.50" length="26.48" width="3.50" shape="-215.25,-985.30 -215.37,-984.26 -215.37,-983.30 -215.25,-982.37 -215.01,-981.47 -214.64,-980.62 -214.15,-979.82 -213.55,-979.07 -212.85,-978.38 -212.06,-977.75 -211.20,-977.17 -210.31,-976.66 -208.32,-975.74 -206.26,-975.01 -203.00,-974.16 -199.66,-973.54 -195.12,-972.97"/>
    </edge>
    <edge id=":57_3" function="internal">
        <lane id=":57_3_0" index="0" disallow="pedestrian tram rail_urban rail rail_electric rail_fast ship" speed="36.11" length="23.44" width="3.50" shape="-215.25,-985.30 -215.55,-982.25 -215.56,-979.21 -215.21,-973.97 -214.93,-968.59 -215.06,-965.24 -215.56,-961.93"/>
    </edge>
    <edge id=":57_4" function="internal">
        <lane id=":57_4_0" index="0" disallow="pedestrian tram rail_urban rail rail_electric rail_fast ship" speed="36.11" length="23.19" width="3.50" shape="-218.98,-962.65 -218.52,-965.76 -218.40,-968.92 -218.68,-974.19 -219.03,-979.45 -219.03,-982.62 -218.72,-985.77"/>
    </edge>
    <edge id=":57_5" function="internal">
        <lane id=":57_5_0" index="0" disallow="pedestrian tram rail_urban rail rail_electric rail_fast ship" speed="11.74" length="28.62" width="3.50" shape="-218.98,-962.65 -218.65,-963.89 -218.18,-965.12 -217.57,-966.31 -216.82,-967.43 -215.94,-968.44 -214.97,-969.35 -213.91,-970.13 -212.80,-970.80 -211.65,-971.36 -210.45,-971.83 -208.11,-972.51 -205.70,-972.94 -202.15,-973.23 -198.61,-973.21 -195.12,-972.97"/>
    </edge>
    <edge id=":58_0" function="internal">
        <lane id=":58_0_0" index="0" disallow="pedestrian tram rail_urban rail rail_electric rail_fast ship" speed="36.11" length="19.98" width="3.50" shape="-158.01,-977.23 -158.35,-967.19 -158.69,-957.26"/>
    </edge>
    <edge id=":58_1" function="internal">
        <lane id=":58_1_0" index="0" disallow="pedestrian tram rail_urban rail rail_electric rail_fast ship" speed="10.44" length="25.97" width="3.50" shape="-158.01,-977.23 -158.15,-975.79 -158.46,-974.47 -158.98,-973.21 -159.71,-972.06 -160.63,-971.06 -161.71,-970.22 -162.88,-969.53 -164.13,-968.99 -165.43,-968.56 -168.09,-968.00 -170.80,-967.72 -174.89,-967.67 -178.97,-967.93"/>
    </edge>
    <edge id=":58_2" function="internal">
        <lane id=":58_2_0" index="0" disallow="pedestrian tram rail_urban rail rail_electric rail_fast ship" speed="9.23" length="20.16" width="3.50" shape="-178.64,-971.42 -175.11,-971.18 -171.61,-971.18 -169.34,-971.37 -167.12,-971.76 -166.10,-972.04 -165.12,-972.41 -164.22,-972.86 -163.43,-973.38 -162.76,-974.00 -162.24,-974.68 -161.86,-975.45 -161.61,-976.32 -161.51,-977.31"/>
    </edge>
    <edge id=":58_3" function="internal">
        <lane id=":58_3_0" index="0" disallow="pedestrian tram rail_urban rail rail_electric rail_fast ship" speed="11.18" length="27.18" width="3.50" shape="-178.64,-971.42 -175.04,-970.97 -171.46,-970.26 -169.07,-969.58 -166.71,-968.67 -164.46,-967.50 -163.35,-966.75 -162.31,-965.89 -161.36,-964.92 -160.52,-963.83 -159.81,-962.62 -159.27,-961.33 -158.91,-959.97 -158.73,-958.61 -158.69,-957.26"/>
    </edge>
    <edge id=":58_4" function="internal">
        <lane id=":58_4_0" index="0" disallow="pedestrian tram rail_urban rail rail_electric rail_fast ship" speed="10.09" length="21.92" width="3.50" shape="-162.19,-957.35 -162.22,-958.39 -162.38,-959.42 -162.68,-960.42 -163.13,-961.37 -163.71,-962.23 -164.39,-963.02 -165.17,-963.72 -166.01,-964.33 -166.91,-964.87 -168.79,-965.76 -170.76,-966.45 -172.78,-966.98 -175.86,-967.56 -178.97,-967.93"/>
    </edge>
    <edge id=":58_5" function="internal">
        <lane id=":58_5_0" index="0" disallow="pedestrian tram rail_urban rail rail_electric rail_fast ship" speed="36.11" length="19.97" width="3.50" shape="-162.19,-957.35 -161.85,-967.31 -161.51,-977.31"/>
    </edge>
    <edge id=":59_0" function="internal">
        <lane id=":59_0_0" index="0" disallow="pedestrian tram rail_urban rail rail_electric rail_fast ship" speed="36.11" length="29.48" width="3.50" shape="-157.00,-1006.90 -157.50,-992.13 -158.01,-977.44"/>
    </edge>
    <edge id=":59_1" function="internal">
        <lane id=":59_1_0" index="0" disallow="pedestrian tram rail_urban rail rail_electric rail_fast ship" speed="11.90" length="34.86" width="3.50" shape="-157.00,-1006.90 -157.34,-1002.86 -157.83,-1000.22 -158.59,-997.66 -159.68,-995.21 -160.36,-994.06 -161.14,-992.97 -162.01,-991.95 -162.98,-991.03 -164.04,-990.21 -165.17,-989.49 -166.37,-988.89 -167.61,-988.39 -170.20,-987.69 -172.85,-987.34 -175.53,-987.27 -179.54,-987.58"/>
    </edge>
    <edge id=":59_2" function="internal">
        <lane id=":59_2_0" index="0" disallow="pedestrian tram rail_urban rail rail_electric rail_fast ship" speed="10.87" length="28.92" width="3.50" shape="-179.11,-991.05 -175.62,-990.78 -173.35,-990.84 -171.13,-991.13 -168.99,-991.71 -168.02,-992.10 -167.07,-992.58 -166.18,-993.15 -165.35,-993.79 -164.59,-994.52 -163.90,-995.32 -163.28,-996.18 -162.74,-997.08 -161.84,-999.12 -161.20,-1001.27 -160.79,-1003.50 -160.50,-1007.01"/>
    </edge>
    <edge id=":59_3" function="internal">
        <lane id=":59_3_0" index="0" disallow="pedestrian tram rail_urban rail rail_electric rail_fast ship" speed="11.41" length="27.49" width="3.50" shape="-179.11,-991.05 -174.50,-990.32 -171.05,-989.54 -167.66,-988.48 -165.41,-987.53 -163.26,-986.34 -162.20,-985.60 -161.21,-984.76 -160.29,-983.80 -159.48,-982.71 -158.82,-981.50 -158.34,-980.18 -158.07,-978.81 -158.01,-977.44"/>
    </edge>
    <edge id=":59_4" function="internal">
        <lane id=":59_4_0" index="0" disallow="pedestrian tram rail_urban rail rail_electric rail_fast ship" speed="10.34" length="22.38" width="3.50" shape="-161.50,-977.52 -161.56,-978.53 -161.78,-979.53 -162.18,-980.46 -162.74,-981.31 -163.41,-982.08 -164.17,-982.75 -164.99,-983.35 -165.86,-983.88 -167.69,-984.77 -169.60,-985.48 -172.53,-986.32 -175.52,-986.96 -179.54,-987.58"/>
    </edge>
    <edge id=":59_5" function="internal">
        <lane id=":59_5_0" index="0" disallow="pedestrian tram rail_urban rail rail_electric rail_fast ship" speed="36.11" length="29.51" width="3.50" shape="-161.50,-977.52 -161.00,-992.25 -160.50,-1007.01"/>
    </edge>
    <edge id=":60_0" function="internal">
        <lane id=":60_0_0" index="0" disallow="pedestrian tram rail_urban rail rail_electric rail_fast ship" speed="11.80" length="27.96" width="3.50" shape="-206.23,-933.59 -209.44,-933.75 -211.59,-933.65 -213.72,-933.33 -215.80,-932.77 -217.79,-931.95 -219.64,-930.87 -221.33,-929.53 -222.81,-927.97 -224.09,-926.24 -225.18,-924.38 -226.08,-922.43 -227.13,-919.38"/>
    </edge>
    <edge id=":60_1" function="internal">
        <lane id=":60_1_0" index="0" disallow="pedestrian tram rail_urban rail rail_electric rail_fast ship" speed="9.60" length="23.48" width="3.50" shape="-206.23,-933.59 -209.81,-934.05 -213.39,-934.70 -215.79,-935.31 -218.16,-936.11 -219.36,-936.65 -220.53,-937.31 -221.66,-938.14 -222.68,-939.21 -223.47,-940.53 -223.93,-942.10 -223.69,-944.63"/>
    </edge>
    <edge id=":60_2" function="internal">
        <lane id=":60_2_0" index="0" disallow="pedestrian tram rail_urban rail rail_electric rail_fast ship" speed="8.51" length="17.66" width="3.50" shape="-220.32,-943.75 -220.49,-942.11 -220.05,-941.21 -219.34,-940.51 -218.50,-939.96 -217.60,-939.52 -216.67,-939.15 -215.71,-938.83 -213.77,-938.32 -211.81,-937.91 -208.84,-937.43 -205.88,-937.07"/>
    </edge>
    <edge id=":60_3" function="internal">
        <lane id=":60_3_0" index="0" disallow="pedestrian tram rail_urban rail rail_electric rail_fast ship" speed="36.11" length="25.30" width="3.50" shape="-220.32,-943.75 -224.17,-929.68 -227.13,-919.38"/>
    </edge>
    <edge id=":60_4" function="internal">
        <lane id=":60_4_0" index="0" disallow="pedestrian tram rail_urban rail rail_electric rail_fast ship" speed="36.11" length="25.25" width="3.50" shape="-230.51,-920.32 -227.55,-930.61 -223.69,-944.63"/>
    </edge>
    <edge id=":60_5" function="internal">
        <lane id=":60_5_0" index="0" disallow="pedestrian tram rail_urban rail rail_electric rail_fast ship" speed="12.77" length="32.90" width="3.50" shape="-230.51,-920.32 -229.28,-923.84 -228.23,-926.12 -226.96,-928.30 -225.44,-930.35 -223.67,-932.21 -221.64,-933.81 -219.40,-935.12 -217.02,-936.10 -214.56,-936.76 -212.05,-937.13 -209.54,-937.26 -205.88,-937.07"/>
    </edge>
    <edge id=":61_0" function="internal">
        <lane id=":61_0_0" index="0" disallow="pedestrian tram rail_urban rail rail_electric rail_fast ship" speed="36.11" length="37.55" width="3.50" shape="-150.99,-949.27 -151.25,-943.01 -151.15,-934.66 -150.68,-920.06 -150.79,-912.76 -150.84,-911.74"/>
    </edge>
    <edge id=":61_1" function="internal">
        <lane id=":61_1_0" index="0" disallow="pedestrian tram rail_urban rail rail_electric rail_fast ship" speed="12.08" length="34.45" width="3.50" shape="-150.99,-949.27 -151.47,-945.32 -152.06,-942.73 -152.91,-940.23 -154.07,-937.84 -154.78,-936.73 -155.58,-935.67 -156.47,-934.69 -157.44,-933.79 -158.49,-932.98 -159.61,-932.28 -160.79,-931.67 -162.02,-931.17 -164.56,-930.44 -167.18,-930.04 -169.83,-929.91 -173.80,-930.13"/>
    </edge>
    <edge id=":61_2" function="internal">
        <lane id=":61_2_0" index="0" disallow="pedestrian tram rail_urban rail rail_electric rail_fast ship" speed="11.07" length="28.75" width="3.50" shape="-173.45,-933.61 -169.98,-933.42 -167.73,-933.53 -165.53,-933.86 -163.40,-934.47 -162.44,-934.87 -161.50,-935.36 -160.60,-935.92 -159.76,-936.56 -158.99,-937.27 -158.28,-938.06 -157.64,-938.91 -157.08,-939.78 -156.11,-941.78 -155.40,-943.88 -154.90,-946.08 -154.48,-949.52"/>
    </edge>
    <edge id=":61_3" function="internal">
        <lane id=":61_3_0" index="0" disallow="pedestrian tram rail_urban rail rail_electric rail_fast ship" speed="12.54" length="35.49" width="3.50" shape="-173.45,-933.61 -172.20,-933.46 -168.61,-932.86 -165.05,-931.93 -162.69,-931.07 -160.41,-929.99 -158.24,-928.65 -156.23,-927.01 -154.50,-925.11 -153.70,-923.98 -152.46,-921.71 -151.58,-919.27 -151.05,-916.76 -150.82,-914.23 -150.84,-911.74"/>
    </edge>
    <edge id=":61_4" function="internal">
        <lane id=":61_4_0" index="0" disallow="pedestrian tram rail_urban rail rail_electric rail_fast ship" speed="11.58" length="30.11" width="3.50" shape="-154.33,-911.92 -154.31,-914.06 -154.52,-916.20 -154.98,-918.30 -155.73,-920.31 -156.79,-922.18 -157.43,-923.05 -158.91,-924.62 -160.59,-925.95 -162.44,-927.06 -164.39,-927.96 -166.42,-928.68 -169.55,-929.48 -172.73,-930.00 -173.80,-930.13"/>
    </edge>
    <edge id=":61_5" function="internal">
        <lane id=":61_5_0" index="0" disallow="pedestrian tram rail_urban rail rail_electric rail_fast ship" speed="36.11" length="37.62" width="3.50" shape="-154.33,-911.92 -154.28,-912.91 -154.17,-920.15 -154.64,-934.74 -154.74,-943.15 -154.48,-949.52"/>
    </edge>

    <edge id="71835" from="57" to="58" priority="3" type="highway.residential" spreadType="center" length="16.55" shape="-209.65,-974.76 -166.07,-969.80">
        <lane id="71835_0" index="0" disallow="pedestrian tram rail_urban rail rail_electric rail_fast ship" speed="36.11" length="16.55" width="3.50" customShape="1" shape="-195.12,-972.97 -186.88,-972.20 -178.64,-971.42"/>
    </edge>
    <edge id="71836" from="58" to="57" priority="3" type="highway.residential" spreadType="center" length="16.55" shape="-166.47,-966.33 -210.04,-971.28">
        <lane id="71836_0" index="0" disallow="pedestrian tram rail_urban rail rail_electric rail_fast ship" speed="36.11" length="16.55" width="3.50" customShape="1" shape="-178.97,-967.93 -187.21,-968.71 -195.45,-969.49"/>
    </edge>
    <edge id="71876" from="60" to="61" priority="3" type="highway.residential" spreadType="center" length="32.63" shape="-218.96,-934.64 -159.54,-932.78">
        <lane id="71876_0" index="0" disallow="pedestrian tram rail_urban rail rail_electric rail_fast ship" speed="36.11" length="32.63" width="3.50" customShape="1" shape="-205.88,-937.07 -189.64,-935.34 -173.43,-933.61"/>
    </edge>
    <edge id="71877" from="61" to="60" priority="3" type="highway.residential" spreadType="center" length="32.63" shape="-159.65,-929.28 -219.07,-931.15">
        <lane id="71877_0" index="0" disallow="pedestrian tram rail_urban rail rail_electric rail_fast ship" speed="36.11" length="32.63" width="3.50" customShape="1" shape="-173.80,-930.13 -190.01,-931.86 -206.25,-933.59"/>
    </edge>
    <edge id="71891" from="55" to="59" priority="3" type="highway.residential" spreadType="center" length="13.49" shape="-206.42,-997.99 -165.65,-992.97">
        <lane id="71891_0" index="0" disallow="pedestrian tram rail_urban rail rail_electric rail_fast ship" speed="36.11" length="13.49" width="3.50" customShape="1" shape="-192.48,-992.77 -185.80,-991.91 -179.10,-991.05"/>
    </edge>
    <edge id="71892" from="59" to="55" priority="3" type="highway.residential" spreadType="center" length="13.53" shape="-166.08,-989.50 -206.85,-994.52">
        <lane id="71892_0" index="0" disallow="pedestrian tram rail_urban rail rail_electric rail_fast ship" speed="36.11" length="13.53" width="3.50" customShape="1" shape="-179.54,-987.58 -186.25,-988.44 -192.96,-989.30"/>
    </edge>
    <edge id="71894" from="49" to="55" priority="3" type="highway.residential" spreadType="center" length="69.81" shape="-267.68,-1016.23 -206.09,-997.91">
        <lane id="71894_0" index="0" disallow="pedestrian tram rail_urban rail rail_electric rail_fast ship" speed="36.11" length="69.81" width="3.50" customShape="1" shape="-267.68,-1016.23 -264.02,-1019.11 -259.28,-1022.38 -254.79,-1025.06 -250.13,-1027.43 -245.31,-1029.45 -240.85,-1030.95 -238.79,-1031.34 -236.71,-1031.46 -234.62,-1031.32 -232.57,-1030.94 -230.07,-1030.16 -227.67,-1029.13 -223.46,-1027.03 -219.88,-1024.87 -216.92,-1022.71 -214.19,-1020.27 -212.08,-1017.95 -210.23,-1015.42 -208.78,-1012.87"/>
    </edge>
    <edge id="71895" from="55" to="25" priority="3" type="highway.residential" spreadType="center" length="70.00" shape="-206.99,-994.54 -270.25,-1009.43">
        <lane id="71895_0" index="0" disallow="pedestrian tram rail_urban rail rail_electric rail_fast ship" speed="36.11" length="70.00" width="3.50" customShape="1" shape="-211.82,-1011.14 -213.23,-1013.62 -214.93,-1015.91 -216.89,-1018.02 -219.45,-1020.25 -222.23,-1022.22 -225.63,-1024.22 -229.63,-1026.17 -231.83,-1027.07 -234.07,-1027.68 -235.86,-1027.91 -237.66,-1027.91 -239.49,-1027.62 -241.31,-1027.14 -245.45,-1025.62 -250.00,-1023.59 -254.39,-1021.24 -258.63,-1018.61 -263.11,-1015.41 -267.80,-1011.62 -270.25,-1009.43"/>
    </edge>
    <edge id="71973" from="53" to="58" priority="3" type="highway.residential" spreadType="center" length="20.10" shape="-180.43,-949.12 -167.74,-969.12">
        <lane id="71973_0" index="0" disallow="pedestrian tram rail_urban rail rail_electric rail_fast ship" speed="36.11" length="20.10" width="3.50" customShape="1" shape="-177.89,-949.01 -175.77,-948.96 -172.32,-949.15 -170.11,-949.48 -167.97,-950.04 -167.00,-950.40 -166.06,-950.84 -165.20,-951.36 -164.43,-951.96 -163.77,-952.64 -163.23,-953.39 -162.80,-954.22 -162.49,-955.12 -162.29,-956.08 -162.20,-957.15 -162.19,-957.36"/>
    </edge>
    <edge id="71975" from="59" to="58" priority="3" type="highway.residential" spreadType="center" length="0.29" shape="-164.20,-991.35 -164.59,-968.04">
        <lane id="71975_0" index="0" disallow="pedestrian tram rail_urban rail rail_electric rail_fast ship" speed="36.11" length="0.29" width="3.50" customShape="1" shape="-158.01,-977.44 -158.01,-977.27 -158.01,-977.15"/>
    </edge>
    <edge id="71976" from="58" to="59" priority="3" type="highway.residential" spreadType="center" length="0.22" shape="-168.09,-968.10 -167.68,-991.41">
        <lane id="71976_0" index="0" disallow="pedestrian tram rail_urban rail rail_electric rail_fast ship" speed="36.11" length="0.22" width="3.50" customShape="1" shape="-161.51,-977.31 -161.50,-977.53"/>
    </edge>
    <edge id="71978" from="50" to="59" priority="3" type="highway.residential" spreadType="center" length="17.17" shape="-156.42,-1024.03 -164.26,-990.76">
        <lane id="71978_0" index="0" disallow="pedestrian tram rail_urban rail rail_electric rail_fast ship" speed="36.11" length="17.17" width="3.50" customShape="1" shape="-156.42,-1024.03 -156.71,-1015.44 -157.00,-1006.87"/>
    </edge>
    <edge id="71979" from="59" to="36" priority="3" type="highway.residential" spreadType="center" length="17.14" shape="-167.66,-991.56 -159.91,-1024.14">
        <lane id="71979_0" index="0" disallow="pedestrian tram rail_urban rail rail_electric rail_fast ship" speed="36.11" length="17.14" width="3.50" customShape="1" shape="-160.50,-1007.01 -160.21,-1015.56 -159.91,-1024.14"/>
    </edge>
    <edge id="72266" from="60" to="43" priority="3" type="highway.residential" spreadType="center" length="49.38" shape="-217.27,-932.77 -223.50,-871.60">
        <lane id="72266_0" index="0" disallow="pedestrian tram rail_urban rail rail_electric rail_fast ship" speed="36.11" length="49.38" width="3.50" customShape="1" shape="-227.13,-919.38 -228.06,-916.05 -229.30,-910.76 -230.10,-905.88 -230.51,-901.46 -230.60,-897.01 -230.34,-892.58 -229.78,-888.67 -228.80,-884.33 -227.61,-880.57 -225.92,-876.45 -223.50,-871.60"/>
    </edge>
    <edge id="72267" from="51" to="60" priority="3" type="highway.residential" spreadType="center" length="52.08" shape="-226.60,-869.97 -220.75,-933.10">