<routes>
	<vehicle depart="0.1" departLane="0" departPos="33.75887957208533" departSpeed="9.4540728" id="342" type="bus">
		<route edges=":29_0 649"/>
	</vehicle>
	<vehicle depart="0.1" departLane="0" departPos="63.271440186283435" departSpeed="4.177066" id="320" type="passenger">
		<route edges="648 612"/>
	</vehicle>
	<vehicle depart="0.1" departLane="0" departPos="53.34823736463218" departSpeed="4.7869132" id="321" type="passenger">
		<route edges="648 612"/>
	</vehicle>
	<vehicle depart="0.1" departLane="0" departPos="44.05168136809459" departSpeed="2.8783792" id="324" type="passenger">
		<route edges="648 612"/>
	</vehicle>
	<vehicle depart="0.1" departLane="0" departPos="12.26240079405704" departSpeed="8.7857539" id="345" type="passenger">
		<route edges=":29_0 649"/>
	</vehicle>
	<vehicle depart="0.1" departLane="0" departPos="37.60476177972444" departSpeed="7.0444622" id="350" type="passenger">
		<route edges="591 612"/>
	</vehicle>
	<vehicle depart="0.1" departLane="0" departPos="18.69569351654604" departSpeed="7.8551044" id="352" type="passenger">
		<route edges="591 649"/>
	</vehicle>
	<vehicle depart="0.1" departLane="0" departPos="48.42894964232559" departSpeed="6.6407061" id="347" type="motorcycle">
		<route edges="591 612 609"/>
	</vehicle>
</routes>
