<routes>
	<vehicle depart="0.1" departLane="0" departPos="42.1748577458977" departSpeed="0.63261301" id="345" type="bus">
		<route edges="49654 49651"/>
	</vehicle>
	<vehicle depart="0.1" departLane="0" departPos="14.589215294074569" departSpeed="3.8829069e-05" id="36" type="passenger">
		<route edges="50125 50128"/>
	</vehicle>
	<vehicle depart="0.1" departLane="0" departPos="19.37100149729337" departSpeed="2.0832427" id="39" type="passenger">
		<route edges=":28_5 50125"/>
	</vehicle>
	<vehicle depart="0.1" departLane="0" departPos="7.459984141824551" departSpeed="0.0024835002" id="330" type="passenger">
		<route edges="50125 50128"/>
	</vehicle>
	<vehicle depart="0.1" departLane="0" departPos="22.611126915620396" departSpeed="7.2938626" id="332" type="passenger">
		<route edges=":28_0 49703"/>
	</vehicle>
	<vehicle depart="0.1" departLane="0" departPos="24.77684437886871" departSpeed="0.0088884631" id="333" type="passenger">
		<route edges="49651 49703"/>
	</vehicle>
	<vehicle depart="0.1" departLane="0" departPos="15.486255008834071" departSpeed="0.011565336" id="336" type="passenger">
		<route edges="49651 49703"/>
	</vehicle>
	<vehicle depart="0.1" departLane="0" departPos="6.672018178707754" departSpeed="0.52920604" id="339" type="passenger">
		<route edges="49651 49703"/>
	</vehicle>
	<vehicle depart="0.1" departLane="0" departPos="49.85044385246326" departSpeed="0.99856245" id="341" type="passenger">
		<route edges="49654 49651"/>
	</vehicle>
	<vehicle depart="0.1" departLane="0" departPos="24.20096827672616" departSpeed="1.4753305" id="347" type="passenger">
		<route edges="49654 49651"/>
	</vehicle>
</routes>
