<!-- generated on 2020-12-18 15:56:48.683396 by ipykernel_launcher.py v1_2_0+5214-53edc58fcd
-->
<nodes>
	<node id="1" type="from" x="-3.0604833333333334" y="3.2505166666666665"/>
	<node id="2" type="to" x="-5.610166666666665" y="-41.734983333333325"/>
	<node id="3" type="to" x="-6.187733333333334" y="-52.750099999999996"/>
	<node id="4" type="to" x="3.29825" y="-63.80335"/>
	<node id="5" type="to" x="12.74835" y="-65.44815"/>
	<node id="6" type="to" x="49.987025" y="-63.01855"/>
	<node id="7" type="to" x="-8.60275" y="-69.05745"/>
	<node id="8" type="to" x="-9.029050000000002" y="-77.059625"/>
	<node id="9" type="to" x="-10.09755" y="-101.93222499999999"/>
	<node id="10" type="to" x="-9.26195" y="-121.6467"/>
	<node id="11" type="to" x="-9.300075000000001" y="-128.985"/>
	<node id="12" type="to" x="-18.728" y="-54.143649999999994"/>
	<node id="13" type="to" x="-31.41365" y="-56.299075"/>
	<node id="14" type="to" x="-59.311975000000004" y="-61.67605"/>
	<node id="15" type="to" x="-72.258225" y="-66.679425"/>
	<node id="16" type="from" x="-2.9078749999999998" y="-129.21044999999998"/>
	<node id="17" type="to" x="-2.55635" y="-121.90237499999999"/>
	<node id="18" type="to" x="-2.96565" y="-102.10803333333332"/>
	<node id="19" type="to" x="-1.5223166666666668" y="-77.49245"/>
	<node id="20" type="to" x="-1.0885666666666667" y="-68.98729999999999"/>
	<node id="21" type="to" x="-0.2671166666666666" y="-52.85055"/>
	<node id="22" type="to" x="-10.98235" y="-57.5064"/>
	<node id="23" type="to" x="1.7581" y="-41.954925"/>
	<node id="24" type="to" x="4.325225" y="2.816275"/>
	<node id="25" type="from" x="-68.69891666666666" y="-74.34153333333333"/>
	<node id="26" type="to" x="-56.314150000000005" y="-69.52775"/>
	<node id="27" type="to" x="-30.544500000000003" y="-66.372275"/>
	<node id="28" type="to" x="-18.404525" y="-65.70965"/>
	<node id="29" type="to" x="-11.363283333333335" y="-63.95075"/>
	<node id="30" type="from" x="49.471450000000004" y="-55.16163333333333"/>
	<node id="31" type="to" x="12.232833333333334" y="-57.59123333333334"/>
	<node id="32" type="to" x="3.62875" y="-57.55255"/>
</nodes>
