<routes>
	<vehicle depart="0.1" departLane="0" departPos="8.76526094328595" departSpeed="6.5100462" id="35" type="bicycle">
		<route edges="121433"/>
	</vehicle>
	<vehicle depart="0.1" departLane="0" departPos="54.068047891823014" departSpeed="23.282834" id="348" type="passenger">
		<route edges="121562 121716 121433"/>
	</vehicle>
	<vehicle depart="0.1" departLane="2" departPos="2.5" departSpeed="34.631041" id="349" type="passenger">
		<route edges="121716 121433"/>
	</vehicle>
	<vehicle depart="0.1" departLane="2" departPos="12.475841980188234" departSpeed="36.986464" id="353" type="passenger">
		<route edges="121562 121716 121433"/>
	</vehicle>
</routes>
