<!-- generated on Tue Feb  9 22:06:24 2021 by Eclipse SUMO netconvert Version 1.8.0
<configuration xmlns:xsi="http://www.w3.org/2001/XMLSchema-instance" xsi:noNamespaceSchemaLocation="http://sumo.dlr.de/xsd/netconvertConfiguration.xsd">

    <input>
        <node-files value="./converted_scenarios/scenario-factory/DEU_Guetersloh-4_1_I-1-1/DEU_Guetersloh-4_1_I-1-1.nod.xml"/>
        <edge-files value="./converted_scenarios/scenario-factory/DEU_Guetersloh-4_1_I-1-1/DEU_Guetersloh-4_1_I-1-1.edg.xml"/>
        <connection-files value="./converted_scenarios/scenario-factory/DEU_Guetersloh-4_1_I-1-1/DEU_Guetersloh-4_1_I-1-1.con.xml"/>
        <tllogic-files value="./converted_scenarios/scenario-factory/DEU_Guetersloh-4_1_I-1-1/DEU_Guetersloh-4_1_I-1-1.tll.xml"/>
        <type-files value="/home/zen/commonroad-interactive-benchmarks/install/commonroad-map-tool/crmapconverter/sumo_map/templates/DEU.typ.xml"/>
    </input>

    <output>
        <output-file value="./converted_scenarios/scenario-factory/DEU_Guetersloh-4_1_I-1-1/DEU_Guetersloh-4_1_I-1-1.net.xml"/>
    </output>

    <processing>
        <geometry.remove.keep-edges.explicit value="true"/>
        <geometry.avoid-overlap value="true"/>
        <offset.disable-normalization value="true"/>
    </processing>

    <junctions>
        <no-turnarounds value="true"/>
        <junctions.internal-link-detail value="20"/>
    </junctions>

    <report>
        <aggregate-warnings value="5"/>
    </report>

    <random_number>
        <seed value="1234"/>
    </random_number>

</configuration>
--><net xmlns:xsi="http://www.w3.org/2001/XMLSchema-instance" version="1.6" junctionCornerDetail="5" junctionLinkDetail="20" limitTurnSpeed="5.50" xsi:noNamespaceSchemaLocation="http://sumo.dlr.de/xsd/net_file.xsd">

    <location netOffset="0.00,0.00" convBoundary="-1020.93,650.11,-723.99,852.52" origBoundary="-1020.93,650.11,-723.99,852.52" projParameter="!"/>

    <type id="highway.bridleway" priority="1" speed="2.78" allow="pedestrian" oneway="1" width="2.00"/>
    <type id="highway.bus_guideway" priority="1" speed="27.78" allow="bus" oneway="1"/>
    <type id="highway.cycleway" priority="1" speed="8.33" allow="bicycle" oneway="0" width="1.00"/>
    <type id="highway.footway" priority="1" speed="2.78" allow="pedestrian" oneway="1" width="2.00"/>
    <type id="highway.ford" priority="1" speed="2.78" allow="army" oneway="0"/>
    <type id="highway.living_street" priority="2" speed="2.78" disallow="tram rail_urban rail rail_electric rail_fast ship" oneway="0"/>
    <type id="highway.motorway" priority="14" speed="39.44" allow="private emergency authority army vip passenger hov taxi bus coach delivery truck trailer motorcycle evehicle custom1 custom2" oneway="1"/>
    <type id="highway.motorway_link" priority="9" speed="22.22" allow="private emergency authority army vip passenger hov taxi bus coach delivery truck trailer motorcycle evehicle custom1 custom2" oneway="1"/>
    <type id="highway.path" priority="1" speed="2.78" allow="pedestrian bicycle" oneway="0" width="2.00"/>
    <type id="highway.pedestrian" priority="1" speed="2.78" allow="pedestrian" oneway="1" width="2.00"/>
    <type id="highway.primary" priority="12" speed="27.78" disallow="pedestrian tram rail_urban rail rail_electric rail_fast ship" oneway="0"/>
    <type id="highway.primary_link" priority="7" speed="22.22" disallow="pedestrian tram rail_urban rail rail_electric rail_fast ship" oneway="0"/>
    <type id="highway.raceway" priority="15" speed="83.33" allow="vip" oneway="0"/>
    <type id="highway.residential" priority="3" speed="13.89" disallow="pedestrian tram rail_urban rail rail_electric rail_fast ship" oneway="0"/>
    <type id="highway.secondary" priority="11" speed="27.78" disallow="pedestrian tram rail_urban rail rail_electric rail_fast ship" oneway="0"/>
    <type id="highway.secondary_link" priority="6" speed="22.22" disallow="pedestrian tram rail_urban rail rail_electric rail_fast ship" oneway="0"/>
    <type id="highway.service" priority="1" speed="5.56" allow="pedestrian delivery bicycle" oneway="0"/>
    <type id="highway.stairs" priority="1" speed="1.39" allow="pedestrian" oneway="1" width="2.00"/>
    <type id="highway.step" priority="1" speed="1.39" allow="pedestrian" oneway="1" width="2.00"/>
    <type id="highway.steps" priority="1" speed="1.39" allow="pedestrian" oneway="1" width="2.00"/>
    <type id="highway.tertiary" priority="10" speed="22.22" disallow="pedestrian tram rail_urban rail rail_electric rail_fast ship" oneway="0"/>
    <type id="highway.tertiary_link" priority="5" speed="22.22" disallow="pedestrian tram rail_urban rail rail_electric rail_fast ship" oneway="0"/>
    <type id="highway.track" priority="1" speed="5.56" allow="pedestrian motorcycle moped bicycle" oneway="0"/>
    <type id="highway.trunk" priority="13" speed="27.78" disallow="pedestrian bicycle tram rail_urban rail rail_electric rail_fast ship" oneway="0"/>
    <type id="highway.trunk_link" priority="8" speed="22.22" disallow="pedestrian bicycle tram rail_urban rail rail_electric rail_fast ship" oneway="0"/>
    <type id="highway.unclassified" priority="4" speed="13.89" disallow="pedestrian tram rail_urban rail rail_electric rail_fast ship" oneway="0"/>
    <type id="highway.unsurfaced" priority="1" speed="8.33" disallow="tram rail_urban rail rail_electric rail_fast ship" oneway="0"/>
    <type id="railway.highspeed" priority="21" speed="69.44" allow="rail_fast" oneway="1"/>
    <type id="railway.light_rail" priority="19" speed="27.78" allow="rail_urban" oneway="1"/>
    <type id="railway.preserved" priority="16" speed="27.78" allow="rail" oneway="1"/>
    <type id="railway.rail" priority="20" speed="44.44" allow="rail" oneway="1"/>
    <type id="railway.subway" priority="18" speed="27.78" allow="rail_urban" oneway="1"/>
    <type id="railway.tram" priority="17" speed="13.89" allow="tram" oneway="1"/>

    <edge id=":51_0" function="internal">
        <lane id=":51_0_0" index="0" disallow="pedestrian tram rail_urban rail rail_electric rail_fast ship" speed="36.11" length="38.30" width="3.50" shape="-836.08,765.79 -855.26,766.06 -874.38,766.33"/>
    </edge>
    <edge id=":51_1" function="internal">
        <lane id=":51_1_0" index="0" disallow="pedestrian tram rail_urban rail rail_electric rail_fast ship" speed="12.10" length="34.05" width="3.50" shape="-836.08,765.79 -840.04,765.64 -842.63,765.28 -845.17,764.65 -847.61,763.70 -848.77,763.10 -849.87,762.40 -850.92,761.62 -851.89,760.74 -852.78,759.78 -853.58,758.74 -854.29,757.64 -855.43,755.29 -856.24,752.81 -856.77,750.24 -857.05,747.64 -857.14,745.02"/>
    </edge>
    <edge id=":51_2" function="internal">
        <lane id=":51_2_0" index="0" disallow="pedestrian tram rail_urban rail rail_electric rail_fast ship" speed="11.08" length="28.40" width="3.50" shape="-853.64,745.03 -853.57,747.30 -853.32,749.53 -852.88,751.70 -852.21,753.77 -851.25,755.72 -850.70,756.58 -850.06,757.41 -849.35,758.17 -848.58,758.87 -847.75,759.50 -846.85,760.06 -845.94,760.54 -843.90,761.33 -841.77,761.86 -839.58,762.16 -836.13,762.29"/>
    </edge>
    <edge id=":51_3" function="internal">
        <lane id=":51_3_0" index="0" disallow="pedestrian tram rail_urban rail rail_electric rail_fast ship" speed="12.22" length="33.90" width="3.50" shape="-853.64,745.03 -853.73,747.55 -854.00,750.08 -854.51,752.61 -855.31,755.09 -856.43,757.46 -857.15,758.62 -857.95,759.71 -858.84,760.72 -859.82,761.65 -860.88,762.49 -861.99,763.24 -863.19,763.91 -865.58,764.92 -868.09,765.63 -870.63,766.07 -874.38,766.33"/>
    </edge>
    <edge id=":51_4" function="internal">
        <lane id=":51_4_0" index="0" disallow="pedestrian tram rail_urban rail rail_electric rail_fast ship" speed="11.22" length="28.41" width="3.50" shape="-874.46,762.83 -871.19,762.61 -869.04,762.24 -866.93,761.64 -864.92,760.79 -863.97,760.25 -863.07,759.64 -862.21,758.96 -861.42,758.21 -860.70,757.38 -860.05,756.51 -859.47,755.58 -858.54,753.60 -857.88,751.52 -857.45,749.38 -857.21,747.21 -857.14,745.02"/>
    </edge>
    <edge id=":51_5" function="internal">
        <lane id=":51_5_0" index="0" disallow="pedestrian tram rail_urban rail rail_electric rail_fast ship" speed="36.11" length="38.33" width="3.50" shape="-874.46,762.83 -855.31,762.56 -836.13,762.29"/>
    </edge>
    <edge id=":52_0" function="internal">
        <lane id=":52_0_0" index="0" disallow="pedestrian tram rail_urban rail rail_electric rail_fast ship" speed="11.20" length="28.72" width="3.50" shape="-896.50,672.71 -896.60,670.38 -896.86,668.12 -897.32,665.92 -897.99,663.82 -898.94,661.83 -899.48,660.95 -900.12,660.10 -900.81,659.31 -901.58,658.58 -902.41,657.93 -903.29,657.34 -904.23,656.83 -905.18,656.39 -907.29,655.69 -909.47,655.25 -911.72,655.02 -914.03,654.97"/>
    </edge>
    <edge id=":52_1" function="internal">
        <lane id=":52_1_0" index="0" disallow="pedestrian tram rail_urban rail rail_electric rail_fast ship" speed="12.24" length="34.49" width="3.50" shape="-896.50,672.71 -896.35,668.71 -895.98,666.08 -895.36,663.51 -894.42,661.02 -893.83,659.84 -893.14,658.71 -892.37,657.63 -891.50,656.63 -890.55,655.71 -889.52,654.87 -888.42,654.13 -887.26,653.48 -884.83,652.43 -882.28,651.71 -879.67,651.26 -875.70,651.00"/>
    </edge>
    <edge id=":52_2" function="internal">
        <lane id=":52_2_0" index="0" disallow="pedestrian tram rail_urban rail rail_electric rail_fast ship" speed="11.24" length="28.94" width="3.50" shape="-875.62,654.50 -879.11,654.73 -881.33,655.11 -883.47,655.72 -885.51,656.59 -886.42,657.11 -887.31,657.72 -888.14,658.39 -888.90,659.13 -889.59,659.93 -890.22,660.80 -890.77,661.72 -891.25,662.66 -892.03,664.75 -892.56,666.93 -892.87,669.17 -893.00,672.67"/>
    </edge>
    <edge id=":52_3" function="internal">
        <lane id=":52_3_0" index="0" disallow="pedestrian tram rail_urban rail rail_electric rail_fast ship" speed="12.20" length="34.30" width="3.50" shape="-914.07,651.47 -911.41,651.53 -908.79,651.80 -906.21,652.32 -903.71,653.15 -902.51,653.69 -901.35,654.32 -900.25,655.05 -899.22,655.86 -898.26,656.77 -897.38,657.75 -896.60,658.81 -895.90,659.93 -894.77,662.30 -893.96,664.81 -893.42,667.39 -893.12,670.01 -893.00,672.67"/>
    </edge>
    <edge id=":53_0" function="internal">
        <lane id=":53_0_0" index="0" disallow="pedestrian tram rail_urban rail rail_electric rail_fast ship" speed="36.11" length="36.32" width="3.50" shape="-914.55,766.65 -918.71,766.66 -950.87,766.98"/>
    </edge>
    <edge id=":53_1" function="internal">
        <lane id=":53_1_0" index="0" disallow="pedestrian tram rail_urban rail rail_electric rail_fast ship" speed="9.40" length="19.80" width="3.50" shape="-914.55,766.65 -917.46,766.51 -920.32,766.06 -922.55,765.40 -924.66,764.45 -926.60,763.17 -927.89,762.01 -929.37,760.22 -930.54,758.22 -930.79,757.62"/>
    </edge>
    <edge id=":53_2" function="internal">
        <lane id=":53_2_0" index="0" disallow="pedestrian tram rail_urban rail rail_electric rail_fast ship" speed="8.68" length="16.71" width="3.50" shape="-950.94,763.48 -947.43,763.26 -944.54,762.77 -942.29,762.12 -940.15,761.19 -938.17,759.95 -936.84,758.79 -935.87,757.67"/>
    </edge>
    <edge id=":53_3" function="internal">
        <lane id=":53_3_0" index="0" disallow="pedestrian tram rail_urban rail rail_electric rail_fast ship" speed="36.11" length="36.38" width="3.50" shape="-950.94,763.48 -918.73,763.16 -914.56,763.15"/>
    </edge>
    <edge id=":54_0" function="internal">
        <lane id=":54_0_0" index="0" disallow="pedestrian tram rail_urban rail rail_electric rail_fast ship" speed="11.11" length="28.52" width="3.50" shape="-857.12,672.13 -857.19,669.84 -857.43,667.59 -857.86,665.40 -858.51,663.30 -859.43,661.32 -859.97,660.44 -860.59,659.59 -861.28,658.80 -862.04,658.08 -862.86,657.43 -863.74,656.84 -864.67,656.33 -865.62,655.90 -867.72,655.21 -869.89,654.77 -872.13,654.54 -874.42,654.49"/>
    </edge>
    <edge id=":54_1" function="internal">
        <lane id=":54_1_0" index="0" disallow="pedestrian tram rail_urban rail rail_electric rail_fast ship" speed="12.27" length="34.36" width="3.50" shape="-857.12,672.13 -857.04,669.57 -856.76,667.00 -856.24,664.44 -855.44,661.92 -854.31,659.52 -853.59,658.34 -852.78,657.24 -851.87,656.21 -850.88,655.27 -849.81,654.41 -848.68,653.65 -847.48,652.97 -845.04,651.94 -842.51,651.22 -839.92,650.78 -836.13,650.53"/>
    </edge>
    <edge id=":54_2" function="internal">
        <lane id=":54_2_0" index="0" disallow="pedestrian tram rail_urban rail rail_electric rail_fast ship" speed="11.28" length="28.86" width="3.50" shape="-836.05,654.02 -839.37,654.24 -841.56,654.62 -843.70,655.22 -845.74,656.10 -846.70,656.64 -847.62,657.26 -848.49,657.96 -849.29,658.72 -850.02,659.56 -850.68,660.45 -851.26,661.40 -852.21,663.41 -852.88,665.52 -853.31,667.70 -853.55,669.91 -853.62,672.13"/>
    </edge>
    <edge id=":54_3" function="internal">
        <lane id=":54_3_0" index="0" disallow="pedestrian tram rail_urban rail rail_electric rail_fast ship" speed="12.12" length="34.16" width="3.50" shape="-874.47,650.99 -871.82,651.05 -869.21,651.32 -866.63,651.84 -864.14,652.66 -862.94,653.20 -861.79,653.83 -860.69,654.55 -859.67,655.37 -858.71,656.27 -857.85,657.25 -857.07,658.31 -856.38,659.43 -855.27,661.81 -854.49,664.31 -853.98,666.89 -853.71,669.50 -853.62,672.13"/>
    </edge>
    <edge id=":55_0" function="internal">
        <lane id=":55_0_0" index="0" disallow="pedestrian tram rail_urban rail rail_electric rail_fast ship" speed="11.22" length="28.68" width="3.50" shape="-781.71,782.54 -781.95,779.24 -782.35,777.07 -782.96,774.95 -783.85,772.93 -784.39,771.97 -785.02,771.06 -785.72,770.21 -786.49,769.41 -787.32,768.70 -788.22,768.05 -789.16,767.48 -791.17,766.57 -793.28,765.92 -795.45,765.52 -797.65,765.32 -799.85,765.27"/>
    </edge>
    <edge id=":55_1" function="internal">
        <lane id=":55_1_0" index="0" disallow="pedestrian tram rail_urban rail rail_electric rail_fast ship" speed="36.11" length="38.82" width="3.50" shape="-761.04,764.45 -780.97,764.97 -799.85,765.27"/>
    </edge>
    <edge id=":55_2" function="internal">
        <lane id=":55_2_0" index="0" disallow="pedestrian tram rail_urban rail rail_electric rail_fast ship" speed="12.21" length="34.51" width="3.50" shape="-779.03,743.62 -779.15,747.60 -779.50,750.23 -780.12,752.81 -781.05,755.30 -781.65,756.48 -782.34,757.62 -783.12,758.69 -784.00,759.69 -784.96,760.61 -785.99,761.43 -787.10,762.17 -788.26,762.82 -790.70,763.85 -793.26,764.56 -795.88,765.01 -799.85,765.27"/>
    </edge>
    <edge id=":55_3" function="internal">
        <lane id=":55_3_0" index="0" disallow="pedestrian tram rail_urban rail rail_electric rail_fast ship" speed="11.21" length="28.92" width="3.50" shape="-799.91,761.78 -796.44,761.55 -794.21,761.17 -792.06,760.57 -790.01,759.70 -789.09,759.19 -788.20,758.59 -787.36,757.92 -786.59,757.19 -785.90,756.39 -785.27,755.53 -784.71,754.61 -784.23,753.67 -783.45,751.58 -782.93,749.40 -782.63,747.16 -782.52,743.69"/>
    </edge>
    <edge id=":55_4" function="internal">
        <lane id=":55_4_0" index="0" disallow="pedestrian tram rail_urban rail rail_electric rail_fast ship" speed="36.11" length="38.74" width="3.50" shape="-799.91,761.78 -781.05,761.47 -761.18,760.95"/>
    </edge>
    <edge id=":55_5" function="internal">
        <lane id=":55_5_0" index="0" disallow="pedestrian tram rail_urban rail rail_electric rail_fast ship" speed="12.23" length="34.24" width="3.50" shape="-799.91,761.78 -797.36,761.82 -794.80,762.07 -792.24,762.54 -789.72,763.31 -787.32,764.41 -786.13,765.12 -785.03,765.92 -784.00,766.81 -783.05,767.79 -782.19,768.84 -781.42,769.96 -780.74,771.16 -779.69,773.57 -778.96,776.09 -778.50,778.65 -778.21,782.46"/>
    </edge>
    <edge id=":56_0" function="internal">
        <lane id=":56_0_0" index="0" disallow="pedestrian tram rail_urban rail rail_electric rail_fast ship" speed="36.11" length="38.70" width="3.50" shape="-874.61,766.33 -910.17,766.63 -913.31,766.64"/>
    </edge>
    <edge id=":56_1" function="internal">
        <lane id=":56_1_0" index="0" disallow="pedestrian tram rail_urban rail rail_electric rail_fast ship" speed="12.14" length="34.00" width="3.50" shape="-874.61,766.34 -878.57,766.18 -881.15,765.81 -883.68,765.17 -886.11,764.21 -887.26,763.61 -888.36,762.91 -889.40,762.11 -890.36,761.23 -891.24,760.27 -892.04,759.24 -892.75,758.14 -893.90,755.80 -894.72,753.33 -895.26,750.78 -895.57,748.19 -895.69,745.54"/>
    </edge>
    <edge id=":56_2" function="internal">
        <lane id=":56_2_0" index="0" disallow="pedestrian tram rail_urban rail rail_electric rail_fast ship" speed="11.11" length="28.39" width="3.50" shape="-892.19,745.51 -892.09,747.81 -891.83,750.04 -891.37,752.20 -890.68,754.27 -889.73,756.21 -889.17,757.07 -888.53,757.90 -887.83,758.67 -887.06,759.37 -886.23,760.01 -885.35,760.57 -884.44,761.05 -882.41,761.85 -880.29,762.39 -878.11,762.70 -874.67,762.83"/>
    </edge>
    <edge id=":56_3" function="internal">
        <lane id=":56_3_0" index="0" disallow="pedestrian tram rail_urban rail rail_electric rail_fast ship" speed="12.17" length="34.35" width="3.50" shape="-892.19,745.51 -892.35,749.50 -892.74,752.11 -893.39,754.66 -894.37,757.12 -894.99,758.28 -895.71,759.39 -896.52,760.43 -897.41,761.40 -898.39,762.29 -899.45,763.08 -900.56,763.79 -902.94,764.93 -905.46,765.74 -908.04,766.26 -910.67,766.55 -913.31,766.64"/>
    </edge>
    <edge id=":56_4" function="internal">
        <lane id=":56_4_0" index="0" disallow="pedestrian tram rail_urban rail rail_electric rail_fast ship" speed="11.17" length="28.76" width="3.50" shape="-913.34,763.14 -911.02,763.06 -908.75,762.82 -906.55,762.37 -904.45,761.70 -902.47,760.75 -901.59,760.20 -900.75,759.56 -899.96,758.85 -899.25,758.08 -898.60,757.24 -898.02,756.35 -897.53,755.43 -896.71,753.38 -896.16,751.24 -895.83,749.02 -895.69,745.54"/>
    </edge>
    <edge id=":56_5" function="internal">
        <lane id=":56_5_0" index="0" disallow="pedestrian tram rail_urban rail rail_electric rail_fast ship" speed="36.11" length="38.67" width="3.50" shape="-913.34,763.14 -910.19,763.13 -874.67,762.83"/>
    </edge>

    <edge id="58147" from="54" to="51" priority="3" type="highway.residential" spreadType="center" length="72.90" shape="-853.55,659.02 -853.56,757.88">
        <lane id="58147_0" index="0" disallow="pedestrian tram rail_urban rail rail_electric rail_fast ship" speed="36.11" length="72.90" width="3.50" customShape="1" shape="-853.62,672.13 -853.63,708.58 -853.64,745.03"/>
    </edge>
    <edge id="58148" from="51" to="54" priority="3" type="highway.residential" spreadType="center" length="72.89" shape="-857.06,757.88 -857.05,659.02">
        <lane id="58148_0" index="0" disallow="pedestrian tram rail_urban rail rail_electric rail_fast ship" speed="36.11" length="72.89" width="3.50" customShape="1" shape="-857.14,745.02 -857.13,708.58 -857.12,672.13"/>
    </edge>
    <edge id="58195" from="52" to="56" priority="3" type="highway.residential" spreadType="center" length="72.85" shape="-893.07,659.54 -892.23,758.35">
        <lane id="58195_0" index="0" disallow="pedestrian tram rail_urban rail rail_electric rail_fast ship" speed="36.11" length="72.85" width="3.50" customShape="1" shape="-893.00,672.67 -892.60,709.09 -892.19,745.52"/>
    </edge>
    <edge id="58196" from="56" to="52" priority="3" type="highway.residential" spreadType="center" length="72.84" shape="-895.72,758.38 -896.57,659.57">
        <lane id="58196_0" index="0" disallow="pedestrian tram rail_urban rail rail_electric rail_fast ship" speed="36.11" length="72.84" width="3.50" customShape="1" shape="-895.69,745.54 -896.10,709.13 -896.50,672.70"/>
    </edge>
    <edge id="58219" from="53" to="25" priority="3" type="highway.residential" spreadType="center" length="80.70">
        <lane id="58219_0" index="0" disallow="pedestrian tram rail_urban rail rail_electric rail_fast ship" speed="36.11" length="80.70" width="3.50" customShape="1" shape="-932.71,757.64 -933.11,709.42 -933.38,676.94"/>
    </edge>
    <edge id="58361" from="55" to="38" priority="3" type="highway.residential" spreadType="center" length="65.01" shape="-782.18,763.17 -783.87,678.69">
        <lane id="58361_0" index="0" disallow="pedestrian tram rail_urban rail rail_electric rail_fast ship" speed="36.11" length="65.01" width="3.50" customShape="1" shape="-782.52,743.69 -783.20,711.19 -783.87,678.69"/>
    </edge>
    <edge id="58362" from="49" to="55" priority="3" type="highway.residential" spreadType="center" length="65.00" shape="-780.37,678.63 -778.68,763.10">
        <lane id="58362_0" index="0" disallow="pedestrian tram rail_urban rail rail_electric rail_fast ship" speed="36.11" length="65.00" width="3.50" customShape="1" shape="-780.37,678.63 -779.70,711.12 -779.03,743.62"/>
    </edge>
    <edge id="58364" from="48" to="55" priority="3" type="highway.residential" spreadType="center" length="70.00" shape="-780.21,852.52 -782.18,763.10">
        <lane id="58364_0" index="0" disallow="pedestrian tram rail_urban rail rail_electric rail_fast ship" speed="36.11" length="70.00" width="3.50" customShape="1" shape="-780.21,852.52 -780.79,825.42 -781.71,782.54"/>
    </edge>
    <edge id="58365" from="55" to="40" priority="3" type="highway.residential" spreadType="center" length="70.01" shape="-778.68,763.02 -776.71,852.45">
        <lane id="58365_0" index="0" disallow="pedestrian tram rail_urban rail rail_electric rail_fast ship" speed="36.11" length="70.01" width="3.50" customShape="1" shape="-778.21,782.46 -777.29,825.34 -776.71,852.45"/>
    </edge>
    <edge id="58463" from="53" to="24" priority="3" type="highway.residential" spreadType="center" length="70.00" shape="-932.62,763.18 -1020.86,768.09">
        <lane id="58463_0" index="0" disallow="pedestrian tram rail_urban rail rail_electric rail_fast ship" speed="36.11" length="70.00" width="3.50" customShape="1" shape="-950.87,766.98 -1003.58,767.82 -1020.86,768.09"/>
    </edge>
    <edge id="58464" from="33" to="53" priority="3" type="highway.residential" spreadType="center" length="70.01" shape="-1020.93,764.59 -932.81,759.69">
        <lane id="58464_0" index="0" disallow="pedestrian tram rail_urban rail rail_electric rail_fast ship" speed="36.11" length="70.01" width="3.50" customShape="1" shape="-1020.93,764.59 -1003.64,764.32 -950.93,763.48"/>
    </edge>
    <edge id="58466" from="56" to="53" priority="3" type="highway.residential" spreadType="center" length="1.26" shape="-893.76,760.07 -932.61,763.18">
        <lane id="58466_0" index="0" disallow="pedestrian tram rail_urban rail rail_electric rail_fast ship" speed="36.11" length="1.26" width="3.50" customShape="1" shape="-913.31,766.64 -913.93,766.64 -914.57,766.65"/>
    </edge>
    <edge id="58467" from="53" to="56" priority="3" type="highway.residential" spreadType="center" length="1.24" shape="-932.89,759.69 -894.04,756.59">
        <lane id="58467_0" index="0" disallow="pedestrian tram rail_urban rail rail_electric rail_fast ship" speed="36.11" length="1.24" width="3.50" customShape="1" shape="-914.56,763.15 -913.94,763.14 -913.32,763.14"/>
    </edge>
    <edge id="58469" from="51" to="56" priority="3" type="highway.residential" spreadType="center" length="0.28" shape="-855.29,759.63 -894.03,760.08">
        <lane id="58469_0" index="0" disallow="pedestrian tram rail_urban rail rail_electric rail_fast ship" speed="36.11" length="0.28" width="3.50" customShape="1" shape="-874.38,766.33 -874.53,766.33 -874.66,766.33"/>
    </edge>
    <edge id="58470" from="56" to="51" priority="3" type="highway.residential" spreadType="center" length="0.23" shape="-894.07,756.59 -855.33,756.13">
        <lane id="58470_0" index="0" disallow="pedestrian tram rail_urban rail rail_electric rail_fast ship" speed="36.11" length="0.23" width="3.50" customShape="1" shape="-874.67,762.83 -874.44,762.83"/>
    </edge>
    <edge id="58472" from="55" to="51" priority="3" type="highway.residential" spreadType="center" length="36.26" shape="-780.51,764.84 -855.43,759.63">
        <lane id="58472_0" index="0" disallow="pedestrian tram rail_urban rail rail_electric rail_fast ship" speed="36.11" length="36.26" width="3.50" customShape="1" shape="-799.85,765.27 -817.98,765.53 -836.11,765.79"/>
    </edge>
    <edge id="58473" from="51" to="55" priority="3" type="highway.residential" spreadType="center" length="36.23" shape="-855.19,756.14 -780.27,761.35">
        <lane id="58473_0" index="0" disallow="pedestrian tram rail_urban rail rail_electric rail_fast ship" speed="36.11" length="36.23" width="3.50" customShape="1" shape="-836.13,762.29 -818.03,762.03 -799.90,761.78"/>
    </edge>
    <edge id="58475" from="50" to="55" priority="3" type="highway.residential" spreadType="center" length="36.88" shape="-724.19,764.05 -780.46,764.84">
        <lane id="58475_0" index="0" disallow="pedestrian tram rail_urban rail rail_electric rail_fast ship" speed="36.11" length="36.88" width="3.50" customShape="1" shape="-724.19,764.05 -732.77,763.77 -743.38,763.82 -761.05,764.45"/>
    </edge>
    <edge id="58476" from="55" to="39" priority="3" type="highway.residential" spreadType="center" length="37.21" shape="-780.51,761.35 -723.99,760.56">
        <lane id="58476_0" index="0" disallow="pedestrian tram rail_urban rail rail_electric rail_fast ship" speed="36.11" length="37.21" width="3.50" customShape="1" shape="-761.18,760.95 -743.41,760.32 -732.69,760.27 -723.99,760.56"/>
    </edge>
    <edge id="58604" from="54" to="44" priority="3" type="highway.residential" spreadType="center" length="34.13" shape="-855.59,657.32 -802.00,650.11">
        <lane id="58604_0" index="0" disallow="pedestrian tram rail_urban rail rail_electric rail_fast ship" speed="36.11" length="34.13" width="3.50" customShape="1" shape="-836.13,650.53 -819.05,650.32 -802.00,650.11"/>
    </edge>
    <edge id="58605" from="47" to="54" priority="3" type="highway.residential" spreadType="center" length="34.14" shape="-801.94,653.61 -855.12,660.79">
        <lane id="58605_0" index="0" disallow="pedestrian tram rail_urban rail rail_electric rail_fast ship" speed="36.11" length="34.14" width="3.50" customShape="1" shape="-801.94,653.61 -819.01,653.82 -836.08,654.03"/>
    </edge>
    <edge id="58607" from="52" to="54" priority="3" type="highway.residential" spreadType="center" length="1.25" shape="-894.84,657.80 -855.24,657.30">
        <lane id="58607_0" index="0" disallow="pedestrian tram rail_urban rail rail_electric rail_fast ship" speed="36.11" length="1.25" width="3.50" customShape="1" shape="-875.70,651.00 -875.07,651.00 -874.45,650.99"/>
    </edge>
    <edge id="58608" from="54" to="52" priority="3" type="highway.residential" spreadType="center" length="1.23" shape="-855.20,660.79 -894.79,661.30">
        <lane id="58608_0" index="0" disallow="pedestrian tram rail_urban rail rail_electric rail_fast ship" speed="36.11" length="1.23" width="3.50" customShape="1" shape="-874.42,654.49 -875.03,654.50 -875.65,654.50"/>
    </edge>
    <edge id="58610" from="46" to="52" priority="3" type="highway.residential" spreadType="center" length="6.51" shape="-920.56,651.55 -894.30,657.89">
        <lane id="58610_0" index="0" disallow="pedestrian tram rail_urban rail rail_electric rail_fast ship" speed="36.11" length="6.51" width="3.49" customShape="1" shape="-920.56,651.55 -915.56,651.49 -914.80,651.48 -914.05,651.47"/>
    </edge>
    <edge id="58611" from="52" to="35" priority="3" type="highway.residential" spreadType="center" length="6.47" shape="-895.12,661.28 -920.50,655.04">
        <lane id="58611_0" index="0" disallow="pedestrian tram rail_urban rail rail_electric rail_fast ship" speed="36.11" length="6.47" width="3.50" customShape="1" shape="-914.03,654.97 -914.76,654.98 -915.50,654.98 -920.50,655.04"/>
    </edge>

    <junction id="24" type="dead_end" x="-1020.86" y="768.09" incLanes="58463_0" intLanes="" shape="-1020.84,769.84 -1020.89,766.34" rightOfWay="edgePriority"/>
    <junction id="25" type="dead_end" x="-933.38" y="676.94" incLanes="58219_0" intLanes="" shape="-935.13,676.95 -931.63,676.92" rightOfWay="edgePriority"/>
    <junction id="33" type="dead_end" x="-1020.93" y="764.59" incLanes="" intLanes="" shape="-1020.90,766.34 -1020.96,762.84" rightOfWay="edgePriority"/>
    <junction id="35" type="dead_end" x="-920.50" y="655.04" incLanes="58611_0" intLanes="" shape="-920.48,656.79 -920.52,653.29" rightOfWay="edgePriority"/>
    <junction id="38" type="dead_end" x="-783.87" y="678.69" incLanes="58361_0" intLanes="" shape="-785.62,678.72 -782.12,678.65" rightOfWay="edgePriority"/>
    <junction id="39" type="dead_end" x="-723.99" y="760.56" incLanes="58476_0" intLanes="" shape="-723.93,758.81 -724.04,762.31" rightOfWay="edgePriority"/>
    <junction id="40" type="dead_end" x="-776.71" y="852.45" incLanes="58365_0" intLanes="" shape="-774.96,852.41 -778.46,852.48" rightOfWay="edgePriority"/>
    <junction id="44" type="dead_end" x="-802.00" y="650.11" incLanes="58604_0" intLanes="" shape="-802.02,648.36 -801.98,651.86" rightOfWay="edgePriority"/>
    <junction id="46" type="dead_end" x="-920.56" y="651.55" incLanes="" intLanes="" shape="-920.54,653.29 -920.58,649.80" rightOfWay="edgePriority"/>
    <junction id="47" type="dead_end" x="-801.94" y="653.61" incLanes="" intLanes="" shape="-801.96,651.86 -801.92,655.36" rightOfWay="edgePriority"/>
    <junction id="48" type="dead_end" x="-780.21" y="852.52" incLanes="" intLanes="" shape="-778.46,852.48 -781.96,852.56" rightOfWay="edgePriority"/>
    <junction id="49" type="dead_end" x="-780.37" y="678.63" incLanes="" intLanes="" shape="-782.12,678.67 -778.62,678.59" rightOfWay="edgePriority"/>
    <junction id="50" type="dead_end" x="-724.19" y="764.05" incLanes="" intLanes="" shape="-724.13,762.30 -724.25,765.80" rightOfWay="edgePriority"/>