<routes>
	<vehicle depart="0.1" departLane="0" departPos="66.53815967155796" departSpeed="0.38367734" id="311" type="bicycle">
		<route edges="58147 58473"/>
	</vehicle>
	<vehicle depart="0.1" departLane="0" departPos="72.80210224557888" departSpeed="0.0" id="39" type="passenger">
		<route edges="58147 58473"/>
	</vehicle>
	<vehicle depart="0.1" departLane="0" departPos="65.28493998121805" departSpeed="0.017847393" id="318" type="passenger">
		<route edges="58147 58473"/>
	</vehicle>
	<vehicle depart="0.1" departLane="0" departPos="9.12959341343622" departSpeed="7.1110381" id="320" type="passenger">
		<route edges="58148 58608"/>
	</vehicle>
	<vehicle depart="0.1" departLane="0" departPos="36.5155008905001" departSpeed="3.1144929" id="337" type="passenger">
		<route edges="58147 58473"/>
	</vehicle>
	<vehicle depart="0.1" departLane="0" departPos="24.278740434024755" departSpeed="4.3299212" id="343" type="passenger">
		<route edges="58147 58473"/>
	</vehicle>
	<vehicle depart="0.1" departLane="0" departPos="10.053409904854146" departSpeed="5.6045605" id="348" type="passenger">
		<route edges="58147 58473"/>
	</vehicle>
	<vehicle depart="0.1" departLane="0" departPos="24.183953556071824" departSpeed="6.3280628" id="352" type="passenger">
		<route edges=":54_2 58147 58473"/>
	</vehicle>
	<vehicle depart="0.1" departLane="0" departPos="45.41728126339071" departSpeed="1.7594595" id="331" type="motorcycle">
		<route edges="58147 58473"/>
	</vehicle>
	<vehicle depart="0.1" departLane="0" departPos="57.272481613238824" departSpeed="0.52957605" id="327" type="truck">
		<route edges="58147 58473"/>
	</vehicle>
</routes>
