<routes>
	<vehicle depart="0.1" departLane="0" departPos="20.309839986558607" departSpeed="9.1900845" id="337" type="bus">
		<route edges=":16_4 20871"/>
	</vehicle>
	<vehicle depart="0.1" departLane="0" departPos="18.4936853746426" departSpeed="10.287033" id="312" type="passenger">
		<route edges=":16_5 21538"/>
	</vehicle>
	<vehicle depart="0.1" departLane="0" departPos="69.90861640705603" departSpeed="0.0" id="319" type="passenger">
		<route edges="21539 20871"/>
	</vehicle>
	<vehicle depart="0.1" departLane="0" departPos="71.31546632669307" departSpeed="1.3381299" id="325" type="passenger">
		<route edges="20870 21341 22034"/>
	</vehicle>
	<vehicle depart="0.1" departLane="0" departPos="42.52435513565401" departSpeed="0.52899571" id="326" type="passenger">
		<route edges="20870 21538"/>
	</vehicle>
	<vehicle depart="0.1" departLane="0" departPos="52.1864411579684" departSpeed="1.5849164" id="329" type="passenger">
		<route edges="20870 21538"/>
	</vehicle>
	<vehicle depart="0.1" departLane="0" departPos="29.734313582356673" departSpeed="1.6656411" id="330" type="passenger">
		<route edges="20870 21538"/>
	</vehicle>
	<vehicle depart="0.1" departLane="0" departPos="19.763557680428047" departSpeed="1.1273567" id="332" type="motorcycle">
		<route edges="20870 21538"/>
	</vehicle>
	<vehicle depart="0.1" departLane="0" departPos="20.20521686353617" departSpeed="0.76544627" id="322" type="truck">
		<route edges=":16_2 21538"/>
	</vehicle>
</routes>
