<routes>
	<vehicle depart="0.1" departLane="0" departPos="57.19251449943613" departSpeed="1.3597" id="38" type="bicycle">
		<route edges="1717 1714"/>
	</vehicle>
	<vehicle depart="0.1" departLane="0" departPos="9.446105029764455" departSpeed="1.786886" id="324" type="bus">
		<route edges=":33_0 596"/>
	</vehicle>
	<vehicle depart="0.1" departLane="0" departPos="72.49967920229601" departSpeed="1.6938456" id="36" type="passenger">
		<route edges="1717 1714 1301"/>
	</vehicle>
	<vehicle depart="0.1" departLane="0" departPos="11.252621735436746" departSpeed="0.0" id="312" type="passenger">
		<route edges="597 1301"/>
	</vehicle>
	<vehicle depart="0.1" departLane="0" departPos="9.78237905718477" departSpeed="1.8689933" id="316" type="passenger">
		<route edges="1714 151 410"/>
	</vehicle>
	<vehicle depart="0.1" departLane="0" departPos="23.48992561822299" departSpeed="1.9761836" id="321" type="passenger">
		<route edges="1717 1714"/>
	</vehicle>
	<vehicle depart="0.1" departLane="0" departPos="5.75733534052152" departSpeed="4.1951235" id="327" type="passenger">
		<route edges=":32_0 152"/>
	</vehicle>
	<vehicle depart="0.1" departLane="0" departPos="61.51226964226832" departSpeed="4.749337" id="329" type="passenger">
		<route edges="411 152"/>
	</vehicle>
	<vehicle depart="0.1" departLane="0" departPos="8.796873789299168" departSpeed="2.9183122" id="33" type="motorcycle">
		<route edges="596 4039"/>
	</vehicle>
	<vehicle depart="0.1" departLane="0" departPos="3.75" departSpeed="0.0" id="314" type="truck">
		<route edges="597 1301"/>
	</vehicle>
</routes>
