<!-- generated on Tue Feb  9 22:06:11 2021 by Eclipse SUMO netconvert Version 1.8.0
<configuration xmlns:xsi="http://www.w3.org/2001/XMLSchema-instance" xsi:noNamespaceSchemaLocation="http://sumo.dlr.de/xsd/netconvertConfiguration.xsd">

    <input>
        <node-files value="./converted_scenarios/scenario-factory/DEU_Meckenheim-5_1_I-1-1/DEU_Meckenheim-5_1_I-1-1.nod.xml"/>
        <edge-files value="./converted_scenarios/scenario-factory/DEU_Meckenheim-5_1_I-1-1/DEU_Meckenheim-5_1_I-1-1.edg.xml"/>
        <connection-files value="./converted_scenarios/scenario-factory/DEU_Meckenheim-5_1_I-1-1/DEU_Meckenheim-5_1_I-1-1.con.xml"/>
        <tllogic-files value="./converted_scenarios/scenario-factory/DEU_Meckenheim-5_1_I-1-1/DEU_Meckenheim-5_1_I-1-1.tll.xml"/>
        <type-files value="/home/zen/commonroad-interactive-benchmarks/install/commonroad-map-tool/crmapconverter/sumo_map/templates/DEU.typ.xml"/>
    </input>

    <output>
        <output-file value="./converted_scenarios/scenario-factory/DEU_Meckenheim-5_1_I-1-1/DEU_Meckenheim-5_1_I-1-1.net.xml"/>
    </output>

    <processing>
        <geometry.remove.keep-edges.explicit value="true"/>
        <geometry.avoid-overlap value="true"/>
        <offset.disable-normalization value="true"/>
    </processing>

    <junctions>
        <no-turnarounds value="true"/>
        <junctions.internal-link-detail value="20"/>
    </junctions>

    <report>
        <aggregate-warnings value="5"/>
    </report>

    <random_number>
        <seed value="1234"/>
    </random_number>

</configuration>
--><net xmlns:xsi="http://www.w3.org/2001/XMLSchema-instance" version="1.6" junctionCornerDetail="5" junctionLinkDetail="20" limitTurnSpeed="5.50" xsi:noNamespaceSchemaLocation="http://sumo.dlr.de/xsd/net_file.xsd">

    <location netOffset="0.00,0.00" convBoundary="-411.72,497.49,-218.59,620.96" origBoundary="-411.72,497.49,-218.59,620.96" projParameter="!"/>

    <type id="highway.bridleway" priority="1" speed="2.78" allow="pedestrian" oneway="1" width="2.00"/>
    <type id="highway.bus_guideway" priority="1" speed="27.78" allow="bus" oneway="1"/>
    <type id="highway.cycleway" priority="1" speed="8.33" allow="bicycle" oneway="0" width="1.00"/>
    <type id="highway.footway" priority="1" speed="2.78" allow="pedestrian" oneway="1" width="2.00"/>
    <type id="highway.ford" priority="1" speed="2.78" allow="army" oneway="0"/>
    <type id="highway.living_street" priority="2" speed="2.78" disallow="tram rail_urban rail rail_electric rail_fast ship" oneway="0"/>
    <type id="highway.motorway" priority="14" speed="39.44" allow="private emergency authority army vip passenger hov taxi bus coach delivery truck trailer motorcycle evehicle custom1 custom2" oneway="1"/>
    <type id="highway.motorway_link" priority="9" speed="22.22" allow="private emergency authority army vip passenger hov taxi bus coach delivery truck trailer motorcycle evehicle custom1 custom2" oneway="1"/>
    <type id="highway.path" priority="1" speed="2.78" allow="pedestrian bicycle" oneway="0" width="2.00"/>
    <type id="highway.pedestrian" priority="1" speed="2.78" allow="pedestrian" oneway="1" width="2.00"/>
    <type id="highway.primary" priority="12" speed="27.78" disallow="pedestrian tram rail_urban rail rail_electric rail_fast ship" oneway="0"/>
    <type id="highway.primary_link" priority="7" speed="22.22" disallow="pedestrian tram rail_urban rail rail_electric rail_fast ship" oneway="0"/>
    <type id="highway.raceway" priority="15" speed="83.33" allow="vip" oneway="0"/>
    <type id="highway.residential" priority="3" speed="13.89" disallow="pedestrian tram rail_urban rail rail_electric rail_fast ship" oneway="0"/>
    <type id="highway.secondary" priority="11" speed="27.78" disallow="pedestrian tram rail_urban rail rail_electric rail_fast ship" oneway="0"/>
    <type id="highway.secondary_link" priority="6" speed="22.22" disallow="pedestrian tram rail_urban rail rail_electric rail_fast ship" oneway="0"/>
    <type id="highway.service" priority="1" speed="5.56" allow="pedestrian delivery bicycle" oneway="0"/>
    <type id="highway.stairs" priority="1" speed="1.39" allow="pedestrian" oneway="1" width="2.00"/>
    <type id="highway.step" priority="1" speed="1.39" allow="pedestrian" oneway="1" width="2.00"/>
    <type id="highway.steps" priority="1" speed="1.39" allow="pedestrian" oneway="1" width="2.00"/>
    <type id="highway.tertiary" priority="10" speed="22.22" disallow="pedestrian tram rail_urban rail rail_electric rail_fast ship" oneway="0"/>
    <type id="highway.tertiary_link" priority="5" speed="22.22" disallow="pedestrian tram rail_urban rail rail_electric rail_fast ship" oneway="0"/>
    <type id="highway.track" priority="1" speed="5.56" allow="pedestrian motorcycle moped bicycle" oneway="0"/>
    <type id="highway.trunk" priority="13" speed="27.78" disallow="pedestrian bicycle tram rail_urban rail rail_electric rail_fast ship" oneway="0"/>
    <type id="highway.trunk_link" priority="8" speed="22.22" disallow="pedestrian bicycle tram rail_urban rail rail_electric rail_fast ship" oneway="0"/>
    <type id="highway.unclassified" priority="4" speed="13.89" disallow="pedestrian tram rail_urban rail rail_electric rail_fast ship" oneway="0"/>
    <type id="highway.unsurfaced" priority="1" speed="8.33" disallow="tram rail_urban rail rail_electric rail_fast ship" oneway="0"/>
    <type id="railway.highspeed" priority="21" speed="69.44" allow="rail_fast" oneway="1"/>
    <type id="railway.light_rail" priority="19" speed="27.78" allow="rail_urban" oneway="1"/>
    <type id="railway.preserved" priority="16" speed="27.78" allow="rail" oneway="1"/>
    <type id="railway.rail" priority="20" speed="44.44" allow="rail" oneway="1"/>
    <type id="railway.subway" priority="18" speed="27.78" allow="rail_urban" oneway="1"/>
    <type id="railway.tram" priority="17" speed="13.89" allow="tram" oneway="1"/>

    <edge id=":13_0" function="internal">
        <lane id=":13_0_0" index="0" disallow="pedestrian tram rail_urban rail rail_electric rail_fast ship" speed="36.11" length="3.00" width="3.50" shape="-339.03,599.98 -341.11,602.14"/>
    </edge>
    <edge id=":20_0" function="internal">
        <lane id=":20_0_0" index="0" disallow="pedestrian tram rail_urban rail rail_electric rail_fast ship" speed="36.11" length="2.99" width="3.50" shape="-346.03,570.41 -348.79,569.25"/>
    </edge>
    <edge id=":23_0" function="internal">
        <lane id=":23_0_0" index="0" disallow="pedestrian tram rail_urban rail rail_electric rail_fast ship" speed="36.11" length="3.00" width="3.50" shape="-343.64,599.73 -341.56,597.57"/>
    </edge>
    <edge id=":25_0" function="internal">
        <lane id=":25_0_0" index="0" disallow="pedestrian tram rail_urban rail rail_electric rail_fast ship" speed="36.11" length="3.00" width="3.50" shape="-347.44,566.02 -344.68,567.19"/>
    </edge>
    <edge id=":31_0" function="internal">
        <lane id=":31_0_0" index="0" disallow="pedestrian tram rail_urban rail rail_electric rail_fast ship" speed="15.62" length="20.70" width="3.49" shape="-290.59,550.67 -294.14,554.46 -297.06,558.09 -299.06,561.10 -300.48,563.87 -301.33,566.31 -301.59,567.83"/>
    </edge>
    <edge id=":31_1" function="internal">
        <lane id=":31_1_0" index="0" disallow="pedestrian tram rail_urban rail rail_electric rail_fast ship" speed="36.11" length="26.38" width="3.50" shape="-290.59,550.67 -299.95,559.98 -309.29,569.27"/>
    </edge>
    <edge id=":31_2" function="internal">
        <lane id=":31_2_0" index="0" disallow="pedestrian tram rail_urban rail rail_electric rail_fast ship" speed="36.11" length="26.31" width="3.50" shape="-311.75,566.77 -302.41,557.49 -293.09,548.22"/>
    </edge>
    <edge id=":32_0" function="internal">
        <lane id=":32_0_0" index="0" disallow="pedestrian tram rail_urban rail rail_electric rail_fast ship" speed="36.11" length="26.12" width="3.50" shape="-285.73,596.86 -288.62,595.63 -309.73,586.54"/>
    </edge>
    <edge id=":32_1" function="internal">
        <lane id=":32_1_0" index="0" disallow="pedestrian tram rail_urban rail rail_electric rail_fast ship" speed="13.00" length="20.47" width="3.50" shape="-300.38,581.69 -300.09,582.52 -299.28,583.89 -297.92,585.51 -295.94,587.27 -293.34,589.09 -289.65,591.18 -284.86,593.42 -284.37,593.63"/>
    </edge>
    <edge id=":32_2" function="internal">
        <lane id=":32_2_0" index="0" disallow="pedestrian tram rail_urban rail rail_electric rail_fast ship" speed="36.11" length="26.06" width="3.50" shape="-308.31,583.34 -287.25,592.41 -284.37,593.63"/>
    </edge>
    <edge id=":33_0" function="internal">
        <lane id=":33_0_0" index="0" disallow="pedestrian tram rail_urban rail rail_electric rail_fast ship" speed="12.14" length="24.85" width="3.50" shape="-309.98,586.43 -311.91,585.69 -313.92,585.18 -315.97,584.95 -318.04,584.99 -320.09,585.31 -322.07,585.90 -323.98,586.70 -325.80,587.69 -328.35,589.46 -330.71,591.48 -332.19,592.94"/>
    </edge>
    <edge id=":33_1" function="internal">
        <lane id=":33_1_0" index="0" disallow="pedestrian tram rail_urban rail rail_electric rail_fast ship" speed="36.11" length="22.35" width="3.49" shape="-309.98,586.43 -319.28,582.21 -330.33,577.19"/>
    </edge>
    <edge id=":33_2" function="internal">
        <lane id=":33_2_0" index="0" disallow="pedestrian tram rail_urban rail rail_electric rail_fast ship" speed="8.82" length="22.19" width="3.49" shape="-309.98,586.43 -313.83,584.55 -316.47,583.00 -318.44,581.55 -319.75,580.26 -320.46,579.27 -320.92,578.13 -321.00,577.53 -320.95,576.92 -320.79,576.33 -320.18,575.27 -316.63,571.66"/>
    </edge>
    <edge id=":33_3" function="internal">
        <lane id=":33_3_0" index="0" disallow="pedestrian tram rail_urban rail rail_electric rail_fast ship" speed="36.11" length="26.09" width="3.50" shape="-314.13,574.11 -324.73,585.10 -332.19,592.94"/>
    </edge>
    <edge id=":33_4" function="internal">
        <lane id=":33_4_0" index="0" disallow="pedestrian tram rail_urban rail rail_electric rail_fast ship" speed="10.58" length="18.50" width="3.49" shape="-314.13,574.11 -318.53,578.28 -320.01,579.03 -321.59,579.41 -323.15,579.48 -324.63,579.31 -326.02,578.97 -327.33,578.52 -330.33,577.19"/>
    </edge>
    <edge id=":33_5" function="internal">
        <lane id=":33_5_0" index="0" disallow="pedestrian tram rail_urban rail rail_electric rail_fast ship" speed="9.36" length="14.32" width="3.49" shape="-328.97,573.96 -326.21,575.20 -325.29,575.53 -324.34,575.79 -323.38,575.95 -322.40,575.97 -321.44,575.80 -320.54,575.42 -316.63,571.66"/>
    </edge>
    <edge id=":33_6" function="internal">
        <lane id=":33_6_0" index="0" disallow="pedestrian tram rail_urban rail rail_electric rail_fast ship" speed="36.11" length="22.40" width="3.50" shape="-328.97,573.96 -317.83,579.02 -308.57,583.22"/>
    </edge>
    <edge id=":33_7" function="internal">
        <lane id=":33_7_0" index="0" disallow="pedestrian tram rail_urban rail rail_electric rail_fast ship" speed="9.24" length="24.25" width="3.50" shape="-328.97,573.96 -325.83,575.56 -324.76,576.58 -324.05,577.87 -323.81,579.33 -323.96,580.80 -324.38,582.22 -324.98,583.57 -326.49,586.12 -328.25,588.50 -331.17,591.86 -332.19,592.94"/>
    </edge>
    <edge id=":33_8" function="internal">
        <lane id=":33_8_0" index="0" disallow="pedestrian tram rail_urban rail rail_electric rail_fast ship" speed="7.89" length="17.25" width="3.49" shape="-334.70,590.50 -333.86,589.62 -331.42,586.85 -329.94,584.96 -328.65,582.98 -328.14,582.01 -327.74,581.02 -327.52,580.09 -327.52,579.30 -327.68,578.80 -327.95,578.41 -330.33,577.19"/>
    </edge>
    <edge id=":33_9" function="internal">
        <lane id=":33_9_0" index="0" disallow="pedestrian tram rail_urban rail rail_electric rail_fast ship" speed="36.11" length="26.11" width="3.49" shape="-334.70,590.50 -327.25,582.67 -316.63,571.66"/>
    </edge>
    <edge id=":33_10" function="internal">
        <lane id=":33_10_0" index="0" disallow="pedestrian tram rail_urban rail rail_electric rail_fast ship" speed="13.14" length="29.10" width="3.50" shape="-334.70,590.50 -333.02,588.85 -330.33,586.56 -327.39,584.56 -325.24,583.41 -322.98,582.48 -320.61,581.82 -318.16,581.47 -315.68,581.44 -313.22,581.75 -310.83,582.36 -308.57,583.22"/>
    </edge>

    <edge id="1301" from="33" to="31" priority="3" type="highway.residential" spreadType="center" length="6.92" shape="-323.60,581.10 -302.54,559.54">
        <lane id="1301_0" index="0" disallow="pedestrian tram rail_urban rail rail_electric rail_fast ship" speed="36.11" length="6.92" width="3.49" customShape="1" shape="-316.63,571.66 -315.76,570.79 -311.93,566.96 -311.84,566.86 -311.74,566.77"/>
    </edge>
    <edge id="151" from="33" to="32" priority="3" type="highway.residential" spreadType="center" length="0.29" shape="-321.99,580.52 -297.34,586.58">
        <lane id="151_0" index="0" disallow="pedestrian tram rail_urban rail rail_electric rail_fast ship" speed="36.11" length="0.29" width="3.50" customShape="1" shape="-308.57,583.22 -308.43,583.28 -308.31,583.34"/>
    </edge>
    <edge id="152" from="32" to="33" priority="3" type="highway.residential" spreadType="center" length="0.28" shape="-298.17,589.97 -322.82,583.91">
        <lane id="152_0" index="0" disallow="pedestrian tram rail_urban rail rail_electric rail_fast ship" speed="36.11" length="0.28" width="3.50" customShape="1" shape="-309.73,586.54 -309.86,586.48 -309.98,586.42"/>
    </edge>
    <edge id="1714" from="25" to="33" priority="3" type="highway.residential" spreadType="center" length="17.11" shape="-346.06,566.60 -321.33,580.79">
        <lane id="1714_0" index="0" disallow="pedestrian tram rail_urban rail rail_electric rail_fast ship" speed="36.11" length="17.11" width="3.50" customShape="1" shape="-344.68,567.19 -332.22,572.49 -328.97,573.96"/>
    </edge>
    <edge id="1717" from="26" to="25" priority="3" type="highway.residential" spreadType="center" length="68.50">
        <lane id="1717_0" index="0" disallow="pedestrian tram rail_urban rail rail_electric rail_fast ship" speed="36.11" length="68.50" width="3.50" customShape="1" shape="-410.37,539.02 -403.94,541.33 -396.47,544.44 -380.92,551.73 -371.22,556.04 -347.44,566.02"/>
    </edge>
    <edge id="1718" from="20" to="21" priority="3" type="highway.residential" spreadType="center" length="68.50">
        <lane id="1718_0" index="0" disallow="pedestrian tram rail_urban rail rail_electric rail_fast ship" speed="36.11" length="68.50" width="3.50" customShape="1" shape="-348.79,569.25 -372.52,559.29 -382.23,554.98 -397.74,547.71 -405.10,544.63 -411.72,542.25"/>
    </edge>
    <edge id="1848" from="31" to="33" priority="3" type="highway.residential" spreadType="center" length="6.84" shape="-300.04,561.98 -321.11,583.54">
        <lane id="1848_0" index="0" disallow="pedestrian tram rail_urban rail rail_electric rail_fast ship" speed="36.11" length="6.84" width="3.50" customShape="1" shape="-309.29,569.27 -309.38,569.36 -309.47,569.45 -313.28,573.26 -314.13,574.11"/>
    </edge>
    <edge id="3270" from="33" to="20" priority="3" type="highway.residential" spreadType="center" length="17.10" shape="-323.06,583.81 -347.41,569.83">
        <lane id="3270_0" index="0" disallow="pedestrian tram rail_urban rail rail_electric rail_fast ship" speed="36.11" length="17.10" width="3.49" customShape="1" shape="-330.33,577.19 -333.65,575.69 -346.03,570.41"/>
    </edge>
    <edge id="3309" from="24" to="23" priority="3" type="highway.residential" spreadType="center" length="26.06">
        <lane id="3309_0" index="0" disallow="pedestrian tram rail_urban rail rail_electric rail_fast ship" speed="36.11" length="26.06" width="3.50" customShape="1" shape="-361.59,618.62 -358.72,615.47 -343.64,599.73"/>
    </edge>
    <edge id="4039" from="13" to="22" priority="3" type="highway.residential" spreadType="center" length="25.96">
        <lane id="4039_0" index="0" disallow="pedestrian tram rail_urban rail rail_electric rail_fast ship" speed="36.11" length="25.96" width="3.50" customShape="1" shape="-341.11,602.14 -356.15,617.84 -358.99,620.96"/>
    </edge>
    <edge id="410" from="32" to="8" priority="3" type="highway.residential" spreadType="center" length="70.00" shape="-297.15,586.63 -218.59,617.40">
        <lane id="410_0" index="0" disallow="pedestrian tram rail_urban rail rail_electric rail_fast ship" speed="36.11" length="70.00" width="3.50" customShape="1" shape="-284.37,593.63 -279.29,595.78 -264.93,601.72 -253.23,606.21 -239.98,610.84 -227.08,614.95 -218.59,617.40"/>
    </edge>
    <edge id="411" from="19" to="32" priority="3" type="highway.residential" spreadType="center" length="70.01" shape="-219.96,620.65 -298.43,589.89">
        <lane id="411_0" index="0" disallow="pedestrian tram rail_urban rail rail_electric rail_fast ship" speed="36.11" length="70.01" width="3.50" customShape="1" shape="-219.96,620.65 -228.15,618.28 -241.13,614.15 -254.45,609.49 -266.22,604.97 -280.64,599.01 -285.74,596.85"/>
    </edge>
    <edge id="42" from="31" to="32" priority="3" type="highway.residential" spreadType="center" length="13.98">
        <lane id="42_0" index="0" disallow="pedestrian tram rail_urban rail rail_electric rail_fast ship" speed="36.11" length="13.98" width="3.49" customShape="1" shape="-301.68,567.82 -301.72,568.99 -301.73,569.11 -301.69,573.38 -301.34,577.10 -300.67,580.78 -300.64,580.90 -300.46,581.70"/>
    </edge>
    <edge id="596" from="33" to="13" priority="3" type="highway.residential" spreadType="center" length="9.82" shape="-321.01,583.45 -340.07,601.06">
        <lane id="596_0" index="0" disallow="pedestrian tram rail_urban rail rail_electric rail_fast ship" speed="36.11" length="9.82" width="3.50" customShape="1" shape="-332.19,592.94 -336.13,597.00 -339.03,599.98"/>
    </edge>
    <edge id="597" from="23" to="33" priority="3" type="highway.residential" spreadType="center" length="9.85" shape="-342.61,598.65 -323.39,580.89">
        <lane id="597_0" index="0" disallow="pedestrian tram rail_urban rail rail_electric rail_fast ship" speed="36.11" length="9.85" width="3.50" customShape="1" shape="-341.56,597.57 -338.65,594.57 -334.70,590.50"/>
    </edge>
    <edge id="77" from="1" to="31" priority="3" type="highway.residential" spreadType="center" length="70.00" shape="-242.37,499.95 -300.03,561.98">
        <lane id="77_0" index="0" disallow="pedestrian tram rail_urban rail rail_electric rail_fast ship" speed="36.11" length="70.00" width="3.50" customShape="1" shape="-242.37,499.95 -262.89,521.86 -277.87,537.65 -290.60,550.68"/>
    </edge>
    <edge id="78" from="31" to="4" priority="3" type="highway.residential" spreadType="center" length="69.99" shape="-302.60,559.60 -244.87,497.49">
        <lane id="78_0" index="0" disallow="pedestrian tram rail_urban rail rail_electric rail_fast ship" speed="36.11" length="69.99" width="3.50" customShape="1" shape="-293.09,548.22 -280.45,535.29 -265.58,519.61 -244.87,497.49"/>
    </edge>

    <junction id="1" type="dead_end" x="-242.37" y="499.95" incLanes="" intLanes="" shape="-243.65,498.76 -241.09,501.15" rightOfWay="edgePriority"/>
    <junction id="13" type="priority" x="-340.07" y="601.06" incLanes="596_0" intLanes=":13_0_0" shape="-337.77,601.20 -340.28,598.77 -342.37,600.93 -339.84,603.35" rightOfWay="edgePriority">
        <request index="0" response="0" foes="0" cont="0"/>
    </junction>
    <junction id="19" type="dead_end" x="-219.96" y="620.65" incLanes="" intLanes="" shape="-219.48,618.97 -220.45,622.33" rightOfWay="edgePriority"/>
    <junction id="20" type="priority" x="-347.41" y="569.83" incLanes="3270_0" intLanes=":20_0_0" shape="-346.71,572.02 -345.34,568.81 -348.11,567.63 -349.47,570.86" rightOfWay="edgePriority">
        <request index="0" response="0" foes="0" cont="0"/>
    </junction>
    <junction id="21" type="dead_end" x="-411.72" y="542.25" incLanes="1718_0" intLanes="" shape="-412.31,543.90 -411.13,540.61" rightOfWay="edgePriority"/>
    <junction id="22" type="dead_end" x="-358.99" y="620.96" incLanes="4039_0" intLanes="" shape="-357.70,622.14 -360.28,619.78" rightOfWay="edgePriority"/>
    <junction id="23" type="priority" x="-342.61" y="598.65" incLanes="3309_0" intLanes=":23_0_0" shape="-340.31,598.79 -342.82,596.35 -344.91,598.52 -342.38,600.94" rightOfWay="edgePriority">
        <request index="0" response="0" foes="0" cont="0"/>
    </junction>
    <junction id="24" type="dead_end" x="-361.59" y="618.62" incLanes="" intLanes="" shape="-360.30,619.79 -362.89,617.44" rightOfWay="edgePriority"/>
    <junction id="25" type="priority" x="-346.06" y="566.60" incLanes="1717_0" intLanes=":25_0_0" shape="-345.36,568.79 -343.99,565.58 -346.76,564.40 -348.11,567.63" rightOfWay="edgePriority">
        <request index="0" response="0" foes="0" cont="0"/>
    </junction>
    <junction id="26" type="dead_end" x="-410.37" y="539.02" incLanes="" intLanes="" shape="-410.96,540.67 -409.78,537.37" rightOfWay="edgePriority"/>
    <junction id="31" type="priority" x="-301.29" y="560.76" incLanes="77_0 1301_0" intLanes=":31_0_0 :31_1_0 :31_2_0" shape="-303.42,567.76 -299.93,567.89 -299.49,563.85 -298.52,561.00 -297.02,558.87 -294.99,556.96 -292.43,554.79 -289.34,551.89 -294.34,547.00 -312.97,565.53 -308.06,570.51 -305.46,568.15 -304.55,567.51 -303.91,567.23 -303.53,567.32">
        <request index="0" response="000" foes="000" cont="0"/>
        <request index="1" response="000" foes="000" cont="0"/>
        <request index="2" response="000" foes="000" cont="0"/>
    </junction>
    <junction id="32" type="priority" x="-297.75" y="588.28" incLanes="411_0 42_0 151_0" intLanes=":32_0_0 :32_1_0 :32_2_0" shape="-286.42,598.47 -283.69,592.02 -287.99,590.08 -291.58,588.20 -294.45,586.39 -296.60,584.63 -298.04,582.94 -298.76,581.32 -302.17,582.09 -302.54,583.08 -303.26,583.16 -304.34,582.96 -305.79,582.49 -307.59,581.74 -310.44,588.13">
        <request index="0" response="000" foes="000" cont="0"/>
        <request index="1" response="100" foes="100" cont="0"/>
        <request index="2" response="000" foes="010" cont="0"/>
    </junction>
    <junction id="33" type="priority" x="-322.29" y="582.25" incLanes="152_0 1848_0 1714_0 597_0" intLanes=":33_0_0 :33_1_0 :33_2_0 :33_3_0 :33_4_0 :33_5_0 :33_6_0 :33_7_0 :33_8_0 :33_9_0 :33_10_0" shape="-310.68,588.03 -307.86,581.62 -310.18,580.49 -311.91,579.39 -313.04,578.32 -313.58,577.29 -313.53,576.30 -312.88,575.34 -317.88,570.44 -319.43,571.76 -321.06,572.68 -322.76,573.20 -324.53,573.32 -326.37,573.04 -328.29,572.35 -331.01,578.80 -329.95,580.69 -330.43,582.24 -331.60,584.19 -333.44,586.53 -335.96,589.28 -330.93,594.15 -327.52,591.04 -324.12,588.77 -320.74,587.33 -317.37,586.73 -314.02,586.96">
        <request index="0" response="00000001000" foes="00010001000" cont="0"/>
        <request index="1" response="11100011000" foes="11110011000" cont="0"/>
        <request index="2" response="11001111000" foes="11001111000" cont="0"/>
        <request index="3" response="00000000000" foes="10011000111" cont="0"/>
        <request index="4" response="01100000000" foes="01111000110" cont="0"/>
        <request index="5" response="01000000000" foes="01000000100" cont="0"/>
        <request index="6" response="11000011000" foes="11000011100" cont="0"/>
        <request index="7" response="11000011011" foes="11000011011" cont="0"/>
        <request index="8" response="00000000000" foes="00000010010" cont="0"/>
        <request index="9" response="00000000000" foes="00011110110" cont="0"/>
        <request index="10" response="00000001000" foes="00011001110" cont="0"/>
    </junction>
    <junction id="4" type="dead_end" x="-244.87" y="497.49" incLanes="78_0" intLanes="" shape="-246.14,496.29 -243.59,498.68" rightOfWay="edgePriority"/>
    <junction id="8" type="dead_end" x="-218.59" y="617.40" incLanes="410_0" intLanes="" shape="-218.10,615.72 -219.08,619.08" rightOfWay="edgePriority"/>

    <connection from="1301" to="78" fromLane="0" toLane="0" contPos="-4.00" shape="-311.75,566.77 -302.41,557.49 -293.09,548.22" via=":31_2_0" dir="s" state="M"/>
    <connection from="151" to="410" fromLane="0" toLane="0" contPos="-4.00" shape="-308.31,583.34 -287.25,592.41 -284.37,593.63" via=":32_2_0" dir="s" state="M"/>
    <connection from="152" to="596" fromLane="0" toLane="0" contPos="-4.00" shape="-309.98,586.42 -311.91,585.69 -313.92,585.18 -315.97,584.95 -318.04,584.99 -320.09,585.31 -322.07,585.90 -323.98,586.70 -325.80,587.69 -328.35,589.46 -330.71,591.48 -332.19,592.94" via=":33_0_0" dir="r" state="m"/>
    <connection from="152" to="3270" fromLane="0" toLane="0" contPos="-4.00" shape="-309.98,586.42 -319.28,582.21 -328.63,577.95" via=":33_1_0" dir="s" state="m"/>
    <connection from="152" to="1301" fromLane="0" toLane="0" contPos="-4.00" shape="-309.98,586.42 -313.83,584.55 -316.47,583.00 -318.44,581.55 -319.75,580.26 -320.46,579.27 -320.92,578.13 -321.00,577.53 -320.95,576.92 -320.79,576.33 -320.18,575.27 -319.79,574.83" via=":33_2_0" dir="l" state="m"/>
    <connection from="1714" to="1301" fromLane="0" toLane="0" contPos="-4.00" shape="-327.11,574.81 -326.21,575.20 -325.29,575.53 -324.34,575.79 -323.38,575.95 -322.40,575.97 -321.44,575.80 -320.54,575.42 -319.79,574.83" via=":33_5_0" dir="r" state="m"/>
    <connection from="1714" to="151" fromLane="0" toLane="0" contPos="-4.00" shape="-327.11,574.81 -317.83,579.02 -308.57,583.22" via=":33_6_0" dir="s" state="m"/>
    <connection from="1714" to="596" fromLane="0" toLane="0" contPos="-4.00" shape="-327.11,574.81 -325.83,575.56 -324.76,576.58 -324.05,577.87 -323.81,579.33 -323.96,580.80 -324.38,582.22 -324.98,583.57 -326.49,586.12 -328.25,588.50 -331.17,591.86 -332.19,592.94" via=":33_7_0" dir="l" state="m"/>
    <connection from="1717" to="1714" fromLane="0" toLane="0" contPos="-4.00" via=":25_0_0" dir="s" state="M"/>
    <connection from="1848" to="596" fromLane="0" toLane="0" contPos="-4.00" shape="-317.31,577.30 -324.73,585.10 -332.19,592.94" via=":33_3_0" dir="s" state="M"/>
    <connection from="1848" to="3270" fromLane="0" toLane="0" contPos="-4.00" shape="-317.31,577.30 -318.53,578.28 -320.01,579.03 -321.59,579.41 -323.15,579.48 -324.63,579.31 -326.02,578.97 -327.33,578.52 -328.63,577.95" via=":33_4_0" dir="l" state="m"/>
    <connection from="3270" to="1718" fromLane="0" toLane="0" contPos="-4.00" via=":20_0_0" dir="s" state="M"/>
    <connection from="3309" to="597" fromLane="0" toLane="0" contPos="-4.00" via=":23_0_0" dir="s" state="M"/>
    <connection from="411" to="152" fromLane="0" toLane="0" contPos="-4.00" shape="-285.74,596.85 -288.62,595.63 -309.73,586.54" via=":32_0_0" dir="s" state="M"/>
    <connection from="42" to="410" fromLane="0" toLane="0" contPos="-4.00" shape="-300.62,581.03 -300.09,582.52 -299.28,583.89 -297.92,585.51 -295.94,587.27 -293.34,589.09 -289.65,591.18 -284.86,593.42 -284.37,593.63" via=":32_1_0" dir="r" state="m"/>
    <connection from="596" to="4039" fromLane="0" toLane="0" contPos="-4.00" via=":13_0_0" dir="s" state="M"/>
    <connection from="597" to="3270" fromLane="0" toLane="0" contPos="-4.00" shape="-334.70,590.50 -333.86,589.62 -331.42,586.85 -329.94,584.96 -328.65,582.98 -328.14,582.01 -327.74,581.02 -327.52,580.09 -327.52,579.30 -327.68,578.80 -327.95,578.41 -328.63,577.95" via=":33_8_0" dir="r" state="M"/>
    <connection from="597" to="1301" fromLane="0" toLane="0" contPos="-4.00" shape="-334.70,590.50 -327.25,582.67 -319.79,574.83" via=":33_9_0" dir="s" state="M"/>
    <connection from="597" to="151" fromLane="0" toLane="0" contPos="-4.00" shape="-334.70,590.50 -333.02,588.85 -330.33,586.56 -327.39,584.56 -325.24,583.41 -322.98,582.48 -320.61,581.82 -318.16,581.47 -315.68,581.44 -313.22,581.75 -310.83,582.36 -308.57,583.22" via=":33_10_0" dir="l" state="m"/>
    <connection from="77" to="42" fromLane="0" toLane="0" contPos="-4.00" shape="-290.60,550.68 -294.14,554.46 -297.06,558.09 -299.06,561.10 -300.48,563.87 -301.33,566.31 -301.68,568.34 -301.72,568.86" via=":31_0_0" dir="r" state="M"/>
    <connection from="77" to="1848" fromLane="0" toLane="0" contPos="-4.00" shape="-290.60,550.68 -299.95,559.98 -309.29,569.27" via=":31_1_0" dir="s" state="M"/>

    <connection from=":13_0" to="4039" fromLane="0" toLane="0" dir="s" state="M"/>
    <connection from=":20_0" to="1718" fromLane="0" toLane="0" dir="s" state="M"/>
    <connection from=":23_0" to="597" fromLane="0" toLane="0" dir="s" state="M"/>
    <connection from=":25_0" to="1714" fromLane="0" toLane="0" dir="s" state="M"/>
    <connection from=":31_0" to="42" fromLane="0" toLane="0" dir="r" state="M"/>
    <connection from=":31_1" to="1848" fromLane="0" toLane="0" dir="s" state="M"/>
    <connection from=":31_2" to="78" fromLane="0" toLane="0" dir="s" state="M"/>
    <connection from=":32_0" to="152" fromLane="0" toLane="0" dir="s" state="M"/>
    <connection from=":32_1" to="410" fromLane="0" toLane="0" dir="r" state="M"/>
    <connection from=":32_2" to="410" fromLane="0" toLane="0" dir="s" state="M"/>
    <connection from=":33_0" to="596" fromLane="0" toLane="0" dir="r" state="M"/>
    <connection from=":33_1" to="3270" fromLane="0" toLane="0" dir="s" state="M"/>
    <connection from=":33_2" to="1301" fromLane="0" toLane="0" dir="l" state="M"/>
    <connection from=":33_3" to="596" fromLane="0" toLane="0" dir="s" state="M"/>
    <connection from=":33_4" to="3270" fromLane="0" toLane="0" dir="l" state="M"/>
    <connection from=":33_5" to="1301" fromLane="0" toLane="0" dir="r" state="M"/>
    <connection from=":33_6" to="151" fromLane="0" toLane="0" dir="s" state="M"/>
    <connection from=":33_7" to="596" fromLane="0" toLane="0" dir="l" state="M"/>
    <connection from=":33_8" to="3270" fromLane="0" toLane="0" dir="r" state="M"/>
    <connection from=":33_9" to="1301" fromLane="0" toLane="0" dir="s" state="M"/>
    <connection from=":33_10" to="151" fromLane="0" toLane="0" dir="l" state="M"/>

</net>