<routes>
	<vehicle depart="0.1" departLane="0" departPos="12.48560520129333" departSpeed="0.59363069" id="31" type="passenger">
		<route edges=":60_2 77298"/>
	</vehicle>
	<vehicle depart="0.1" departLane="0" departPos="8.26041477018289" departSpeed="1.1677603" id="312" type="passenger">
		<route edges=":60_1 77739"/>
	</vehicle>
	<vehicle depart="0.1" departLane="0" departPos="69.78007743982886" departSpeed="0.82638841" id="314" type="passenger">
		<route edges="77299 77302 77071"/>
	</vehicle>
	<vehicle depart="0.1" departLane="0" departPos="60.509011749717295" departSpeed="0.434256" id="323" type="passenger">
		<route edges="77299 77739"/>
	</vehicle>
	<vehicle depart="0.1" departLane="0" departPos="54.58532141348959" departSpeed="0.68983559" id="326" type="passenger">
		<route edges="77299 77739"/>
	</vehicle>
	<vehicle depart="0.1" departLane="0" departPos="45.98549095211408" departSpeed="0.76393535" id="346" type="passenger">
		<route edges="77299 77739"/>
	</vehicle>
	<vehicle depart="0.1" departLane="0" departPos="38.17506523855129" departSpeed="0.10377455" id="354" type="passenger">
		<route edges="77299 77739"/>
	</vehicle>
	<vehicle depart="0.1" departLane="0" departPos="28.972517761138075" departSpeed="0.15535424" id="362" type="passenger">
		<route edges="77299 77739"/>
	</vehicle>
</routes>
