<routes>
	<vehicle depart="0.1" departLane="0" departPos="55.459930024099336" departSpeed="0.56025616" id="325" type="bicycle">
		<route edges="33448 33529"/>
	</vehicle>
	<vehicle depart="0.1" departLane="0" departPos="2.5" departSpeed="2.0062795" id="315" type="passenger">
		<route edges="33279 33447"/>
	</vehicle>
	<vehicle depart="0.1" departLane="0" departPos="28.315740383323227" departSpeed="0.71657909" id="319" type="passenger">
		<route edges=":77_0 33279 33447"/>
	</vehicle>
	<vehicle depart="0.1" departLane="0" departPos="57.30240376431125" departSpeed="0.79633329" id="330" type="passenger">
		<route edges="33448 33529"/>
	</vehicle>
	<vehicle depart="0.1" departLane="0" departPos="6.479833193776735" departSpeed="1.6539569" id="337" type="passenger">
		<route edges=":81_3 33529"/>
	</vehicle>
	<vehicle depart="0.1" departLane="0" departPos="29.9930048776092" departSpeed="0.099958951" id="342" type="passenger">
		<route edges="33448 33529"/>
	</vehicle>
	<vehicle depart="0.1" departLane="0" departPos="7.535078449644381" departSpeed="0.52341101" id="348" type="passenger">
		<route edges="33448 33529"/>
	</vehicle>
	<vehicle depart="0.1" departLane="0" departPos="54.91542929328936" departSpeed="1.1559977" id="369" type="passenger">
		<route edges="33530 33280"/>
	</vehicle>
	<vehicle depart="0.1" departLane="0" departPos="40.687035409566896" departSpeed="2.3321291" id="326" type="motorcycle">
		<route edges="33448 33529"/>
	</vehicle>
	<vehicle depart="0.1" departLane="0" departPos="66.05832182792076" departSpeed="0.0" id="368" type="truck">
		<route edges="33530 33280"/>
	</vehicle>
</routes>
