<!-- generated on Tue Feb  9 22:20:21 2021 by Eclipse SUMO netconvert Version 1.8.0
<configuration xmlns:xsi="http://www.w3.org/2001/XMLSchema-instance" xsi:noNamespaceSchemaLocation="http://sumo.dlr.de/xsd/netconvertConfiguration.xsd">

    <input>
        <node-files value="./converted_scenarios/scenario-factory/DEU_Rheinbach-4_6_I-1-1/DEU_Rheinbach-4_6_I-1-1.nod.xml"/>
        <edge-files value="./converted_scenarios/scenario-factory/DEU_Rheinbach-4_6_I-1-1/DEU_Rheinbach-4_6_I-1-1.edg.xml"/>
        <connection-files value="./converted_scenarios/scenario-factory/DEU_Rheinbach-4_6_I-1-1/DEU_Rheinbach-4_6_I-1-1.con.xml"/>
        <tllogic-files value="./converted_scenarios/scenario-factory/DEU_Rheinbach-4_6_I-1-1/DEU_Rheinbach-4_6_I-1-1.tll.xml"/>
        <type-files value="/home/zen/commonroad-interactive-benchmarks/install/commonroad-map-tool/crmapconverter/sumo_map/templates/DEU.typ.xml"/>
    </input>

    <output>
        <output-file value="./converted_scenarios/scenario-factory/DEU_Rheinbach-4_6_I-1-1/DEU_Rheinbach-4_6_I-1-1.net.xml"/>
    </output>

    <processing>
        <geometry.remove.keep-edges.explicit value="true"/>
        <geometry.avoid-overlap value="true"/>
        <offset.disable-normalization value="true"/>
    </processing>

    <junctions>
        <no-turnarounds value="true"/>
        <junctions.internal-link-detail value="20"/>
    </junctions>

    <report>
        <aggregate-warnings value="5"/>
    </report>

    <random_number>
        <seed value="1234"/>
    </random_number>

</configuration>
--><net xmlns:xsi="http://www.w3.org/2001/XMLSchema-instance" version="1.6" junctionCornerDetail="5" junctionLinkDetail="20" limitTurnSpeed="5.50" xsi:noNamespaceSchemaLocation="http://sumo.dlr.de/xsd/net_file.xsd">

    <location netOffset="0.00,0.00" convBoundary="-165.47,618.70,26.79,985.24" origBoundary="-165.47,618.70,26.79,985.24" projParameter="!"/>

    <type id="highway.bridleway" priority="1" speed="2.78" allow="pedestrian" oneway="1" width="2.00"/>
    <type id="highway.bus_guideway" priority="1" speed="27.78" allow="bus" oneway="1"/>
    <type id="highway.cycleway" priority="1" speed="8.33" allow="bicycle" oneway="0" width="1.00"/>
    <type id="highway.footway" priority="1" speed="2.78" allow="pedestrian" oneway="1" width="2.00"/>
    <type id="highway.ford" priority="1" speed="2.78" allow="army" oneway="0"/>
    <type id="highway.living_street" priority="2" speed="2.78" disallow="tram rail_urban rail rail_electric rail_fast ship" oneway="0"/>
    <type id="highway.motorway" priority="14" speed="39.44" allow="private emergency authority army vip passenger hov taxi bus coach delivery truck trailer motorcycle evehicle custom1 custom2" oneway="1"/>
    <type id="highway.motorway_link" priority="9" speed="22.22" allow="private emergency authority army vip passenger hov taxi bus coach delivery truck trailer motorcycle evehicle custom1 custom2" oneway="1"/>
    <type id="highway.path" priority="1" speed="2.78" allow="pedestrian bicycle" oneway="0" width="2.00"/>
    <type id="highway.pedestrian" priority="1" speed="2.78" allow="pedestrian" oneway="1" width="2.00"/>
    <type id="highway.primary" priority="12" speed="27.78" disallow="pedestrian tram rail_urban rail rail_electric rail_fast ship" oneway="0"/>
    <type id="highway.primary_link" priority="7" speed="22.22" disallow="pedestrian tram rail_urban rail rail_electric rail_fast ship" oneway="0"/>
    <type id="highway.raceway" priority="15" speed="83.33" allow="vip" oneway="0"/>
    <type id="highway.residential" priority="3" speed="13.89" disallow="pedestrian tram rail_urban rail rail_electric rail_fast ship" oneway="0"/>
    <type id="highway.secondary" priority="11" speed="27.78" disallow="pedestrian tram rail_urban rail rail_electric rail_fast ship" oneway="0"/>
    <type id="highway.secondary_link" priority="6" speed="22.22" disallow="pedestrian tram rail_urban rail rail_electric rail_fast ship" oneway="0"/>
    <type id="highway.service" priority="1" speed="5.56" allow="pedestrian delivery bicycle" oneway="0"/>
    <type id="highway.stairs" priority="1" speed="1.39" allow="pedestrian" oneway="1" width="2.00"/>
    <type id="highway.step" priority="1" speed="1.39" allow="pedestrian" oneway="1" width="2.00"/>
    <type id="highway.steps" priority="1" speed="1.39" allow="pedestrian" oneway="1" width="2.00"/>
    <type id="highway.tertiary" priority="10" speed="22.22" disallow="pedestrian tram rail_urban rail rail_electric rail_fast ship" oneway="0"/>
    <type id="highway.tertiary_link" priority="5" speed="22.22" disallow="pedestrian tram rail_urban rail rail_electric rail_fast ship" oneway="0"/>
    <type id="highway.track" priority="1" speed="5.56" allow="pedestrian motorcycle moped bicycle" oneway="0"/>
    <type id="highway.trunk" priority="13" speed="27.78" disallow="pedestrian bicycle tram rail_urban rail rail_electric rail_fast ship" oneway="0"/>
    <type id="highway.trunk_link" priority="8" speed="22.22" disallow="pedestrian bicycle tram rail_urban rail rail_electric rail_fast ship" oneway="0"/>
    <type id="highway.unclassified" priority="4" speed="13.89" disallow="pedestrian tram rail_urban rail rail_electric rail_fast ship" oneway="0"/>
    <type id="highway.unsurfaced" priority="1" speed="8.33" disallow="tram rail_urban rail rail_electric rail_fast ship" oneway="0"/>
    <type id="railway.highspeed" priority="21" speed="69.44" allow="rail_fast" oneway="1"/>
    <type id="railway.light_rail" priority="19" speed="27.78" allow="rail_urban" oneway="1"/>
    <type id="railway.preserved" priority="16" speed="27.78" allow="rail" oneway="1"/>
    <type id="railway.rail" priority="20" speed="44.44" allow="rail" oneway="1"/>
    <type id="railway.subway" priority="18" speed="27.78" allow="rail_urban" oneway="1"/>
    <type id="railway.tram" priority="17" speed="13.89" allow="tram" oneway="1"/>

    <edge id=":29_0" function="internal">
        <lane id=":29_0_0" index="0" disallow="pedestrian tram rail_urban rail rail_electric rail_fast ship" speed="36.11" length="4.79" width="3.50" shape="-82.83,739.41 -87.61,739.77"/>
    </edge>
    <edge id=":74_0" function="internal">
        <lane id=":74_0_0" index="0" disallow="pedestrian tram rail_urban rail rail_electric rail_fast ship" speed="36.11" length="0.10" width="3.50" shape="-85.53,736.05 -85.53,736.05"/>
    </edge>
    <edge id=":75_0" function="internal">
        <lane id=":75_0_0" index="0" disallow="pedestrian tram rail_urban rail rail_electric rail_fast ship" speed="36.11" length="38.50" width="3.50" shape="-142.45,838.24 -144.45,821.71 -146.72,799.98"/>
    </edge>
    <edge id=":75_1" function="internal">
        <lane id=":75_1_0" index="0" disallow="pedestrian tram rail_urban rail rail_electric rail_fast ship" speed="12.22" length="34.14" width="3.50" shape="-142.45,838.24 -142.72,834.44 -142.64,831.84 -142.28,829.24 -141.58,826.71 -141.08,825.43 -140.48,824.22 -139.78,823.06 -138.98,821.96 -138.08,820.93 -137.11,819.99 -136.06,819.14 -134.94,818.36 -132.65,817.10 -130.24,816.12 -127.76,815.39 -124.02,814.68"/>
    </edge>
    <edge id=":75_2" function="internal">
        <lane id=":75_2_0" index="0" disallow="pedestrian tram rail_urban rail rail_electric rail_fast ship" speed="11.22" length="28.60" width="3.50" shape="-123.54,818.14 -126.79,818.76 -128.90,819.38 -130.94,820.20 -132.86,821.26 -133.77,821.89 -134.62,822.59 -135.41,823.35 -136.14,824.17 -136.79,825.06 -137.36,826.00 -137.85,826.99 -138.25,828.01 -138.84,830.13 -139.15,832.31 -139.22,834.50 -138.98,837.79"/>
    </edge>
    <edge id=":75_3" function="internal">
        <lane id=":75_3_0" index="0" disallow="pedestrian tram rail_urban rail rail_electric rail_fast ship" speed="11.99" length="34.13" width="3.50" shape="-123.54,818.14 -127.47,818.49 -130.09,818.45 -132.70,818.15 -135.25,817.52 -136.48,817.06 -137.67,816.51 -138.80,815.85 -139.88,815.09 -140.87,814.24 -141.79,813.30 -142.62,812.28 -143.36,811.20 -144.58,808.88 -145.49,806.42 -146.14,803.87 -146.72,799.98"/>
    </edge>
    <edge id=":75_4" function="internal">
        <lane id=":75_4_0" index="0" disallow="pedestrian tram rail_urban rail rail_electric rail_fast ship" speed="10.96" length="28.42" width="3.50" shape="-143.24,799.61 -142.74,803.03 -142.19,805.17 -141.43,807.23 -140.40,809.16 -139.82,810.01 -139.16,810.83 -138.43,811.57 -137.64,812.25 -136.79,812.85 -135.89,813.37 -134.94,813.81 -133.97,814.17 -131.84,814.70 -129.66,814.95 -127.43,814.98 -124.02,814.68"/>
    </edge>
    <edge id=":75_5" function="internal">
        <lane id=":75_5_0" index="0" disallow="pedestrian tram rail_urban rail rail_electric rail_fast ship" speed="36.11" length="38.42" width="3.50" shape="-143.24,799.61 -140.97,821.31 -138.98,837.79"/>
    </edge>
    <edge id=":76_0" function="internal">
        <lane id=":76_0_0" index="0" disallow="pedestrian tram rail_urban rail rail_electric rail_fast ship" speed="10.86" length="27.23" width="3.50" shape="-42.83,772.64 -46.07,773.09 -48.19,773.58 -50.26,774.26 -52.24,775.17 -53.18,775.72 -54.07,776.34 -54.91,777.04 -55.69,777.80 -56.39,778.63 -57.01,779.53 -57.54,780.48 -57.99,781.47 -58.34,782.50 -58.82,784.62 -59.01,786.79 -58.97,788.97 -58.87,790.06"/>
    </edge>
    <edge id=":76_1" function="internal">
        <lane id=":76_1_0" index="0" disallow="pedestrian tram rail_urban rail rail_electric rail_fast ship" speed="36.11" length="39.12" width="3.50" shape="-42.83,772.64 -62.31,774.48 -81.78,776.31"/>
    </edge>
    <edge id=":76_2" function="internal">
        <lane id=":76_2_0" index="0" disallow="pedestrian tram rail_urban rail rail_electric rail_fast ship" speed="12.14" length="33.61" width="3.50" shape="-42.83,772.64 -46.71,772.82 -49.29,772.70 -51.85,772.34 -54.36,771.69 -56.75,770.71 -57.88,770.09 -58.96,769.37 -59.97,768.57 -60.90,767.67 -61.76,766.71 -62.53,765.67 -63.83,763.43 -64.81,761.04 -65.51,758.55 -65.98,756.01 -66.14,754.73"/>
    </edge>
    <edge id=":76_3" function="internal">
        <lane id=":76_3_0" index="0" disallow="pedestrian tram rail_urban rail rail_electric rail_fast ship" speed="11.11" length="28.06" width="3.50" shape="-62.65,754.37 -62.52,755.45 -62.12,757.65 -61.52,759.76 -60.71,761.74 -59.62,763.59 -59.01,764.40 -58.32,765.17 -57.57,765.88 -56.76,766.52 -55.89,767.09 -55.01,767.58 -53.01,768.39 -50.92,768.91 -48.75,769.21 -46.55,769.31 -43.16,769.16"/>
    </edge>
    <edge id=":76_4" function="internal">
        <lane id=":76_4_0" index="0" disallow="pedestrian tram rail_urban rail rail_electric rail_fast ship" speed="36.11" length="35.89" width="3.50" shape="-62.65,754.37 -60.76,772.21 -58.87,790.06"/>
    </edge>
    <edge id=":76_5" function="internal">
        <lane id=":76_5_0" index="0" disallow="pedestrian tram rail_urban rail rail_electric rail_fast ship" speed="12.01" length="33.34" width="3.50" shape="-62.65,754.37 -62.49,756.95 -62.55,759.57 -62.91,762.21 -63.61,764.78 -64.14,766.08 -64.76,767.31 -65.50,768.48 -66.35,769.58 -67.29,770.59 -68.31,771.51 -69.41,772.34 -70.58,773.08 -72.95,774.25 -75.44,775.13 -77.98,775.75 -81.78,776.31"/>
    </edge>
    <edge id=":76_6" function="internal">
        <lane id=":76_6_0" index="0" disallow="pedestrian tram rail_urban rail rail_electric rail_fast ship" speed="10.98" length="27.73" width="3.50" shape="-82.11,772.82 -78.82,772.34 -76.66,771.82 -74.57,771.09 -72.58,770.11 -71.64,769.52 -70.75,768.86 -69.92,768.12 -69.16,767.32 -68.47,766.44 -67.88,765.51 -67.37,764.52 -66.94,763.49 -66.35,761.36 -66.05,759.16 -65.99,756.94 -66.14,754.73"/>
    </edge>
    <edge id=":76_7" function="internal">
        <lane id=":76_7_0" index="0" disallow="pedestrian tram rail_urban rail rail_electric rail_fast ship" speed="36.11" length="39.12" width="3.50" shape="-82.11,772.82 -62.64,770.99 -43.16,769.16"/>
    </edge>
    <edge id=":76_8" function="internal">
        <lane id=":76_8_0" index="0" disallow="pedestrian tram rail_urban rail rail_electric rail_fast ship" speed="12.04" length="33.09" width="3.50" shape="-82.11,772.82 -78.15,772.63 -75.50,772.75 -72.88,773.11 -70.32,773.77 -67.87,774.78 -66.72,775.43 -65.63,776.18 -64.61,777.02 -63.67,777.96 -62.82,778.97 -62.06,780.05 -61.39,781.19 -60.31,783.61 -59.54,786.14 -59.04,788.74 -58.87,790.06"/>
    </edge>
    <edge id=":76_9" function="internal">
        <lane id=":76_9_0" index="0" disallow="pedestrian tram rail_urban rail rail_electric rail_fast ship" speed="11.02" length="27.55" width="3.50" shape="-62.35,790.43 -62.49,789.32 -62.92,787.09 -63.57,784.97 -64.48,782.95 -65.02,782.06 -65.63,781.19 -66.32,780.39 -67.07,779.65 -67.89,778.98 -68.76,778.40 -69.66,777.89 -71.70,777.06 -73.83,776.53 -76.05,776.23 -78.31,776.13 -81.78,776.31"/>
    </edge>
    <edge id=":76_10" function="internal">
        <lane id=":76_10_0" index="0" disallow="pedestrian tram rail_urban rail rail_electric rail_fast ship" speed="36.11" length="35.90" width="3.50" shape="-62.35,790.43 -64.24,772.58 -66.14,754.73"/>
    </edge>
    <edge id=":76_11" function="internal">
        <lane id=":76_11_0" index="0" disallow="pedestrian tram rail_urban rail rail_electric rail_fast ship" speed="11.90" length="32.86" width="3.50" shape="-62.35,790.43 -62.46,789.14 -62.51,786.58 -62.29,783.98 -61.74,781.42 -61.30,780.11 -60.75,778.87 -60.10,777.68 -59.33,776.54 -58.46,775.49 -57.50,774.52 -56.47,773.65 -55.37,772.87 -54.20,772.18 -51.85,771.08 -49.39,770.26 -46.89,769.68 -43.16,769.16"/>
    </edge>
    <edge id=":77_0" function="internal">
        <lane id=":77_0_0" index="0" disallow="pedestrian tram rail_urban rail rail_electric rail_fast ship" speed="36.11" length="37.13" width="3.50" shape="-150.38,762.29 -152.40,743.81 -154.42,725.38"/>
    </edge>
    <edge id=":77_1" function="internal">
        <lane id=":77_1_0" index="0" disallow="pedestrian tram rail_urban rail rail_electric rail_fast ship" speed="12.02" length="33.18" width="3.50" shape="-150.38,762.29 -150.54,759.61 -150.45,756.95 -150.07,754.33 -149.74,753.05 -149.32,751.79 -148.80,750.57 -148.18,749.40 -147.45,748.29 -146.63,747.25 -145.71,746.29 -144.71,745.42 -143.65,744.63 -141.35,743.31 -138.90,742.30 -136.36,741.54 -132.45,740.82 -131.13,740.66"/>
    </edge>
    <edge id=":77_2" function="internal">
        <lane id=":77_2_0" index="0" disallow="pedestrian tram rail_urban rail rail_electric rail_fast ship" speed="10.98" length="27.59" width="3.50" shape="-130.78,744.14 -131.90,744.27 -135.33,744.91 -137.48,745.54 -139.54,746.38 -141.47,747.48 -142.31,748.09 -143.11,748.79 -143.85,749.54 -144.51,750.36 -145.09,751.24 -145.59,752.17 -146.02,753.14 -146.36,754.16 -146.62,755.18 -146.96,757.40 -147.04,759.64 -146.90,761.93"/>
    </edge>
    <edge id=":77_3" function="internal">
        <lane id=":77_3_0" index="0" disallow="pedestrian tram rail_urban rail rail_electric rail_fast ship" speed="12.19" length="34.46" width="3.50" shape="-130.78,744.14 -133.33,744.32 -135.92,744.30 -138.53,744.05 -141.12,743.51 -143.63,742.64 -144.88,742.03 -146.06,741.34 -147.18,740.54 -148.23,739.65 -149.19,738.67 -150.06,737.62 -150.84,736.51 -151.54,735.32 -152.65,732.94 -153.48,730.44 -154.05,727.91 -154.42,725.38"/>
    </edge>
    <edge id=":77_4" function="internal">
        <lane id=":77_4_0" index="0" disallow="pedestrian tram rail_urban rail rail_electric rail_fast ship" speed="11.20" length="28.92" width="3.50" shape="-150.94,724.99 -150.62,727.18 -150.13,729.36 -149.43,731.47 -148.49,733.49 -147.92,734.44 -147.28,735.35 -146.57,736.21 -145.79,737.00 -144.94,737.72 -144.03,738.36 -143.07,738.93 -142.07,739.41 -139.97,740.14 -137.79,740.59 -135.58,740.80 -133.35,740.82 -131.13,740.66"/>
    </edge>
    <edge id=":77_5" function="internal">
        <lane id=":77_5_0" index="0" disallow="pedestrian tram rail_urban rail rail_electric rail_fast ship" speed="36.11" length="37.16" width="3.50" shape="-150.94,724.99 -148.92,743.44 -146.90,761.93"/>
    </edge>
    <edge id=":78_0" function="internal">
        <lane id=":78_0_0" index="0" disallow="pedestrian tram rail_urban rail rail_electric rail_fast ship" speed="11.40" length="28.72" width="3.50" shape="-118.35,860.68 -121.61,861.31 -123.73,861.94 -125.78,862.76 -127.71,863.82 -129.49,865.13 -130.30,865.88 -131.04,866.70 -131.71,867.58 -132.31,868.51 -132.82,869.49 -133.62,871.55 -134.12,873.70 -134.36,875.89 -134.39,878.10 -134.24,880.31"/>
    </edge>
    <edge id=":78_1" function="internal">
        <lane id=":78_1_0" index="0" disallow="pedestrian tram rail_urban rail rail_electric rail_fast ship" speed="12.13" length="34.27" width="3.50" shape="-118.35,860.68 -122.29,861.03 -124.93,860.99 -127.54,860.68 -130.10,860.02 -131.33,859.56 -132.52,858.99 -133.66,858.33 -134.73,857.56 -135.73,856.70 -136.65,855.76 -137.49,854.74 -138.92,852.53 -140.03,850.14 -140.87,847.64 -141.49,845.08 -141.91,842.47"/>
    </edge>
    <edge id=":78_2" function="internal">
        <lane id=":78_2_0" index="0" disallow="pedestrian tram rail_urban rail rail_electric rail_fast ship" speed="11.13" length="28.65" width="3.50" shape="-138.44,842.01 -138.07,844.29 -137.54,846.50 -136.83,848.63 -135.90,850.62 -134.72,852.47 -134.06,853.26 -133.32,854.02 -132.53,854.71 -131.67,855.32 -130.76,855.85 -129.80,856.31 -128.83,856.68 -126.70,857.22 -124.51,857.49 -122.27,857.52 -118.85,857.22"/>
    </edge>
    <edge id=":78_3" function="internal">
        <lane id=":78_3_0" index="0" disallow="pedestrian tram rail_urban rail rail_electric rail_fast ship" speed="36.11" length="38.53" width="3.50" shape="-138.44,842.01 -138.18,844.11 -134.24,880.31"/>
    </edge>
    <edge id=":78_4" function="internal">
        <lane id=":78_4_0" index="0" disallow="pedestrian tram rail_urban rail rail_electric rail_fast ship" speed="36.11" length="38.41" width="3.50" shape="-137.72,880.65 -141.65,844.54 -141.91,842.47"/>
    </edge>
    <edge id=":78_5" function="internal">
        <lane id=":78_5_0" index="0" disallow="pedestrian tram rail_urban rail rail_electric rail_fast ship" speed="12.39" length="34.13" width="3.50" shape="-137.72,880.65 -137.89,878.13 -137.86,875.55 -137.58,872.95 -136.98,870.38 -136.03,867.91 -135.39,866.68 -134.67,865.53 -133.84,864.45 -132.93,863.44 -131.92,862.50 -129.80,860.93 -127.48,859.66 -125.07,858.68 -122.58,857.94 -118.85,857.22"/>
    </edge>
    <edge id=":79_0" function="internal">
        <lane id=":79_0_0" index="0" disallow="pedestrian tram rail_urban rail rail_electric rail_fast ship" speed="36.11" length="37.38" width="3.50" shape="-146.75,799.71 -148.55,781.11 -150.36,762.50"/>
    </edge>
    <edge id=":79_1" function="internal">
        <lane id=":79_1_0" index="0" disallow="pedestrian tram rail_urban rail rail_electric rail_fast ship" speed="12.12" length="33.68" width="3.50" shape="-146.75,799.71 -146.90,795.97 -146.74,793.41 -146.29,790.86 -145.53,788.39 -144.99,787.14 -144.35,785.96 -143.62,784.84 -142.79,783.78 -141.87,782.80 -140.87,781.91 -139.81,781.11 -138.67,780.38 -136.37,779.23 -133.94,778.36 -131.46,777.74 -127.76,777.20"/>
    </edge>
    <edge id=":79_2" function="internal">
        <lane id=":79_2_0" index="0" disallow="pedestrian tram rail_urban rail rail_electric rail_fast ship" speed="11.11" length="28.11" width="3.50" shape="-127.43,780.68 -130.64,781.15 -132.73,781.68 -134.77,782.40 -136.71,783.37 -137.62,783.95 -138.48,784.60 -139.29,785.32 -140.03,786.10 -140.70,786.95 -141.30,787.86 -141.81,788.81 -142.24,789.80 -142.89,791.86 -143.26,793.99 -143.40,796.15 -143.26,799.39"/>
    </edge>
    <edge id=":79_3" function="internal">
        <lane id=":79_3_0" index="0" disallow="pedestrian tram rail_urban rail rail_electric rail_fast ship" speed="12.08" length="33.54" width="3.50" shape="-127.43,780.68 -131.29,780.86 -133.87,780.74 -136.42,780.36 -138.91,779.68 -141.28,778.66 -142.40,778.02 -143.45,777.27 -144.44,776.44 -145.35,775.53 -146.18,774.54 -147.59,772.38 -148.67,770.04 -149.47,767.58 -150.02,765.06 -150.36,762.50"/>
    </edge>
    <edge id=":79_4" function="internal">
        <lane id=":79_4_0" index="0" disallow="pedestrian tram rail_urban rail rail_electric rail_fast ship" speed="11.06" length="27.99" width="3.50" shape="-146.88,762.14 -146.58,764.37 -146.11,766.52 -145.44,768.59 -144.55,770.52 -143.38,772.30 -142.73,773.07 -142.00,773.79 -141.21,774.45 -140.37,775.04 -139.50,775.55 -137.54,776.39 -135.48,776.94 -133.32,777.25 -131.13,777.36 -127.76,777.20"/>
    </edge>
    <edge id=":79_5" function="internal">
        <lane id=":79_5_0" index="0" disallow="pedestrian tram rail_urban rail rail_electric rail_fast ship" speed="36.11" length="37.43" width="3.50" shape="-146.88,762.14 -145.07,780.78 -143.26,799.39"/>
    </edge>
    <edge id=":80_0" function="internal">
        <lane id=":80_0_0" index="0" disallow="pedestrian tram rail_urban rail rail_electric rail_fast ship" speed="11.02" length="29.02" width="3.50" shape="-58.94,827.55 -59.37,824.23 -59.89,822.05 -60.62,819.94 -61.62,817.94 -62.23,817.01 -62.92,816.13 -63.68,815.31 -64.52,814.57 -65.42,813.91 -66.38,813.34 -67.39,812.85 -68.43,812.46 -70.60,811.91 -72.81,811.64 -75.05,811.61 -78.36,811.89"/>
    </edge>
    <edge id=":80_1" function="internal">
        <lane id=":80_1_0" index="0" disallow="pedestrian tram rail_urban rail rail_electric rail_fast ship" speed="36.11" length="37.03" width="3.50" shape="-58.94,827.55 -60.98,803.98 -62.33,790.68"/>
    </edge>
    <edge id=":80_2" function="internal">
        <lane id=":80_2_0" index="0" disallow="pedestrian tram rail_urban rail rail_electric rail_fast ship" speed="36.11" length="37.09" width="3.50" shape="-58.85,790.31 -57.50,803.65 -55.45,827.24"/>
    </edge>
    <edge id=":80_3" function="internal">
        <lane id=":80_3_0" index="0" disallow="pedestrian tram rail_urban rail rail_electric rail_fast ship" speed="12.12" length="33.00" width="3.50" shape="-58.85,790.31 -58.74,791.62 -58.71,794.21 -58.99,796.84 -59.62,799.42 -60.11,800.72 -60.71,801.96 -61.41,803.13 -62.21,804.24 -63.11,805.28 -64.09,806.22 -65.17,807.09 -67.38,808.52 -69.74,809.66 -72.18,810.55 -74.66,811.21 -78.36,811.89"/>
    </edge>
    <edge id=":80_4" function="internal">
        <lane id=":80_4_0" index="0" disallow="pedestrian tram rail_urban rail rail_electric rail_fast ship" speed="11.11" length="27.55" width="3.50" shape="-78.84,808.42 -75.61,807.84 -73.48,807.27 -71.40,806.53 -69.41,805.59 -67.54,804.41 -66.68,803.72 -65.87,802.97 -65.14,802.15 -64.48,801.26 -63.90,800.32 -63.41,799.34 -63.00,798.31 -62.45,796.18 -62.21,793.98 -62.23,791.78 -62.33,790.68"/>
    </edge>
    <edge id=":80_5" function="internal">
        <lane id=":80_5_0" index="0" disallow="pedestrian tram rail_urban rail rail_electric rail_fast ship" speed="12.03" length="34.79" width="3.50" shape="-78.84,808.42 -75.01,808.10 -72.37,808.14 -69.72,808.46 -67.13,809.12 -65.82,809.61 -64.57,810.21 -63.37,810.92 -62.24,811.74 -61.20,812.67 -60.25,813.69 -59.40,814.78 -58.64,815.96 -57.44,818.35 -56.56,820.86 -55.95,823.44 -55.45,827.24"/>
    </edge>
    <edge id=":81_0" function="internal">
        <lane id=":81_0_0" index="0" disallow="pedestrian tram rail_urban rail rail_electric rail_fast ship" speed="36.11" length="33.94" width="3.50" shape="-155.05,718.63 -156.26,704.22 -157.84,689.93 -158.49,684.87"/>
    </edge>
    <edge id=":81_1" function="internal">
        <lane id=":81_1_0" index="0" disallow="pedestrian tram rail_urban rail rail_electric rail_fast ship" speed="12.25" length="33.90" width="3.50" shape="-155.05,718.63 -155.12,715.95 -154.90,713.36 -154.34,710.81 -153.93,709.58 -153.41,708.39 -152.80,707.24 -152.08,706.15 -151.28,705.13 -150.39,704.18 -149.43,703.31 -147.32,701.79 -145.03,700.55 -142.62,699.57 -140.13,698.80 -136.31,697.99 -133.74,697.62"/>
    </edge>
    <edge id=":81_2" function="internal">
        <lane id=":81_2_0" index="0" disallow="pedestrian tram rail_urban rail rail_electric rail_fast ship" speed="11.25" length="28.42" width="3.50" shape="-133.33,701.10 -135.60,701.42 -138.98,702.13 -141.13,702.78 -143.20,703.60 -145.13,704.62 -146.92,705.87 -147.69,706.55 -148.42,707.31 -149.08,708.12 -149.66,708.98 -150.17,709.89 -150.60,710.85 -150.94,711.81 -151.42,713.92 -151.61,716.09 -151.56,718.31"/>
    </edge>
    <edge id=":81_3" function="internal">
        <lane id=":81_3_0" index="0" disallow="pedestrian tram rail_urban rail rail_electric rail_fast ship" speed="12.19" length="34.04" width="3.50" shape="-133.33,701.10 -135.84,701.33 -139.61,701.39 -142.17,701.20 -144.73,700.77 -147.25,700.05 -149.66,698.99 -150.85,698.29 -151.96,697.50 -152.99,696.62 -153.95,695.65 -154.81,694.60 -155.57,693.49 -156.26,692.30 -157.30,689.89 -158.03,687.38 -158.49,684.87"/>
    </edge>
    <edge id=":81_4" function="internal">
        <lane id=":81_4_0" index="0" disallow="pedestrian tram rail_urban rail rail_electric rail_fast ship" speed="11.19" length="28.54" width="3.50" shape="-155.03,684.39 -154.63,686.54 -154.01,688.64 -153.12,690.65 -152.56,691.60 -151.92,692.49 -151.21,693.33 -150.43,694.10 -149.58,694.80 -148.68,695.42 -147.72,695.96 -145.70,696.82 -143.58,697.40 -141.41,697.74 -139.22,697.89 -135.93,697.82 -133.74,697.62"/>
    </edge>
    <edge id=":81_5" function="internal">
        <lane id=":81_5_0" index="0" disallow="pedestrian tram rail_urban rail rail_electric rail_fast ship" speed="36.11" length="34.10" width="3.50" shape="-155.03,684.39 -154.37,689.51 -152.78,703.88 -151.56,718.31"/>
    </edge>
    <edge id=":82_0" function="internal">
        <lane id=":82_0_0" index="0" disallow="pedestrian tram rail_urban rail rail_electric rail_fast ship" speed="36.11" length="56.08" width="3.50" shape="-130.91,941.93 -131.65,934.87 -134.42,912.64 -136.20,897.44 -137.19,886.21"/>
    </edge>
    <edge id=":82_1" function="internal">
        <lane id=":82_1_0" index="0" disallow="pedestrian tram rail_urban rail rail_electric rail_fast ship" speed="36.11" length="56.08" width="3.50" shape="-133.70,885.87 -132.71,897.12 -130.94,912.28 -128.17,934.50 -127.43,941.59"/>
    </edge>
    <edge id=":82_2" function="internal">
        <lane id=":82_2_0" index="0" disallow="pedestrian tram rail_urban rail rail_electric rail_fast ship" speed="26.12" length="57.16" width="3.50" shape="-133.70,885.87 -133.60,889.20 -133.75,892.42 -134.30,896.69 -135.21,900.90 -136.40,905.04 -138.25,910.10 -140.42,915.02 -143.36,920.77 -146.61,926.36 -150.71,932.68 -154.43,937.96"/>
    </edge>
    <edge id=":82_3" function="internal">
        <lane id=":82_3_0" index="0" disallow="pedestrian tram rail_urban rail rail_electric rail_fast ship" speed="25.52" length="54.63" width="3.50" shape="-157.27,935.91 -153.65,930.78 -149.67,924.66 -146.53,919.28 -143.68,913.75 -141.59,909.03 -139.80,904.20 -138.65,900.27 -137.78,896.29 -137.25,892.25 -137.10,889.24 -137.19,886.21"/>
    </edge>
    <edge id=":83_0" function="internal">
        <lane id=":83_0_0" index="0" disallow="pedestrian tram rail_urban rail rail_electric rail_fast ship" speed="11.23" length="29.25" width="3.50" shape="-54.99,870.10 -55.56,866.56 -56.14,864.35 -56.94,862.23 -57.99,860.23 -58.59,859.35 -59.26,858.50 -60.01,857.73 -60.81,857.02 -61.67,856.39 -62.60,855.84 -63.57,855.37 -64.56,854.99 -66.73,854.43 -68.97,854.16 -71.25,854.13 -74.74,854.44"/>
    </edge>
    <edge id=":83_1" function="internal">
        <lane id=":83_1_0" index="0" disallow="pedestrian tram rail_urban rail rail_electric rail_fast ship" speed="36.11" length="39.95" width="3.50" shape="-54.99,870.10 -56.67,853.74 -58.72,830.33"/>
    </edge>
    <edge id=":83_2" function="internal">
        <lane id=":83_2_0" index="0" disallow="pedestrian tram rail_urban rail rail_electric rail_fast ship" speed="12.51" length="35.48" width="3.50" shape="-54.99,870.10 -55.24,866.10 -55.15,863.48 -54.81,860.88 -54.17,858.33 -53.21,855.89 -52.60,854.74 -51.89,853.63 -51.10,852.58 -50.23,851.61 -49.28,850.70 -47.19,849.12 -44.91,847.83 -42.48,846.82 -39.98,846.05 -36.12,845.28"/>
    </edge>
    <edge id=":83_3" function="internal">
        <lane id=":83_3_0" index="0" disallow="pedestrian tram rail_urban rail rail_electric rail_fast ship" speed="11.54" length="29.99" width="3.50" shape="-35.61,848.74 -38.99,849.42 -41.14,850.08 -43.20,850.93 -45.11,852.01 -46.86,853.34 -47.61,854.06 -48.32,854.86 -48.96,855.71 -49.54,856.61 -50.03,857.54 -50.84,859.58 -51.37,861.72 -51.65,863.94 -51.73,866.19 -51.52,869.67"/>
    </edge>
    <edge id=":83_4" function="internal">
        <lane id=":83_4_0" index="0" disallow="pedestrian tram rail_urban rail rail_electric rail_fast ship" speed="36.11" length="39.54" width="3.50" shape="-35.61,848.74 -55.17,851.59 -74.74,854.44"/>
    </edge>
    <edge id=":83_5" function="internal">
        <lane id=":83_5_0" index="0" disallow="pedestrian tram rail_urban rail rail_electric rail_fast ship" speed="11.92" length="34.33" width="3.50" shape="-35.61,848.74 -39.40,849.10 -42.01,849.09 -44.62,848.80 -47.18,848.17 -48.48,847.69 -49.71,847.11 -50.90,846.41 -52.01,845.60 -53.05,844.69 -53.99,843.69 -54.83,842.61 -55.58,841.45 -56.76,839.09 -57.63,836.61 -58.22,834.08 -58.72,830.33"/>
    </edge>
    <edge id=":83_6" function="internal">
        <lane id=":83_6_0" index="0" disallow="pedestrian tram rail_urban rail rail_electric rail_fast ship" speed="10.89" length="28.49" width="3.50" shape="-55.23,830.05 -54.80,833.29 -54.30,835.42 -53.58,837.50 -52.60,839.46 -52.00,840.38 -51.33,841.24 -50.58,842.04 -49.75,842.77 -48.86,843.41 -47.92,843.97 -46.93,844.43 -45.90,844.82 -43.77,845.34 -41.59,845.58 -39.40,845.59 -36.12,845.28"/>
    </edge>
    <edge id=":83_7" function="internal">
        <lane id=":83_7_0" index="0" disallow="pedestrian tram rail_urban rail rail_electric rail_fast ship" speed="36.11" length="39.79" width="3.50" shape="-55.23,830.05 -53.19,853.40 -51.52,869.67"/>
    </edge>
    <edge id=":83_8" function="internal">