<!-- generated on 2020-12-18 16:49:57.441597 by ipykernel_launcher.py v1_2_0+5214-53edc58fcd
-->
<connections>
	<connection contPos="-4.0" from="709" fromLane="0" keepClear="true" to="727" toLane="0"/>
	<connection contPos="-4.0" from="709" fromLane="0" keepClear="true" to="728" toLane="0"/>
	<connection contPos="-4.0" from="710" fromLane="0" keepClear="true" to="719" toLane="0"/>
	<connection contPos="-4.0" from="710" fromLane="0" keepClear="true" to="720" toLane="0"/>
	<connection contPos="-4.0" from="712" fromLane="0" keepClear="true" to="721" toLane="0"/>
	<connection contPos="-4.0" from="712" fromLane="0" keepClear="true" to="723" toLane="0"/>
	<connection contPos="-4.0" from="713" fromLane="0" keepClear="true" to="726" toLane="0"/>
	<connection contPos="-4.0" from="713" fromLane="0" keepClear="true" to="729" toLane="0"/>
	<connection contPos="-4.0" from="714" fromLane="0" keepClear="true" to="718" toLane="0"/>
	<connection contPos="-4.0" from="714" fromLane="0" keepClear="true" to="722" toLane="0"/>
	<connection contPos="-4.0" from="717" fromLane="0" keepClear="true" to="725" toLane="0"/>
	<connection contPos="-4.0" from="717" fromLane="0" keepClear="true" to="724" toLane="0"/>
	<connection contPos="-4.0" from="718" fromLane="0" keepClear="true" to="708" toLane="0"/>
	<connection contPos="-4.0" from="719" fromLane="0" keepClear="true" to="716" toLane="0"/>
	<connection contPos="-4.0" from="720" fromLane="0" keepClear="true" to="713" toLane="0"/>
	<connection contPos="-4.0" from="721" fromLane="0" keepClear="true" to="716" toLane="0"/>
	<connection contPos="-4.0" from="722" fromLane="0" keepClear="true" to="712" toLane="0"/>
	<connection contPos="-4.0" from="723" fromLane="0" keepClear="true" to="711" toLane="0"/>
	<connection contPos="-4.0" from="724" fromLane="0" keepClear="true" to="713" toLane="0"/>
	<connection contPos="-4.0" from="725" fromLane="0" keepClear="true" to="711" toLane="0"/>
	<connection contPos="-4.0" from="726" fromLane="0" keepClear="true" to="715" toLane="0"/>
	<connection contPos="-4.0" from="727" fromLane="0" keepClear="true" to="712" toLane="0"/>
	<connection contPos="-4.0" from="728" fromLane="0" keepClear="true" to="715" toLane="0"/>
	<connection contPos="-4.0" from="729" fromLane="0" keepClear="true" to="708" toLane="0"/>
</connections>
