<?xml version="1.0" encoding="UTF-8"?>

<!-- generated on Fri Dec 18 16:49:57 2020 by Eclipse SUMO netconvert Version 1.8.0
<configuration xmlns:xsi="http://www.w3.org/2001/XMLSchema-instance" xsi:noNamespaceSchemaLocation="http://sumo.dlr.de/xsd/netconvertConfiguration.xsd">

    <input>
        <node-files value="./converted_scenarios/SUMO/DEU_Muc-22_1_I-1-1/nodes.net.xml"/>
        <edge-files value="./converted_scenarios/SUMO/DEU_Muc-22_1_I-1-1/edges.net.xml"/>
        <connection-files value="./converted_scenarios/SUMO/DEU_Muc-22_1_I-1-1/_connections.net.xml"/>
        <tllogic-files value="./converted_scenarios/SUMO/DEU_Muc-22_1_I-1-1/_tll.net.xml"/>
    </input>

    <output>
        <output-file value="./converted_scenarios/SUMO/DEU_Muc-22_1_I-1-1/DEU_Muc-22_1_I-1-1.net.xml"/>
    </output>

    <processing>
        <plain.extend-edge-shape value="true"/>
        <geometry.remove.keep-edges.explicit value="true"/>
        <geometry.avoid-overlap value="true"/>
        <offset.disable-normalization value="true"/>
    </processing>

    <junctions>
        <no-turnarounds value="true"/>
        <junctions.internal-link-detail value="20"/>
    </junctions>

    <report>
        <aggregate-warnings value="5"/>
    </report>

    <random_number>
        <seed value="1234"/>
    </random_number>

</configuration>
-->

<net version="1.6" junctionCornerDetail="5" junctionLinkDetail="20" limitTurnSpeed="5.50" xmlns:xsi="http://www.w3.org/2001/XMLSchema-instance" xsi:noNamespaceSchemaLocation="http://sumo.dlr.de/xsd/net_file.xsd">

    <location netOffset="0.00,0.00" convBoundary="-76.77,-208.11,46.13,152.69" origBoundary="-76.77,-208.11,46.13,152.69" projParameter="!"/>

    <edge id=":1_0" function="internal">
        <lane id=":1_0_0" index="0" disallow="bus truck rail_fast" speed="12.47" length="7.15" width="2.50" shape="-25.80,16.87 -26.07,16.42 -26.31,16.01 -26.52,15.64 -26.70,15.29 -26.85,14.97 -26.98,14.66 -27.08,14.37 -27.17,14.08 -27.23,13.80 -27.28,13.52 -27.32,13.23 -27.35,12.93 -27.37,12.61 -27.38,12.27 -27.39,11.90 -27.40,11.50 -27.40,11.07 -27.42,10.59 -27.43,10.06"/>
    </edge>
    <edge id=":1_1" function="internal">
        <lane id=":1_1_0" index="0" disallow="bus truck rail_fast" speed="36.11" length="5.56" width="2.50" shape="-27.68,15.61 -27.64,15.19 -27.60,14.82 -27.56,14.48 -27.53,14.18 -27.50,13.90 -27.48,13.64 -27.45,13.40 -27.43,13.17 -27.42,12.95 -27.40,12.73 -27.40,12.51 -27.39,12.28 -27.39,12.04 -27.39,11.78 -27.39,11.50 -27.40,11.19 -27.41,10.85 -27.42,10.48 -27.43,10.06"/>
    </edge>
    <edge id=":10_0" function="internal">
        <lane id=":10_0_0" index="0" disallow="rail_fast" speed="36.11" length="8.78" width="2.50" shape="-1.83,16.25 6.93,15.60"/>
    </edge>
    <edge id=":10_1" function="internal">
        <lane id=":10_1_0" index="0" disallow="bus truck rail_fast" speed="8.44" length="9.44" width="2.50" shape="-1.83,16.25 -1.12,16.21 -0.44,16.19 0.21,16.19 0.83,16.21 1.43,16.24 2.00,16.29 2.54,16.36 3.06,16.45 3.55,16.55 4.01,16.67 4.44,16.81 4.85,16.97 5.23,17.15 5.58,17.34 5.91,17.55 6.21,17.78 6.48,18.03 6.72,18.29 6.94,18.58"/>
    </edge>
    <edge id=":11_0" function="internal">
        <lane id=":11_0_0" index="0" disallow="bus truck rail_fast" speed="23.55" length="6.80" width="2.50" shape="5.05,19.51 4.56,19.38 4.12,19.26 3.72,19.15 3.36,19.06 3.02,18.97 2.71,18.90 2.42,18.83 2.15,18.78 1.88,18.73 1.61,18.70 1.34,18.67 1.06,18.66 0.76,18.65 0.44,18.65 0.10,18.65 -0.28,18.67 -0.69,18.69 -1.14,18.71 -1.65,18.75"/>
    </edge>
    <edge id=":11_1" function="internal">
        <lane id=":11_1_0" index="0" disallow="rail_fast" speed="36.11" length="8.80" width="2.50" shape="7.13,18.09 -1.65,18.75"/>
    </edge>
    <edge id=":12_0" function="internal">
        <lane id=":12_0_0" index="0" disallow="rail_fast" speed="36.11" length="8.84" width="2.50" shape="-16.73,19.74 -25.55,20.28"/>
    </edge>
    <edge id=":12_1" function="internal">
        <lane id=":12_1_0" index="0" disallow="bus truck rail_fast" speed="8.34" length="9.81" width="2.50" shape="-16.73,19.74 -17.45,19.78 -18.15,19.79 -18.81,19.79 -19.45,19.77 -20.06,19.73 -20.64,19.67 -21.20,19.58 -21.73,19.48 -22.23,19.36 -22.70,19.22 -23.14,19.06 -23.56,18.87 -23.95,18.67 -24.31,18.45 -24.64,18.21 -24.94,17.94 -25.22,17.66 -25.47,17.36 -25.69,17.04"/>
    </edge>
    <edge id=":14_0" function="internal">
        <lane id=":14_0_0" index="0" disallow="bus truck rail_fast" speed="6.39" length="7.83" width="2.50" shape="-34.66,18.31 -33.97,18.27 -33.31,18.22 -32.70,18.15 -32.11,18.08 -31.57,18.00 -31.06,17.90 -30.58,17.80 -30.14,17.69 -29.74,17.57 -29.38,17.44 -29.05,17.29 -28.75,17.14 -28.50,16.98 -28.27,16.81 -28.09,16.63 -27.94,16.44 -27.82,16.24 -27.75,16.03 -27.71,15.81"/>
    </edge>
    <edge id=":14_1" function="internal">
        <lane id=":14_1_0" index="0" disallow="rail_fast" speed="36.11" length="8.77" width="2.50" shape="-34.66,18.31 -25.90,17.80"/>
    </edge>
    <edge id=":15_0" function="internal">
        <lane id=":15_0_0" index="0" disallow="rail_fast" speed="36.11" length="8.73" width="2.50" shape="-25.75,20.29 -34.47,20.81"/>
    </edge>
    <edge id=":15_1" function="internal">
        <lane id=":15_1_0" index="0" disallow="bus truck rail_fast" speed="9.61" length="9.39" width="2.50" shape="-26.08,17.25 -26.36,17.58 -26.66,17.90 -26.98,18.20 -27.31,18.48 -27.66,18.75 -28.03,19.00 -28.42,19.24 -28.83,19.46 -29.25,19.66 -29.69,19.85 -30.15,20.02 -30.63,20.18 -31.12,20.31 -31.63,20.44 -32.17,20.54 -32.71,20.63 -33.28,20.71 -33.86,20.76 -34.47,20.81"/>
    </edge>
    <edge id=":17_0" function="internal">
        <lane id=":17_0_0" index="0" disallow="rail_fast" speed="36.11" length="8.87" width="2.50" shape="7.13,15.58 15.97,14.89"/>
    </edge>
    <edge id=":17_1" function="internal">
        <lane id=":17_1_0" index="0" disallow="bus truck rail_fast" speed="10.42" length="9.72" width="2.50" shape="7.44,18.57 7.90,18.05 8.33,17.58 8.74,17.17 9.13,16.81 9.50,16.50 9.86,16.23 10.21,16.00 10.57,15.80 10.93,15.64 11.30,15.50 11.68,15.39 12.09,15.30 12.53,15.22 12.99,15.16 13.49,15.10 14.04,15.05 14.63,15.00 15.27,14.95 15.97,14.89"/>
    </edge>
    <edge id=":20_0" function="internal">
        <lane id=":20_0_0" index="0" disallow="bus truck rail_fast" speed="6.44" length="7.69" width="2.50" shape="16.22,17.38 15.52,17.44 14.86,17.52 14.24,17.59 13.65,17.68 13.10,17.77 12.58,17.87 12.11,17.97 11.67,18.08 11.26,18.20 10.89,18.32 10.56,18.45 10.27,18.58 10.01,18.73 9.79,18.87 9.60,19.03 9.46,19.19 9.34,19.36 9.27,19.53 9.23,19.71"/>
    </edge>
    <edge id=":20_1" function="internal">
        <lane id=":20_1_0" index="0" disallow="rail_fast" speed="36.11" length="8.92" width="2.50" shape="16.22,17.38 7.33,18.08"/>
    </edge>
    <edge id=":4_0" function="internal">
        <lane id=":4_0_0" index="0" disallow="bus truck rail_fast" speed="6.46" length="6.79" width="2.50" shape="-24.94,9.78 -24.94,9.97 -24.93,10.22 -24.91,10.53 -24.89,10.89 -24.87,11.28 -24.85,11.71 -24.81,12.16 -24.77,12.62 -24.73,13.09 -24.67,13.55 -24.61,14.01 -24.54,14.45 -24.46,14.86 -24.38,15.24 -24.28,15.58 -24.17,15.86 -24.05,16.09 -23.92,16.25 -23.77,16.33"/>
    </edge>
    <edge id=":4_1" function="internal">
        <lane id=":4_1_0" index="0" disallow="bus truck rail_fast" speed="9.89" length="7.71" width="2.50" shape="-24.94,9.78 -24.91,10.34 -24.87,10.85 -24.82,11.32 -24.76,11.76 -24.70,12.17 -24.65,12.55 -24.60,12.91 -24.56,13.25 -24.54,13.58 -24.53,13.89 -24.55,14.21 -24.59,14.52 -24.67,14.84 -24.77,15.17 -24.92,15.51 -25.11,15.86 -25.34,16.25 -25.62,16.65 -25.96,17.09"/>
    </edge>
    <edge id=":6_0" function="internal">
        <lane id=":6_0_0" index="0" disallow="bus truck rail_fast" speed="6.30" length="6.45" width="2.50" shape="6.49,25.76 6.48,25.57 6.47,25.32 6.45,25.02 6.42,24.68 6.40,24.31 6.37,23.90 6.33,23.48 6.28,23.05 6.23,22.60 6.17,22.17 6.11,21.74 6.04,21.33 5.95,20.94 5.86,20.58 5.76,20.27 5.65,20.00 5.52,19.79 5.39,19.64 5.24,19.56"/>
    </edge>
    <edge id=":6_1" function="internal">
        <lane id=":6_1_0" index="0" disallow="bus truck rail_fast" speed="9.08" length="7.45" width="2.50" shape="6.49,25.76 6.45,25.22 6.39,24.73 6.32,24.27 6.25,23.84 6.18,23.45 6.11,23.08 6.04,22.73 5.99,22.40 5.96,22.08 5.94,21.77 5.94,21.46 5.98,21.16 6.04,20.85 6.14,20.54 6.28,20.21 6.46,19.87 6.69,19.51 6.97,19.13 7.31,18.73"/>
    </edge>
    <edge id=":7_0" function="internal">
        <lane id=":7_0_0" index="0" disallow="bus truck rail_fast" speed="36.11" length="6.28" width="2.50" shape="9.21,19.91 9.16,20.38 9.11,20.80 9.07,21.18 9.03,21.52 9.00,21.84 8.97,22.13 8.95,22.40 8.93,22.66 8.91,22.91 8.90,23.16 8.90,23.41 8.90,23.67 8.90,23.95 8.91,24.24 8.93,24.55 8.95,24.90 8.97,25.28 8.99,25.70 9.03,26.17"/>
    </edge>
    <edge id=":7_1" function="internal">
        <lane id=":7_1_0" index="0" disallow="bus truck rail_fast" speed="12.56" length="7.88" width="2.50" shape="7.06,18.74 7.38,19.22 7.66,19.65 7.91,20.05 8.12,20.43 8.30,20.78 8.44,21.11 8.56,21.43 8.66,21.74 8.74,22.04 8.80,22.36 8.84,22.68 8.87,23.01 8.90,23.36 8.91,23.74 8.93,24.14 8.95,24.59 8.96,25.07 8.99,25.59 9.03,26.17"/>
    </edge>
    <edge id=":9_0" function="internal">
        <lane id=":9_0_0" index="0" disallow="bus truck rail_fast" speed="19.57" length="6.84" width="2.50" shape="-23.58,16.39 -23.09,16.54 -22.65,16.67 -22.25,16.79 -21.89,16.90 -21.56,16.99 -21.25,17.08 -20.96,17.14 -20.68,17.20 -20.41,17.25 -20.14,17.29 -19.86,17.31 -19.58,17.33 -19.28,17.34 -18.96,17.34 -18.62,17.33 -18.24,17.32 -17.82,17.30 -17.37,17.27 -16.86,17.24"/>
    </edge>
    <edge id=":9_1" function="internal">
        <lane id=":9_1_0" index="0" disallow="rail_fast" speed="36.11" length="8.86" width="2.50" shape="-25.70,17.78 -16.86,17.24"/>
    </edge>

    <edge id="708" from="1" to="2" priority="1" spreadType="center" length="219.71">
        <lane id="708_0" index="0" disallow="bus truck rail_fast" speed="36.11" length="219.71" width="2.50" customShape="1" shape="-27.43,10.06 -28.09,-7.01 -32.58,-208.05"/>
    </edge>
    <edge id="709" from="3" to="4" priority="1" spreadType="center" length="219.66">
        <lane id="709_0" index="0" disallow="bus truck rail_fast" speed="36.11" length="219.66" width="2.50" customShape="1" shape="-30.08,-208.11 -25.59,-7.11 -24.94,9.78"/>
    </edge>
    <edge id="710" from="5" to="6" priority="1" spreadType="center" length="132.79">
        <lane id="710_0" index="0" disallow="bus truck rail_fast" speed="36.11" length="132.79" width="2.50" customShape="1" shape="37.66,152.69 27.51,122.14 21.74,104.44 16.36,87.15 13.20,75.50 11.51,68.15 9.92,59.24 8.54,49.27 7.26,37.27 6.49,25.76"/>
    </edge>
    <edge id="711" from="7" to="8" priority="1" spreadType="center" length="132.14">
        <lane id="711_0" index="0" disallow="bus truck rail_fast" speed="36.11" length="132.14" width="2.50" customShape="1" shape="9.03,26.17 9.76,37.06 11.03,48.99 12.39,58.88 13.97,67.72 15.65,75.00 18.80,86.57 24.15,103.79 29.91,121.43 40.04,151.90"/>
    </edge>
    <edge id="712" from="9" to="10" priority="1" spreadType="center" length="18.55">
        <lane id="712_0" index="0" disallow="rail_fast" speed="36.11" length="18.55" width="2.50" customShape="1" shape="-16.86,17.24 -9.39,16.75 -1.83,16.25"/>
    </edge>
    <edge id="713" from="11" to="12" priority="1" spreadType="center" length="18.55">
        <lane id="713_0" index="0" disallow="rail_fast" speed="36.11" length="18.55" width="2.50" customShape="1" shape="-1.65,18.75 -9.22,19.24 -16.73,19.74"/>
    </edge>
    <edge id="714" from="13" to="14" priority="1" spreadType="center" length="43.96">
        <lane id="714_0" index="0" disallow="rail_fast" speed="36.11" length="43.96" width="2.50" customShape="1" shape="-76.77,20.61 -54.83,19.41 -34.66,18.31"/>
    </edge>
    <edge id="715" from="15" to="16" priority="1" spreadType="center" length="43.99">
        <lane id="715_0" index="0" disallow="rail_fast" speed="36.11" length="43.99" width="2.50" customShape="1" shape="-34.47,20.81 -54.69,21.91 -76.64,23.11"/>
    </edge>
    <edge id="716" from="17" to="18" priority="1" spreadType="center" length="31.69">
        <lane id="716_0" index="0" disallow="rail_fast" speed="36.11" length="31.69" width="2.50" customShape="1" shape="15.97,14.89 30.12,13.65 45.91,12.28"/>
    </edge>
    <edge id="717" from="19" to="20" priority="1" spreadType="center" length="31.68">
        <lane id="717_0" index="0" disallow="rail_fast" speed="36.11" length="31.68" width="2.50" customShape="1" shape="46.13,14.77 30.34,16.15 16.22,17.38"/>
    </edge>
    <edge id="718" from="14" to="1" priority="1" spreadType="center" length="9.83">
        <lane id="718_0" index="0" disallow="bus truck rail_fast" speed="36.11" length="9.83" width="2.50" customShape="1" shape="-27.71,15.81 -27.68,15.61"/>
    </edge>
    <edge id="719" from="6" to="17" priority="1" spreadType="center" length="13.83">
        <lane id="719_0" index="0" disallow="bus truck rail_fast" speed="36.11" length="13.83" width="2.50" customShape="1" shape="7.31,18.73 7.44,18.57"/>
    </edge>
    <edge id="720" from="6" to="11" priority="1" spreadType="center" length="9.71">
        <lane id="720_0" index="0" disallow="bus truck rail_fast" speed="36.11" length="9.71" width="2.50" customShape="1" shape="5.24,19.56 5.05,19.51"/>
    </edge>
    <edge id="721" from="10" to="17" priority="1" spreadType="center" length="14.50">
        <lane id="721_0" index="0" disallow="rail_fast" speed="36.11" length="14.50" width="2.50" customShape="1" shape="6.93,15.60 7.13,15.58"/>
    </edge>
    <edge id="722" from="14" to="9" priority="1" spreadType="center" length="14.27">
        <lane id="722_0" index="0" disallow="rail_fast" speed="36.11" length="14.27" width="2.50" customShape="1" shape="-25.90,17.80 -25.70,17.78"/>
    </edge>
    <edge id="723" from="10" to="7" priority="1" spreadType="center" length="13.69">
        <lane id="723_0" index="0" disallow="bus truck rail_fast" speed="36.11" length="13.69" width="2.50" customShape="1" shape="6.94,18.58 7.06,18.74"/>
    </edge>
    <edge id="724" from="20" to="11" priority="1" spreadType="center" length="14.59">
        <lane id="724_0" index="0" disallow="rail_fast" speed="36.11" length="14.59" width="2.50" customShape="1" shape="7.33,18.08 7.13,18.09"/>
    </edge>
    <edge id="725" from="20" to="7" priority="1" spreadType="center" length="9.94">
        <lane id="725_0" index="0" disallow="bus truck rail_fast" speed="36.11" length="9.94" width="2.50" customShape="1" shape="9.23,19.71 9.21,19.91"/>
    </edge>
    <edge id="726" from="12" to="15" priority="1" spreadType="center" length="14.25">
        <lane id="726_0" index="0" disallow="rail_fast" speed="36.11" length="14.25" width="2.50" customShape="1" shape="-25.55,20.28 -25.75,20.29"/>
    </edge>
    <edge id="727" from="4" to="9" priority="1" spreadType="center" length="9.86">
        <lane id="727_0" index="0" disallow="bus truck rail_fast" speed="36.11" length="9.86" width="2.50" customShape="1" shape="-23.77,16.33 -23.58,16.39"/>
    </edge>
    <edge id="728" from="4" to="15" priority="1" spreadType="center" length="13.75">
        <lane id="728_0" index="0" disallow="bus truck rail_fast" speed="36.11" length="13.75" width="2.50" customShape="1" shape="-25.96,17.09 -26.08,17.25"/>
    </edge>
    <edge id="729" from="12" to="1" priority="1" spreadType="center" length="13.87">
        <lane id="729_0" index="0" disallow="bus truck rail_fast" speed="36.11" length="13.87" width="2.50" customShape="1" shape="-25.69,17.04 -25.80,16.87"/>
    </edge>

    <junction id="1" type="priority" x="-27.37" y="11.60" incLanes="729_0 718_0" intLanes=":1_0_0 :1_1_0" shape="-26.55,18.02 -23.55,17.45 -24.94,16.00 -25.42,14.90 -25.79,13.54 -26.05,11.91 -26.18,10.01 -28.68,10.11 -28.94,13.45 -29.38,14.70 -30.02,15.69 -30.86,16.40 -31.91,16.83 -28.35,17.85 -27.75,17.57 -27.44,17.56 -27.14,17.65 -26.83,17.82">
        <request index="0" response="10" foes="10" cont="0"/>
        <request index="1" response="00" foes="01" cont="0"/>
    </junction>
    <junction id="10" type="priority" x="-0.12" y="16.14" incLanes="712_0" intLanes=":10_0_0 :10_1_0" shape="7.19,21.59 8.08,18.02 7.76,17.35 7.79,17.10 7.93,16.92 8.19,16.79 8.57,16.73 8.38,14.24 -1.91,15.01 -1.74,17.50 0.68,17.47 2.73,17.72 4.40,18.26 5.71,19.08 6.63,20.19">
        <request index="0" response="00" foes="00" cont="0"/>
        <request index="1" response="00" foes="00" cont="0"/>
    </junction>
    <junction id="11" type="priority" x="0.02" y="18.64" incLanes="720_0 724_0" intLanes=":11_0_0 :11_1_0" shape="5.19,24.68 6.84,20.83 6.67,20.03 6.74,19.74 6.92,19.52 7.22,19.38 7.62,19.31 7.43,16.82 -1.73,17.50 -1.57,19.99">
        <request index="0" response="00" foes="10" cont="0"/>
        <request index="1" response="01" foes="01" cont="0"/>
    </junction>
    <junction id="12" type="priority" x="-18.49" y="19.85" incLanes="713_0" intLanes=":12_0_0 :12_1_0" shape="-16.65,20.98 -16.81,18.49 -19.25,18.51 -21.31,18.24 -22.98,17.66 -24.28,16.78 -25.19,15.61 -25.71,14.16 -26.71,17.77 -26.41,18.49 -26.45,18.75 -26.60,18.94 -26.87,19.07 -27.26,19.13 -27.11,21.62">
        <request index="0" response="00" foes="00" cont="0"/>
        <request index="1" response="00" foes="00" cont="0"/>
    </junction>
    <junction id="13" type="dead_end" x="-76.77" y="20.61" incLanes="" intLanes="" shape="-76.71,21.86 -76.84,19.36"/>
    <junction id="14" type="priority" x="-32.88" y="18.22" incLanes="714_0" intLanes=":14_0_0 :14_1_0" shape="-25.36,19.01 -25.51,16.52 -26.24,16.39 -26.46,16.19 -26.58,15.90 -26.60,15.52 -26.52,15.05 -28.62,11.44 -34.73,17.07 -34.59,19.56">
        <request index="0" response="00" foes="00" cont="0"/>
        <request index="1" response="00" foes="00" cont="0"/>
    </junction>
    <junction id="15" type="priority" x="-32.71" y="20.71" incLanes="726_0 728_0" intLanes=":15_0_0 :15_1_0" shape="-24.05,21.44 -24.20,18.95 -24.88,18.84 -25.05,18.67 -25.11,18.41 -25.06,18.08 -24.90,17.67 -26.30,14.22 -27.44,16.96 -28.62,17.99 -30.19,18.77 -32.16,19.29 -34.53,19.56 -34.40,22.05">
        <request index="0" response="00" foes="10" cont="0"/>
        <request index="1" response="01" foes="01" cont="0"/>
    </junction>
    <junction id="16" type="dead_end" x="-76.64" y="23.11" incLanes="715_0" intLanes="" shape="-76.57,24.35 -76.71,21.86"/>
    <junction id="17" type="priority" x="14.34" y="15.03" incLanes="721_0 719_0" intLanes=":17_0_0 :17_1_0" shape="16.08,16.13 15.86,13.65 5.49,14.46 5.68,16.95 6.35,17.03 6.52,17.19 6.57,17.43 6.52,17.74 6.36,18.13 7.77,21.51 8.93,18.83 10.12,17.82 11.70,17.03 13.69,16.47">
        <request index="0" response="00" foes="10" cont="0"/>
        <request index="1" response="01" foes="01" cont="0"/>
    </junction>
    <junction id="18" type="dead_end" x="45.91" y="12.28" incLanes="716_0" intLanes="" shape="45.80,11.03 46.02,13.52"/>
    <junction id="19" type="dead_end" x="46.13" y="14.77" incLanes="" intLanes="" shape="46.02,13.52 46.24,16.01"/>
    <junction id="2" type="dead_end" x="-32.58" y="-208.05" incLanes="708_0" intLanes="" shape="-33.83,-208.02 -31.33,-208.08"/>
    <junction id="20" type="priority" x="14.57" y="17.52" incLanes="717_0" intLanes=":20_0_0 :20_1_0" shape="16.32,18.62 16.11,16.13 6.83,16.86 7.03,19.35 7.74,19.46 7.95,19.64 8.06,19.91 8.08,20.26 8.00,20.71 10.14,24.26">
        <request index="0" response="00" foes="00" cont="0"/>
        <request index="1" response="00" foes="00" cont="0"/>
    </junction>
    <junction id="3" type="dead_end" x="-30.08" y="-208.11" incLanes="" intLanes="" shape="-31.33,-208.08 -28.83,-208.13"/>
    <junction id="4" type="priority" x="-24.88" y="11.48" incLanes="709_0" intLanes=":4_0_0 :4_1_0" shape="-23.11,17.64 -19.60,16.12 -21.79,15.42 -22.56,14.53 -23.14,13.29 -23.51,11.69 -23.69,9.73 -26.19,9.83 -26.31,13.49 -26.57,14.94 -26.97,16.14 -27.50,17.09 -28.18,17.78 -25.14,18.07 -24.53,17.54 -24.20,17.42 -23.85,17.39 -23.49,17.47">
        <request index="0" response="00" foes="00" cont="0"/>
        <request index="1" response="00" foes="00" cont="0"/>
    </junction>
    <junction id="5" type="dead_end" x="37.66" y="152.69" incLanes="" intLanes="" shape="38.85,152.29 36.48,153.08"/>
    <junction id="6" type="priority" x="6.39" y="24.22" incLanes="710_0" intLanes=":6_0_0 :6_1_0" shape="5.25,25.84 7.74,25.67 7.76,22.15 7.98,20.76 8.35,19.61 8.86,18.72 9.46,18.14 6.47,17.92 6.01,18.44 5.73,18.56 5.40,18.58 5.03,18.50 4.62,18.33 1.13,19.88 3.20,20.51 3.99,21.34 4.60,22.50 5.02,24.00">
        <request index="0" response="00" foes="00" cont="0"/>
        <request index="1" response="00" foes="00" cont="0"/>
    </junction>
    <junction id="7" type="priority" x="8.88" y="24.07" incLanes="725_0 723_0" intLanes=":7_0_0 :7_1_0" shape="7.78,26.26 10.27,26.09 10.25,24.04 10.48,22.33 10.97,20.96 11.72,19.92 12.72,19.23 13.97,18.87 10.26,17.60 9.34,18.01 8.89,18.03 8.43,17.93 7.97,17.72 7.52,17.38 4.39,18.17 6.08,19.74 6.71,20.95 7.21,22.44 7.56,24.21">
        <request index="0" response="00" foes="10" cont="0"/>
        <request index="1" response="01" foes="01" cont="0"/>
    </junction>
    <junction id="8" type="dead_end" x="40.04" y="151.90" incLanes="711_0" intLanes="" shape="41.22,151.51 38.85,152.30"/>
    <junction id="9" type="priority" x="-18.63" y="17.36" incLanes="727_0 722_0" intLanes=":9_0_0 :9_1_0" shape="-16.78,18.49 -16.94,15.99 -23.66,11.11 -25.39,14.97 -25.24,15.82 -25.33,16.12 -25.52,16.35 -25.83,16.50 -26.24,16.56 -26.09,19.06">
        <request index="0" response="00" foes="10" cont="0"/>
        <request index="1" response="01" foes="01" cont="0"/>
    </junction>

    <connection from="709" to="727" fromLane="0" toLane="0" contPos="-4.00" via=":4_0_0" dir="r" state="M"/>
    <connection from="709" to="728" fromLane="0" toLane="0" contPos="-4.00" via=":4_1_0" dir="s" state="M"/>
    <connection from="710" to="720" fromLane="0" toLane="0" contPos="-4.00" via=":6_0_0" dir="s" state="M"/>
    <connection from="710" to="719" fromLane="0" toLane="0" contPos="-4.00" via=":6_1_0" dir="l" state="M"/>
    <connection from="712" to="721" fromLane="0" toLane="0" contPos="-4.00" via=":10_0_0" dir="s" state="M"/>
    <connection from="712" to="723" fromLane="0" toLane="0" contPos="-4.00" via=":10_1_0" dir="l" state="M"/>
    <connection from="713" to="726" fromLane="0" toLane="0" contPos="-4.00" via=":12_0_0" dir="s" state="M"/>
    <connection from="713" to="729" fromLane="0" toLane="0" contPos="-4.00" via=":12_1_0" dir="l" state="M"/>
    <connection from="714" to="718" fromLane="0" toLane="0" contPos="-4.00" via=":14_0_0" dir="r" state="M"/>
    <connection from="714" to="722" fromLane="0" toLane="0" contPos="-4.00" via=":14_1_0" dir="s" state="M"/>
    <connection from="717" to="725" fromLane="0" toLane="0" contPos="-4.00" via=":20_0_0" dir="r" state="M"/>
    <connection from="717" to="724" fromLane="0" toLane="0" contPos="-4.00" via=":20_1_0" dir="s" state="M"/>
    <connection from="718" to="708" fromLane="0" toLane="0" contPos="-4.00" via=":1_1_0" dir="s" state="M"/>
    <connection from="719" to="716" fromLane="0" toLane="0" contPos="-4.00" via=":17_1_0" dir="l" state="m"/>
    <connection from="720" to="713" fromLane="0" toLane="0" contPos="-4.00" via=":11_0_0" dir="r" state="M"/>
    <connection from="721" to="716" fromLane="0" toLane="0" contPos="-4.00" via=":17_0_0" dir="s" state="M"/>
    <connection from="722" to="712" fromLane="0" toLane="0" contPos="-4.00" via=":9_1_0" dir="s" state="m"/>
    <connection from="723" to="711" fromLane="0" toLane="0" contPos="-4.00" via=":7_1_0" dir="s" state="m"/>
    <connection from="724" to="713" fromLane="0" toLane="0" contPos="-4.00" via=":11_1_0" dir="s" state="m"/>
    <connection from="725" to="711" fromLane="0" toLane="0" contPos="-4.00" via=":7_0_0" dir="r" state="M"/>
    <connection from="726" to="715" fromLane="0" toLane="0" contPos="-4.00" via=":15_0_0" dir="s" state="M"/>
    <connection from="727" to="712" fromLane="0" toLane="0" contPos="-4.00" via=":9_0_0" dir="r" state="M"/>
    <connection from="728" to="715" fromLane="0" toLane="0" contPos="-4.00" via=":15_1_0" dir="l" state="m"/>
    <connection from="729" to="708" fromLane="0" toLane="0" contPos="-4.00" via=":1_0_0" dir="l" state="m"/>

    <connection from=":1_0" to="708" fromLane="0" toLane="0" dir="l" state="M"/>
    <connection from=":1_1" to="708" fromLane="0" toLane="0" dir="s" state="M"/>
    <connection from=":10_0" to="721" fromLane="0" toLane="0" dir="s" state="M"/>
    <connection from=":10_1" to="723" fromLane="0" toLane="0" dir="l" state="M"/>
    <connection from=":11_0" to="713" fromLane="0" toLane="0" dir="r" state="M"/>
    <connection from=":11_1" to="713" fromLane="0" toLane="0" dir="s" state="M"/>
    <connection from=":12_0" to="726" fromLane="0" toLane="0" dir="s" state="M"/>
    <connection from=":12_1" to="729" fromLane="0" toLane="0" dir="l" state="M"/>
    <connection from=":14_0" to="718" fromLane="0" toLane="0" dir="r" state="M"/>
    <connection from=":14_1" to="722" fromLane="0" toLane="0" dir="s" state="M"/>
    <connection from=":15_0" to="715" fromLane="0" toLane="0" dir="s" state="M"/>
    <connection from=":15_1" to="715" fromLane="0" toLane="0" dir="l" state="M"/>
    <connection from=":17_0" to="716" fromLane="0" toLane="0" dir="s" state="M"/>
    <connection from=":17_1" to="716" fromLane="0" toLane="0" dir="l" state="M"/>
    <connection from=":20_0" to="725" fromLane="0" toLane="0" dir="r" state="M"/>
    <connection from=":20_1" to="724" fromLane="0" toLane="0" dir="s" state="M"/>
    <connection from=":4_0" to="727" fromLane="0" toLane="0" dir="r" state="M"/>
    <connection from=":4_1" to="728" fromLane="0" toLane="0" dir="s" state="M"/>
    <connection from=":6_0" to="720" fromLane="0" toLane="0" dir="s" state="M"/>
    <connection from=":6_1" to="719" fromLane="0" toLane="0" dir="l" state="M"/>
    <connection from=":7_0" to="711" fromLane="0" toLane="0" dir="r" state="M"/>
    <connection from=":7_1" to="711" fromLane="0" toLane="0" dir="s" state="M"/>
    <connection from=":9_0" to="712" fromLane="0" toLane="0" dir="r" state="M"/>
    <connection from=":9_1" to="712" fromLane="0" toLane="0" dir="s" state="M"/>

</net>
