<routes>
	<vehicle depart="0.1" departLane="0" departPos="202.69868764509835" departSpeed="8.3225" id="32" type="passenger">
		<route edges="709 727 712 721 716"/>
	</vehicle>
	<vehicle depart="0.1" departLane="0" departPos="132.78776222688154" departSpeed="0.0" id="34" type="passenger">
		<route edges="710 720 713 729 708"/>
	</vehicle>
	<vehicle depart="0.1" departLane="0" departPos="132.78776222688154" departSpeed="0.1847" id="35" type="passenger">
		<route edges="710 719 716"/>
	</vehicle>
	<vehicle depart="0.1" departLane="0" departPos="0" departSpeed="7.3769" id="37" type="passenger">
		<route edges="711"/>
	</vehicle>
	<vehicle depart="0.1" departLane="0" departPos="109.23454562009414" departSpeed="4.3461" id="39" type="passenger">
		<route edges="710 719 716"/>
	</vehicle>
	<vehicle depart="0.1" departLane="0" departPos="118.61621945627819" departSpeed="7.6977" id="310" type="passenger">
		<route edges="709 728 715"/>
	</vehicle>
	<vehicle depart="0.1" departLane="0" departPos="95.3386046692529" departSpeed="5.4232" id="311" type="passenger">
		<route edges="710 720 713 729 708"/>
	</vehicle>
	<vehicle depart="0.1" departLane="0" departPos="0" departSpeed="8.652" id="312" type="passenger">
		<route edges="708"/>
	</vehicle>
	<vehicle depart="0.1" departLane="0" departPos="0" departSpeed="9.3092" id="313" type="passenger">
		<route edges="715"/>
	</vehicle>
	<vehicle depart="0.1" departLane="0" departPos="0" departSpeed="4.78" id="314" type="passenger">
		<route edges="724 713 729 708"/>
	</vehicle>
	<vehicle depart="0.1" departLane="0" departPos="71.30394665684412" departSpeed="7.6342" id="315" type="passenger">
		<route edges="710 720 713 729 708"/>
	</vehicle>
</routes>
