<!-- generated on 2020-12-18 16:49:57.269391 by ipykernel_launcher.py v1_2_0+5214-53edc58fcd
-->
<edges>
	<edge from="1" function="normal" id="708" length="219.70945089702832" numLanes="1" priority="1" speed="36.11111111111111" spreadType="center" to="2">
		<lane allow="moped bicycle pedestrian custom1 trailer evehicle rail_urban ship private vip custom2 authority delivery rail_electric taxi tram army hov coach motorcycle passenger rail emergency" index="0" length="219.70945089702832" shape="-27.37445,11.596699999999998 -28.0866,-7.012650000000001 -32.5831,-208.04885000000002" speed="36.11111111111111" width="2.499540103699078"/>
	</edge>
	<edge from="3" function="normal" id="709" length="219.65553137112738" numLanes="1" priority="1" speed="36.11111111111111" spreadType="center" to="4">
		<lane allow="moped bicycle pedestrian custom1 trailer evehicle rail_urban ship private vip custom2 authority delivery rail_electric taxi tram army hov coach motorcycle passenger rail emergency" index="0" length="219.65553137112738" shape="-30.083750000000002,-208.10705000000002 -25.5883,-7.1054 -24.87795,11.484649999999998" speed="36.11111111111111" width="2.499381719545855"/>
	</edge>
	<edge from="5" function="normal" id="710" length="132.78776222688154" numLanes="1" priority="1" speed="36.11111111111111" spreadType="center" to="6">
		<lane allow="moped bicycle pedestrian custom1 trailer evehicle rail_urban ship private vip custom2 authority delivery rail_electric taxi tram army hov coach motorcycle passenger rail emergency" index="0" length="132.78776222688154" shape="37.66475,152.68560000000002 27.5071,122.13815 21.73565,104.44475 16.3644,87.15209999999999 13.1967,75.50365 11.506450000000001,68.15115 9.9192,59.238 8.5418,49.273250000000004 7.2646,37.2696 6.389900000000001,24.2217" speed="36.11111111111111" width="2.497540045724993"/>
	</edge>
	<edge from="7" function="normal" id="711" length="132.13990420333235" numLanes="1" priority="1" speed="36.11111111111111" spreadType="center" to="8">
		<lane allow="moped bicycle pedestrian custom1 trailer evehicle rail_urban ship private vip custom2 authority delivery rail_electric taxi tram army hov coach motorcycle passenger rail emergency" index="0" length="132.13990420333235" shape="8.8842,24.0713 9.75525,37.056200000000004 11.0252,48.98675 12.39395,58.8834 13.96945,67.7196 15.6477,74.99905000000001 18.799500000000002,86.57285 24.151850000000003,103.7928 29.90645,121.43100000000001 40.03830000000001,151.9006" speed="36.11111111111111" width="2.49990817631368"/>
	</edge>
	<edge from="9" function="normal" id="712" length="18.545042424390033" numLanes="1" priority="1" speed="36.11111111111111" spreadType="center" to="10">
		<lane allow="moped bicycle pedestrian custom1 trailer evehicle rail_urban ship private truck vip custom2 authority delivery rail_electric taxi tram army hov coach motorcycle passenger bus rail emergency" index="0" length="18.545042424390033" shape="-18.630000000000003,17.3574 -9.388200000000001,16.7496 -0.1249,16.1409" speed="36.11111111111111" width="2.4991433492298882"/>
	</edge>
	<edge from="11" function="normal" id="713" length="18.553856275666558" numLanes="1" priority="1" speed="36.11111111111111" spreadType="center" to="12">
		<lane allow="moped bicycle pedestrian custom1 trailer evehicle rail_urban ship private truck vip custom2 authority delivery rail_electric taxi tram army hov coach motorcycle passenger bus rail emergency" index="0" length="18.553856275666558" shape="0.02215,18.636049999999997 -9.22415,19.2442 -18.49175,19.85305" speed="36.11111111111111" width="2.4992541967555053"/>
	</edge>
	<edge from="13" function="normal" id="714" length="43.96200418455146" numLanes="1" priority="1" speed="36.11111111111111" spreadType="center" to="14">
		<lane allow="moped bicycle pedestrian custom1 trailer evehicle rail_urban ship private truck vip custom2 authority delivery rail_electric taxi tram army hov coach motorcycle passenger bus rail emergency" index="0" length="43.96200418455146" shape="-76.77485,20.61025 -54.82735,19.4131 -32.8781,18.21585" speed="36.11111111111111" width="2.4989667964981077"/>
	</edge>
	<edge from="15" function="normal" id="715" length="43.989286369218135" numLanes="1" priority="1" speed="36.11111111111111" spreadType="center" to="16">
		<lane allow="moped bicycle pedestrian custom1 trailer evehicle rail_urban ship private truck vip custom2 authority delivery rail_electric taxi tram army hov coach motorcycle passenger bus rail emergency" index="0" length="43.989286369218135" shape="-32.714749999999995,20.7099 -54.6912,21.90935 -76.6387,23.10655" speed="36.11111111111111" width="2.500012825967097"/>
	</edge>
	<edge from="17" function="normal" id="716" length="31.69421810638952" numLanes="1" priority="1" speed="36.11111111111111" spreadType="center" to="18">
		<lane allow="moped bicycle pedestrian custom1 trailer evehicle rail_urban ship private truck vip custom2 authority delivery rail_electric taxi tram army hov coach motorcycle passenger bus rail emergency" index="0" length="31.69421810638952" shape="14.33595,15.0328 30.12245,13.6545 45.91005,12.27605" speed="36.11111111111111" width="2.498993047209216"/>
	</edge>
	<edge from="19" function="normal" id="717" length="31.676452353915728" numLanes="1" priority="1" speed="36.11111111111111" spreadType="center" to="20">
		<lane allow="moped bicycle pedestrian custom1 trailer evehicle rail_urban ship private truck vip custom2 authority delivery rail_electric taxi tram army hov coach motorcycle passenger bus rail emergency" index="0" length="31.676452353915728" shape="46.1275,14.76655 30.3399,16.14505 14.57105,17.5212" speed="36.11111111111111" width="2.4999706018271484"/>
	</edge>
	<edge from="14" function="normal" id="718" length="9.828333514890875" numLanes="1" priority="1" speed="36.11111111111111" spreadType="center" to="1">
		<lane allow="moped bicycle pedestrian custom1 trailer evehicle rail_urban ship private vip custom2 authority delivery rail_electric taxi tram army hov coach motorcycle passenger rail emergency" index="0" length="9.828333514890875" shape="-32.8781,18.21585 -31.79135,18.088949999999997 -30.731099999999998,17.81545 -29.7382,17.3559 -28.87585,16.68405 -28.20675,15.8191 -27.75385,14.8229 -27.49115,13.75995 -27.3773,12.6702 -27.37445,11.596699999999998" speed="36.11111111111111" width="2.4989667964981077"/>
	</edge>
	<edge from="6" function="normal" id="719" length="13.82633883170028" numLanes="1" priority="1" speed="36.11111111111111" spreadType="center" to="17">
		<lane allow="moped bicycle pedestrian custom1 trailer evehicle rail_urban ship private vip custom2 authority delivery rail_electric taxi tram army hov coach motorcycle passenger rail emergency" index="0" length="13.82633883170028" shape="6.389900000000001,24.2217 6.38045,22.68345 6.55425,21.1564 6.9663,19.676949999999998 7.6671,18.311500000000002 8.67095,17.15125 9.92205,16.26225 11.3262,15.640350000000002 12.81205,15.247399999999999 14.33595,15.0328" speed="36.11111111111111" width="2.497540045724993"/>
	</edge>
	<edge from="6" function="normal" id="720" length="9.711375292745265" numLanes="1" priority="1" speed="36.11111111111111" spreadType="center" to="11">
		<lane allow="moped bicycle pedestrian custom1 trailer evehicle rail_urban ship private vip custom2 authority delivery rail_electric taxi tram army hov coach motorcycle passenger rail emergency" index="0" length="9.711375292745265" shape="6.389900000000001,24.2217 6.2683,23.1469 6.02045,22.09515 5.60215,21.099800000000002 4.9876,20.21395 4.17465,19.5066 3.21425,19.0165 2.1719,18.73475 1.0972,18.6219 0.02215,18.636049999999997" speed="36.11111111111111" width="2.497540045724993"/>
	</edge>
	<edge from="10" function="normal" id="721" length="14.503243398107273" numLanes="1" priority="1" speed="36.11111111111111" spreadType="center" to="17">
		<lane allow="moped bicycle pedestrian custom1 trailer evehicle rail_urban ship private truck vip custom2 authority delivery rail_electric taxi tram army hov coach motorcycle passenger bus rail emergency" index="0" length="14.503243398107273" shape="-0.1249,16.1409 7.0934,15.58735 14.33595,15.0328" speed="36.11111111111111" width="2.498993047209216"/>
	</edge>
	<edge from="14" function="normal" id="722" length="14.27393743906799" numLanes="1" priority="1" speed="36.11111111111111" spreadType="center" to="9">
		<lane allow="moped bicycle pedestrian custom1 trailer evehicle rail_urban ship private truck vip custom2 authority delivery rail_electric taxi tram army hov coach motorcycle passenger bus rail emergency" index="0" length="14.27393743906799" shape="-32.8781,18.21585 -25.7541,17.78665 -18.630000000000003,17.3574" speed="36.11111111111111" width="2.4989667964981077"/>
	</edge>
	<edge from="10" function="normal" id="723" length="13.685867750232216" numLanes="1" priority="1" speed="36.11111111111111" spreadType="center" to="7">
		<lane allow="moped bicycle pedestrian custom1 trailer evehicle rail_urban ship private vip custom2 authority delivery rail_electric taxi tram army hov coach motorcycle passenger rail emergency" index="0" length="13.685867750232216" shape="-0.1249,16.1409 1.2987,16.1241 2.7704500000000003,16.28265 4.25005,16.68945 5.65815,17.4157 6.86885,18.472250000000003 7.7783,19.774549999999998 8.37655,21.1904 8.721400000000001,22.63545 8.8842,24.0713" speed="36.11111111111111" width="2.500059335295863"/>
	</edge>
	<edge from="20" function="normal" id="724" length="14.591551749219846" numLanes="1" priority="1" speed="36.11111111111111" spreadType="center" to="11">
		<lane allow="moped bicycle pedestrian custom1 trailer evehicle rail_urban ship private truck vip custom2 authority delivery rail_electric taxi tram army hov coach motorcycle passenger bus rail emergency" index="0" length="14.591551749219846" shape="14.57105,17.5212 7.2842,18.08 0.02215,18.636049999999997" speed="36.11111111111111" width="2.4992541967555053"/>
	</edge>
	<edge from="20" function="normal" id="725" length="9.939838571811961" numLanes="1" priority="1" speed="36.11111111111111" spreadType="center" to="7">
		<lane allow="moped bicycle pedestrian custom1 trailer evehicle rail_urban ship private vip custom2 authority delivery rail_electric taxi tram army hov coach motorcycle passenger rail emergency" index="0" length="9.939838571811961" shape="14.57105,17.5212 13.386299999999999,17.68565 12.27925,17.97485 11.27965,18.4117 10.4267,19.0123 9.76125,19.7797 9.29065,20.708849999999998 9.002600000000001,21.7618 8.876149999999999,22.898049999999998 8.8842,24.0713" speed="36.11111111111111" width="2.500122223012307"/>
	</edge>
	<edge from="12" function="normal" id="726" length="14.248786704457753" numLanes="1" priority="1" speed="36.11111111111111" spreadType="center" to="15">
		<lane allow="moped bicycle pedestrian custom1 trailer evehicle rail_urban ship private truck vip custom2 authority delivery rail_electric taxi tram army hov coach motorcycle passenger bus rail emergency" index="0" length="14.248786704457753" shape="-18.49175,19.85305 -25.60385,20.28215 -32.714749999999995,20.7099" speed="36.11111111111111" width="2.500010051979791"/>
	</edge>
	<edge from="4" function="normal" id="727" length="9.857796158268723" numLanes="1" priority="1" speed="36.11111111111111" spreadType="center" to="9">
		<lane allow="moped bicycle pedestrian custom1 trailer evehicle rail_urban ship private vip custom2 authority delivery rail_electric taxi tram army hov coach motorcycle passenger rail emergency" index="0" length="9.857796158268723" shape="-24.87795,11.484649999999998 -24.7742,12.5545 -24.55255,13.631 -24.17465,14.66235 -23.601550000000003,15.5983 -22.8209,16.3687 -21.86855,16.913 -20.8184,17.2324 -19.72785,17.36625 -18.630000000000003,17.3574" speed="36.11111111111111" width="2.4991433492298882"/>
	</edge>
	<edge from="4" function="normal" id="728" length="13.74950110287877" numLanes="1" priority="1" speed="36.11111111111111" spreadType="center" to="15">
		<lane allow="moped bicycle pedestrian custom1 trailer evehicle rail_urban ship private vip custom2 authority delivery rail_electric taxi tram army hov coach motorcycle passenger rail emergency" index="0" length="13.74950110287877" shape="-24.87795,11.484649999999998 -24.88325,12.90655 -25.04505,14.3711 -25.4259,15.844249999999999 -26.0995,17.272350000000003 -27.10585,18.53505 -28.3834,19.5105 -29.808500000000002,20.164099999999998 -31.2743,20.540149999999997 -32.714749999999995,20.7099" speed="36.11111111111111" width="2.499381719545855"/>
	</edge>
	<edge from="12" function="normal" id="729" length="13.865322043977383" numLanes="1" priority="1" speed="36.11111111111111" spreadType="center" to="1">
		<lane allow="moped bicycle pedestrian custom1 trailer evehicle rail_urban ship private vip custom2 authority delivery rail_electric taxi tram army hov coach motorcycle passenger rail emergency" index="0" length="13.865322043977383" shape="-18.49175,19.85305 -19.9418,19.862949999999998 -21.44575,19.6798 -22.9476,19.224449999999997 -24.36055,18.424950000000003 -25.53745,17.28515 -26.385550000000002,15.9285 -26.9283,14.48265 -27.2354,13.0247 -27.37445,11.596699999999998" speed="36.11111111111111" width="2.499540103699078"/>
	</edge>
</edges>
