<!-- generated on 2020-12-18 16:49:57.360453 by ipykernel_launcher.py v1_2_0+5214-53edc58fcd
-->
<nodes>
	<node id="1" type="from" x="-27.37445" y="11.596699999999998"/>
	<node id="2" type="to" x="-32.5831" y="-208.04885000000002"/>
	<node id="3" type="from" x="-30.083750000000002" y="-208.10705000000002"/>
	<node id="4" type="to" x="-24.87795" y="11.484649999999998"/>
	<node id="5" type="from" x="37.66475" y="152.68560000000002"/>
	<node id="6" type="to" x="6.389900000000001" y="24.2217"/>
	<node id="7" type="from" x="8.8842" y="24.0713"/>
	<node id="8" type="to" x="40.03830000000001" y="151.9006"/>
	<node id="9" type="from" x="-18.630000000000003" y="17.3574"/>
	<node id="10" type="to" x="-0.1249" y="16.1409"/>
	<node id="11" type="from" x="0.02215" y="18.636049999999997"/>
	<node id="12" type="to" x="-18.49175" y="19.85305"/>
	<node id="13" type="from" x="-76.77485" y="20.61025"/>
	<node id="14" type="to" x="-32.8781" y="18.21585"/>
	<node id="15" type="from" x="-32.714749999999995" y="20.7099"/>
	<node id="16" type="to" x="-76.6387" y="23.10655"/>
	<node id="17" type="from" x="14.33595" y="15.0328"/>
	<node id="18" type="to" x="45.91005" y="12.27605"/>
	<node id="19" type="from" x="46.1275" y="14.76655"/>
	<node id="20" type="to" x="14.57105" y="17.5212"/>
</nodes>
