<routes>
	<vehicle depart="0.1" departLane="0" departPos="33.14747165530249" departSpeed="0.0" id="315" type="bicycle">
		<route edges="262 103"/>
	</vehicle>
	<vehicle depart="0.1" departLane="0" departPos="135.42947694501524" departSpeed="0.00013064282" id="317" type="bicycle">
		<route edges="107 110"/>
	</vehicle>
	<vehicle depart="0.1" departLane="0" departPos="132.41050755292065" departSpeed="16.522796" id="32" type="passenger">
		<route edges="106 103"/>
	</vehicle>
	<vehicle depart="0.1" departLane="0" departPos="33.403042117635906" departSpeed="0.0" id="38" type="passenger">
		<route edges="262 103"/>
	</vehicle>
	<vehicle depart="0.1" departLane="0" departPos="26.535304871404954" departSpeed="0.0" id="311" type="passenger">
		<route edges="262 103"/>
	</vehicle>
	<vehicle depart="0.1" departLane="0" departPos="24.17703506840626" departSpeed="0.0" id="316" type="passenger">
		<route edges="104 261"/>
	</vehicle>
	<vehicle depart="0.1" departLane="0" departPos="69.93062924135286" departSpeed="0.0" id="320" type="passenger">
		<route edges="109 106"/>
	</vehicle>
	<vehicle depart="0.1" departLane="0" departPos="16.52502751659634" departSpeed="9.8512073" id="321" type="passenger">
		<route edges="261"/>
	</vehicle>
	<vehicle depart="0.1" departLane="0" departPos="19.612193722726147" departSpeed="0.0" id="322" type="passenger">
		<route edges="262 103"/>
	</vehicle>
	<vehicle depart="0.1" departLane="0" departPos="16.922747913397615" departSpeed="0.0" id="325" type="passenger">
		<route edges="104 261"/>
	</vehicle>
	<vehicle depart="0.1" departLane="0" departPos="10.064873525661888" departSpeed="0.0" id="329" type="passenger">
		<route edges="104 261"/>
	</vehicle>
	<vehicle depart="0.1" departLane="0" departPos="105.85950262381219" departSpeed="16.570303" id="336" type="passenger">
		<route edges="106 103"/>
	</vehicle>
	<vehicle depart="0.1" departLane="0" departPos="29.656646727790328" departSpeed="22.610567" id="343" type="passenger">
		<route edges="106 103"/>
	</vehicle>
	<vehicle depart="0.1" departLane="0" departPos="2.5" departSpeed="21.953926" id="345" type="passenger">
		<route edges="106 103"/>
	</vehicle>
	<vehicle depart="0.1" departLane="0" departPos="2.5" departSpeed="20.90759" id="347" type="passenger">
		<route edges=":29_1 106 103"/>
	</vehicle>
	<vehicle depart="0.1" departLane="0" departPos="8.266203122728275" departSpeed="7.3532932" id="332" type="motorcycle">
		<route edges=":31_2 261"/>
	</vehicle>
	<vehicle depart="0.1" departLane="0" departPos="24.488159426404295" departSpeed="0.0" id="337" type="motorcycle">
		<route edges="104 261"/>
	</vehicle>
	<vehicle depart="0.1" departLane="0" departPos="12.78674469410521" departSpeed="0.0" id="327" type="truck">
		<route edges="262 103"/>
	</vehicle>
</routes>
