<!-- generated on 2020-12-18 15:54:00.591116 by ipykernel_launcher.py v1_2_0+5214-53edc58fcd
-->
<nodes>
	<node id="1" type="from" x="-40.474239999999995" y="44.82968000000001"/>
	<node id="2" type="to" x="130.17556" y="-103.04778000000002"/>
</nodes>
