<routes>
	<vehicle depart="0.1" departLane="0" departPos="27.562245054271955" departSpeed="7.6262376" id="331" type="bicycle">
		<route edges="2711 2708"/>
	</vehicle>
	<vehicle depart="0.1" departLane="0" departPos="12.783030112961185" departSpeed="0.65024729" id="319" type="passenger">
		<route edges=":39_3 2715"/>
	</vehicle>
	<vehicle depart="0.1" departLane="0" departPos="6.4012068323451015" departSpeed="12.705417" id="342" type="passenger">
		<route edges="2711 2708"/>
	</vehicle>
	<vehicle depart="0.1" departLane="0" departPos="22.509064562589835" departSpeed="12.412706" id="345" type="passenger">
		<route edges=":39_5 2711 2708"/>
	</vehicle>
	<vehicle depart="0.1" departLane="0" departPos="12.508886415288776" departSpeed="10.847291" id="347" type="passenger">
		<route edges=":39_5 2711 2708"/>
	</vehicle>
	<vehicle depart="0.1" departLane="0" departPos="44.60881321144606" departSpeed="8.9088952" id="351" type="passenger">
		<route edges="2714 2711"/>
	</vehicle>
	<vehicle depart="0.1" departLane="0" departPos="31.369765483414017" departSpeed="8.4572775" id="353" type="passenger">
		<route edges="2714 2711"/>
	</vehicle>
	<vehicle depart="0.1" departLane="0" departPos="21.36920276955673" departSpeed="5.8772698" id="355" type="passenger">
		<route edges="2714 2711"/>
	</vehicle>
</routes>
