<!-- generated on Tue Feb  9 22:18:43 2021 by Eclipse SUMO netconvert Version 1.8.0
<configuration xmlns:xsi="http://www.w3.org/2001/XMLSchema-instance" xsi:noNamespaceSchemaLocation="http://sumo.dlr.de/xsd/netconvertConfiguration.xsd">

    <input>
        <node-files value="./converted_scenarios/scenario-factory/DEU_Muehlhausen-1_2_I-1-1/DEU_Muehlhausen-1_2_I-1-1.nod.xml"/>
        <edge-files value="./converted_scenarios/scenario-factory/DEU_Muehlhausen-1_2_I-1-1/DEU_Muehlhausen-1_2_I-1-1.edg.xml"/>
        <connection-files value="./converted_scenarios/scenario-factory/DEU_Muehlhausen-1_2_I-1-1/DEU_Muehlhausen-1_2_I-1-1.con.xml"/>
        <tllogic-files value="./converted_scenarios/scenario-factory/DEU_Muehlhausen-1_2_I-1-1/DEU_Muehlhausen-1_2_I-1-1.tll.xml"/>
        <type-files value="/home/zen/commonroad-interactive-benchmarks/install/commonroad-map-tool/crmapconverter/sumo_map/templates/DEU.typ.xml"/>
    </input>

    <output>
        <output-file value="./converted_scenarios/scenario-factory/DEU_Muehlhausen-1_2_I-1-1/DEU_Muehlhausen-1_2_I-1-1.net.xml"/>
    </output>

    <processing>
        <geometry.remove.keep-edges.explicit value="true"/>
        <geometry.avoid-overlap value="true"/>
        <offset.disable-normalization value="true"/>
    </processing>

    <junctions>
        <no-turnarounds value="true"/>
        <junctions.internal-link-detail value="20"/>
    </junctions>

    <report>
        <aggregate-warnings value="5"/>
    </report>

    <random_number>
        <seed value="1234"/>
    </random_number>

</configuration>
--><net xmlns:xsi="http://www.w3.org/2001/XMLSchema-instance" version="1.6" junctionCornerDetail="5" junctionLinkDetail="20" limitTurnSpeed="5.50" xsi:noNamespaceSchemaLocation="http://sumo.dlr.de/xsd/net_file.xsd">

    <location netOffset="0.00,0.00" convBoundary="-842.68,520.24,-572.81,723.23" origBoundary="-842.68,520.24,-572.81,723.23" projParameter="!"/>

    <type id="highway.bridleway" priority="1" speed="2.78" allow="pedestrian" oneway="1" width="2.00"/>
    <type id="highway.bus_guideway" priority="1" speed="27.78" allow="bus" oneway="1"/>
    <type id="highway.cycleway" priority="1" speed="8.33" allow="bicycle" oneway="0" width="1.00"/>
    <type id="highway.footway" priority="1" speed="2.78" allow="pedestrian" oneway="1" width="2.00"/>
    <type id="highway.ford" priority="1" speed="2.78" allow="army" oneway="0"/>
    <type id="highway.living_street" priority="2" speed="2.78" disallow="tram rail_urban rail rail_electric rail_fast ship" oneway="0"/>
    <type id="highway.motorway" priority="14" speed="39.44" allow="private emergency authority army vip passenger hov taxi bus coach delivery truck trailer motorcycle evehicle custom1 custom2" oneway="1"/>
    <type id="highway.motorway_link" priority="9" speed="22.22" allow="private emergency authority army vip passenger hov taxi bus coach delivery truck trailer motorcycle evehicle custom1 custom2" oneway="1"/>
    <type id="highway.path" priority="1" speed="2.78" allow="pedestrian bicycle" oneway="0" width="2.00"/>
    <type id="highway.pedestrian" priority="1" speed="2.78" allow="pedestrian" oneway="1" width="2.00"/>
    <type id="highway.primary" priority="12" speed="27.78" disallow="pedestrian tram rail_urban rail rail_electric rail_fast ship" oneway="0"/>
    <type id="highway.primary_link" priority="7" speed="22.22" disallow="pedestrian tram rail_urban rail rail_electric rail_fast ship" oneway="0"/>
    <type id="highway.raceway" priority="15" speed="83.33" allow="vip" oneway="0"/>
    <type id="highway.residential" priority="3" speed="13.89" disallow="pedestrian tram rail_urban rail rail_electric rail_fast ship" oneway="0"/>
    <type id="highway.secondary" priority="11" speed="27.78" disallow="pedestrian tram rail_urban rail rail_electric rail_fast ship" oneway="0"/>
    <type id="highway.secondary_link" priority="6" speed="22.22" disallow="pedestrian tram rail_urban rail rail_electric rail_fast ship" oneway="0"/>
    <type id="highway.service" priority="1" speed="5.56" allow="pedestrian delivery bicycle" oneway="0"/>
    <type id="highway.stairs" priority="1" speed="1.39" allow="pedestrian" oneway="1" width="2.00"/>
    <type id="highway.step" priority="1" speed="1.39" allow="pedestrian" oneway="1" width="2.00"/>
    <type id="highway.steps" priority="1" speed="1.39" allow="pedestrian" oneway="1" width="2.00"/>
    <type id="highway.tertiary" priority="10" speed="22.22" disallow="pedestrian tram rail_urban rail rail_electric rail_fast ship" oneway="0"/>
    <type id="highway.tertiary_link" priority="5" speed="22.22" disallow="pedestrian tram rail_urban rail rail_electric rail_fast ship" oneway="0"/>
    <type id="highway.track" priority="1" speed="5.56" allow="pedestrian motorcycle moped bicycle" oneway="0"/>
    <type id="highway.trunk" priority="13" speed="27.78" disallow="pedestrian bicycle tram rail_urban rail rail_electric rail_fast ship" oneway="0"/>
    <type id="highway.trunk_link" priority="8" speed="22.22" disallow="pedestrian bicycle tram rail_urban rail rail_electric rail_fast ship" oneway="0"/>
    <type id="highway.unclassified" priority="4" speed="13.89" disallow="pedestrian tram rail_urban rail rail_electric rail_fast ship" oneway="0"/>
    <type id="highway.unsurfaced" priority="1" speed="8.33" disallow="tram rail_urban rail rail_electric rail_fast ship" oneway="0"/>
    <type id="railway.highspeed" priority="21" speed="69.44" allow="rail_fast" oneway="1"/>
    <type id="railway.light_rail" priority="19" speed="27.78" allow="rail_urban" oneway="1"/>
    <type id="railway.preserved" priority="16" speed="27.78" allow="rail" oneway="1"/>
    <type id="railway.rail" priority="20" speed="44.44" allow="rail" oneway="1"/>
    <type id="railway.subway" priority="18" speed="27.78" allow="rail_urban" oneway="1"/>
    <type id="railway.tram" priority="17" speed="13.89" allow="tram" oneway="1"/>

    <edge id=":37_0" function="internal">
        <lane id=":37_0_0" index="0" disallow="pedestrian tram rail_urban rail rail_electric rail_fast ship" speed="11.28" length="28.50" width="3.50" shape="-663.50,599.50 -663.64,596.21 -663.96,594.04 -664.51,591.91 -665.31,589.87 -665.83,588.90 -666.41,587.97 -667.07,587.10 -667.81,586.28 -668.61,585.53 -669.47,584.84 -670.38,584.23 -672.33,583.22 -674.39,582.48 -676.52,581.96 -678.70,581.64 -680.85,581.48"/>
    </edge>
    <edge id=":37_1" function="internal">
        <lane id=":37_1_0" index="0" disallow="pedestrian tram rail_urban rail rail_electric rail_fast ship" speed="36.11" length="38.37" width="3.50" shape="-663.50,599.50 -663.11,582.91 -662.34,566.34 -662.01,561.16"/>
    </edge>
    <edge id=":37_2" function="internal">
        <lane id=":37_2_0" index="0" disallow="pedestrian tram rail_urban rail rail_electric rail_fast ship" speed="36.11" length="38.16" width="3.50" shape="-658.52,561.39 -658.84,566.54 -659.62,583.04 -660.00,599.52"/>
    </edge>
    <edge id=":37_3" function="internal">
        <lane id=":37_3_0" index="0" disallow="pedestrian tram rail_urban rail rail_electric rail_fast ship" speed="12.30" length="34.16" width="3.50" shape="-658.52,561.39 -658.78,563.93 -659.23,566.46 -659.92,568.97 -660.91,571.42 -662.21,573.71 -663.02,574.83 -663.91,575.86 -664.88,576.81 -665.93,577.67 -667.05,578.44 -668.22,579.12 -669.46,579.70 -671.93,580.57 -674.49,581.13 -677.07,581.43 -680.85,581.48"/>
    </edge>
    <edge id=":37_4" function="internal">
        <lane id=":37_4_0" index="0" disallow="pedestrian tram rail_urban rail rail_electric rail_fast ship" speed="11.30" length="28.69" width="3.50" shape="-680.73,577.98 -677.44,577.94 -675.24,577.69 -673.08,577.22 -671.00,576.48 -670.00,576.01 -669.05,575.46 -668.14,574.83 -667.28,574.13 -666.49,573.36 -665.77,572.52 -665.12,571.63 -664.03,569.71 -663.21,567.66 -662.62,565.54 -662.23,563.36 -662.01,561.16"/>
    </edge>
    <edge id=":37_5" function="internal">
        <lane id=":37_5_0" index="0" disallow="pedestrian tram rail_urban rail rail_electric rail_fast ship" speed="12.28" length="33.98" width="3.50" shape="-680.73,577.98 -678.22,578.17 -675.70,578.54 -673.18,579.15 -670.72,580.05 -668.40,581.26 -667.25,582.02 -666.20,582.86 -665.21,583.79 -664.31,584.80 -663.50,585.88 -662.78,587.01 -662.15,588.23 -661.19,590.66 -660.54,593.19 -660.17,595.75 -660.00,599.52"/>
    </edge>
    <edge id=":38_0" function="internal">
        <lane id=":38_0_0" index="0" disallow="pedestrian tram rail_urban rail rail_electric rail_fast ship" speed="11.29" length="29.06" width="3.50" shape="-642.89,655.71 -645.24,655.68 -647.53,655.83 -649.76,656.18 -651.91,656.78 -653.95,657.66 -654.85,658.19 -655.74,658.80 -656.56,659.48 -657.32,660.24 -658.01,661.06 -658.64,661.94 -659.18,662.84 -660.12,664.88 -660.80,667.02 -661.26,669.23 -661.62,672.70"/>
    </edge>
    <edge id=":38_1" function="internal">
        <lane id=":38_1_0" index="0" disallow="pedestrian tram rail_urban rail rail_electric rail_fast ship" speed="36.11" length="39.03" width="3.50" shape="-642.89,655.71 -658.30,655.11 -681.90,654.53"/>
    </edge>
    <edge id=":38_2" function="internal">
        <lane id=":38_2_0" index="0" disallow="pedestrian tram rail_urban rail rail_electric rail_fast ship" speed="12.43" length="34.77" width="3.50" shape="-642.89,655.71 -646.76,655.34 -649.29,654.85 -651.75,654.13 -654.12,653.12 -656.33,651.80 -657.35,651.02 -658.31,650.16 -659.20,649.22 -660.00,648.22 -661.37,646.04 -662.40,643.69 -663.13,641.22 -663.60,638.69 -663.89,634.84 -663.89,633.55"/>
    </edge>
    <edge id=":38_3" function="internal">
        <lane id=":38_3_0" index="0" disallow="pedestrian tram rail_urban rail rail_electric rail_fast ship" speed="11.45" length="29.30" width="3.50" shape="-660.39,633.59 -660.39,634.69 -660.14,638.07 -659.74,640.22 -659.13,642.30 -658.28,644.25 -657.14,646.06 -656.50,646.84 -655.79,647.60 -655.01,648.30 -654.20,648.91 -652.36,650.02 -650.38,650.86 -648.29,651.48 -646.13,651.89 -642.74,652.21"/>
    </edge>
    <edge id=":38_4" function="internal">
        <lane id=":38_4_0" index="0" disallow="pedestrian tram rail_urban rail rail_electric rail_fast ship" speed="36.11" length="39.13" width="3.50" shape="-660.39,633.59 -660.81,653.15 -661.62,672.70"/>
    </edge>
    <edge id=":38_5" function="internal">
        <lane id=":38_5_0" index="0" disallow="pedestrian tram rail_urban rail rail_electric rail_fast ship" speed="12.19" length="34.37" width="3.50" shape="-660.39,633.59 -660.51,636.15 -660.82,638.71 -661.38,641.26 -662.24,643.77 -663.42,646.15 -664.19,647.31 -665.03,648.39 -665.97,649.39 -667.00,650.30 -668.10,651.11 -669.25,651.83 -670.48,652.46 -672.95,653.40 -675.50,654.03 -678.09,654.39 -681.90,654.53"/>
    </edge>
    <edge id=":38_6" function="internal">
        <lane id=":38_6_0" index="0" disallow="pedestrian tram rail_urban rail rail_electric rail_fast ship" speed="11.19" length="28.77" width="3.50" shape="-681.84,651.03 -678.54,650.91 -676.35,650.60 -674.20,650.08 -672.13,649.29 -671.14,648.78 -670.20,648.20 -669.31,647.54 -668.49,646.80 -667.73,645.99 -667.04,645.12 -666.44,644.20 -665.44,642.22 -664.73,640.13 -664.26,637.96 -663.99,635.76 -663.89,633.55"/>
    </edge>
    <edge id=":38_7" function="internal">
        <lane id=":38_7_0" index="0" disallow="pedestrian tram rail_urban rail rail_electric rail_fast ship" speed="36.11" length="39.12" width="3.50" shape="-681.84,651.03 -658.19,651.61 -642.74,652.21"/>
    </edge>
    <edge id=":38_8" function="internal">
        <lane id=":38_8_0" index="0" disallow="pedestrian tram rail_urban rail rail_electric rail_fast ship" speed="12.03" length="34.17" width="3.50" shape="-681.84,651.03 -678.07,651.29 -675.51,651.73 -672.99,652.43 -670.58,653.46 -669.38,654.13 -668.25,654.89 -667.20,655.75 -666.22,656.71 -665.33,657.75 -664.55,658.86 -663.87,660.04 -663.28,661.28 -662.42,663.76 -661.89,666.32 -661.62,668.90 -661.62,672.70"/>
    </edge>
    <edge id=":38_9" function="internal">
        <lane id=":38_9_0" index="0" disallow="pedestrian tram rail_urban rail rail_electric rail_fast ship" speed="11.01" length="28.46" width="3.50" shape="-665.12,672.52 -665.12,669.24 -665.34,667.06 -665.79,664.91 -666.50,662.84 -666.97,661.85 -667.52,660.91 -668.15,660.01 -668.86,659.18 -669.65,658.41 -670.49,657.72 -671.40,657.10 -672.36,656.57 -674.37,655.71 -676.48,655.12 -678.64,654.75 -681.90,654.53"/>
    </edge>
    <edge id=":38_10" function="internal">
        <lane id=":38_10_0" index="0" disallow="pedestrian tram rail_urban rail rail_electric rail_fast ship" speed="36.11" length="38.99" width="3.50" shape="-665.12,672.52 -664.31,653.04 -663.89,633.55"/>
    </edge>
    <edge id=":38_11" function="internal">
        <lane id=":38_11_0" index="0" disallow="pedestrian tram rail_urban rail rail_electric rail_fast ship" speed="12.29" length="34.61" width="3.50" shape="-665.12,672.52 -664.71,668.55 -664.16,665.95 -663.36,663.41 -662.24,660.99 -661.56,659.85 -660.79,658.77 -659.93,657.75 -658.98,656.82 -657.96,655.97 -656.86,655.21 -655.71,654.54 -653.27,653.49 -650.71,652.78 -648.08,652.36 -645.42,652.18 -642.74,652.21"/>
    </edge>
    <edge id=":39_0" function="internal">
        <lane id=":39_0_0" index="0" disallow="pedestrian tram rail_urban rail rail_electric rail_fast ship" speed="36.11" length="38.84" width="3.50" shape="-733.94,653.67 -753.90,653.30 -772.77,652.75"/>
    </edge>
    <edge id=":39_1" function="internal">
        <lane id=":39_1_0" index="0" disallow="pedestrian tram rail_urban rail rail_electric rail_fast ship" speed="12.23" length="34.39" width="3.50" shape="-733.94,653.67 -737.92,653.40 -740.53,652.96 -743.08,652.26 -745.52,651.25 -746.68,650.61 -747.79,649.89 -748.83,649.08 -749.80,648.18 -750.69,647.20 -751.49,646.15 -752.19,645.03 -753.33,642.65 -754.13,640.13 -754.63,637.54 -754.89,634.91 -754.95,632.26"/>
    </edge>
    <edge id=":39_2" function="internal">
        <lane id=":39_2_0" index="0" disallow="pedestrian tram rail_urban rail rail_electric rail_fast ship" speed="11.23" length="28.82" width="3.50" shape="-751.45,632.31 -751.40,634.61 -751.18,636.87 -750.75,639.07 -750.09,641.17 -749.14,643.16 -748.58,644.03 -747.94,644.88 -747.23,645.66 -746.45,646.38 -745.61,647.03 -744.71,647.62 -743.79,648.12 -741.73,648.97 -739.58,649.56 -737.36,649.94 -733.88,650.17"/>
    </edge>
    <edge id=":39_3" function="internal">
        <lane id=":39_3_0" index="0" disallow="pedestrian tram rail_urban rail rail_electric rail_fast ship" speed="11.98" length="34.02" width="3.50" shape="-751.45,632.31 -751.57,634.83 -751.87,637.37 -752.41,639.89 -753.25,642.38 -754.41,644.73 -755.17,645.89 -756.00,646.95 -756.94,647.95 -757.95,648.85 -759.05,649.65 -760.20,650.36 -761.44,650.97 -763.90,651.86 -766.44,652.43 -769.02,652.72 -772.77,652.75"/>
    </edge>
    <edge id=":39_4" function="internal">
        <lane id=":39_4_0" index="0" disallow="pedestrian tram rail_urban rail rail_electric rail_fast ship" speed="10.97" length="28.36" width="3.50" shape="-772.65,649.26 -769.38,649.23 -767.21,648.98 -765.08,648.51 -763.03,647.76 -762.06,647.27 -761.13,646.71 -760.25,646.06 -759.43,645.33 -758.69,644.54 -758.02,643.68 -757.42,642.76 -756.46,640.81 -755.76,638.74 -755.31,636.61 -755.05,634.44 -754.95,632.26"/>
    </edge>
    <edge id=":39_5" function="internal">
        <lane id=":39_5_0" index="0" disallow="pedestrian tram rail_urban rail rail_electric rail_fast ship" speed="36.11" length="38.78" width="3.50" shape="-772.65,649.26 -753.81,649.80 -733.88,650.17"/>
    </edge>
    <edge id=":40_0" function="internal">
        <lane id=":40_0_0" index="0" disallow="pedestrian tram rail_urban rail rail_electric rail_fast ship" speed="11.11" length="28.81" width="3.50" shape="-732.98,579.39 -736.30,579.44 -738.50,579.69 -740.66,580.18 -742.74,580.95 -743.73,581.45 -744.68,582.02 -745.57,582.68 -746.40,583.42 -747.15,584.23 -747.84,585.10 -748.44,586.03 -749.42,588.02 -750.13,590.12 -750.59,592.28 -750.86,594.48 -750.96,596.70"/>
    </edge>
    <edge id=":40_1" function="internal">
        <lane id=":40_1_0" index="0" disallow="pedestrian tram rail_urban rail rail_electric rail_fast ship" speed="36.11" length="38.92" width="3.50" shape="-732.98,579.39 -752.40,578.60 -771.86,577.69"/>
    </edge>
    <edge id=":40_2" function="internal">
        <lane id=":40_2_0" index="0" disallow="pedestrian tram rail_urban rail rail_electric rail_fast ship" speed="36.11" length="38.79" width="3.50" shape="-771.62,574.20 -752.23,575.10 -732.87,575.89"/>
    </edge>
    <edge id=":40_3" function="internal">
        <lane id=":40_3_0" index="0" disallow="pedestrian tram rail_urban rail rail_electric rail_fast ship" speed="12.52" length="34.66" width="3.50" shape="-771.62,574.20 -767.79,574.64 -765.28,575.18 -762.84,575.96 -760.50,577.01 -758.32,578.38 -757.32,579.18 -756.38,580.06 -755.52,581.01 -754.73,582.02 -753.40,584.22 -752.40,586.58 -751.69,589.05 -751.24,591.57 -750.96,595.41 -750.96,596.70"/>
    </edge>
    <edge id=":40_4" function="internal">
        <lane id=":40_4_0" index="0" disallow="pedestrian tram rail_urban rail rail_electric rail_fast ship" speed="11.54" length="29.28" width="3.50" shape="-754.46,596.65 -754.46,595.56 -754.70,592.17 -755.08,590.02 -755.68,587.94 -756.51,585.97 -757.62,584.14 -758.24,583.35 -758.94,582.57 -759.71,581.86 -760.50,581.22 -762.31,580.08 -764.27,579.20 -766.34,578.53 -768.48,578.07 -771.86,577.69"/>
    </edge>
    <edge id=":40_5" function="internal">
        <lane id=":40_5_0" index="0" disallow="pedestrian tram rail_urban rail rail_electric rail_fast ship" speed="12.11" length="34.46" width="3.50" shape="-754.46,596.65 -754.34,594.09 -754.03,591.53 -753.48,588.97 -752.63,586.45 -751.45,584.07 -750.69,582.90 -749.84,581.82 -748.90,580.81 -747.87,579.90 -746.76,579.08 -745.59,578.37 -744.35,577.75 -741.86,576.84 -739.28,576.25 -736.68,575.95 -732.87,575.89"/>
    </edge>

    <edge id="2708" from="38" to="15" priority="3" type="highway.residential" spreadType="center" length="70.00" shape="-662.51,651.48 -572.81,655.28">
        <lane id="2708_0" index="0" disallow="pedestrian tram rail_urban rail rail_electric rail_fast ship" speed="36.11" length="70.00" width="3.50" customShape="1" shape="-642.74,652.21 -572.81,655.28"/>
    </edge>
    <edge id="2709" from="23" to="38" priority="3" type="highway.residential" spreadType="center" length="70.01" shape="-572.96,658.78 -662.66,654.98">
        <lane id="2709_0" index="0" disallow="pedestrian tram rail_urban rail rail_electric rail_fast ship" speed="36.11" length="70.01" width="3.50" customShape="1" shape="-572.96,658.78 -642.90,655.71"/>
    </edge>
    <edge id="2711" from="39" to="38" priority="3" type="highway.residential" spreadType="center" length="52.06" shape="-753.15,643.32 -662.39,651.49">
        <lane id="2711_0" index="0" disallow="pedestrian tram rail_urban rail rail_electric rail_fast ship" speed="36.11" length="52.06" width="3.50" customShape="1" shape="-733.88,650.17 -707.89,650.60 -681.83,651.03"/>
    </edge>
    <edge id="2712" from="38" to="39" priority="3" type="highway.residential" spreadType="center" length="52.08" shape="-662.71,654.97 -753.47,646.81">
        <lane id="2712_0" index="0" disallow="pedestrian tram rail_urban rail rail_electric rail_fast ship" speed="36.11" length="52.08" width="3.50" customShape="1" shape="-681.90,654.53 -707.94,654.10 -733.97,653.67"/>
    </edge>
    <edge id="2714" from="35" to="39" priority="3" type="highway.residential" spreadType="center" length="70.07" shape="-842.56,645.86 -753.29,643.32">
        <lane id="2714_0" index="0" disallow="pedestrian tram rail_urban rail rail_electric rail_fast ship" speed="36.11" length="70.07" width="3.50" customShape="1" shape="-842.56,645.86 -837.72,645.91 -822.07,646.48 -791.82,648.23 -772.58,649.26"/>
    </edge>
    <edge id="2715" from="39" to="30" priority="3" type="highway.residential" spreadType="center" length="70.00" shape="-753.19,646.82 -842.68,649.36">
        <lane id="2715_0" index="0" disallow="pedestrian tram rail_urban rail rail_electric rail_fast ship" speed="36.11" length="70.00" width="3.50" customShape="1" shape="-772.77,652.75 -791.92,651.73 -822.05,649.99 -837.60,649.41 -842.68,649.36"/>
    </edge>
    <edge id="2769" from="40" to="33" priority="3" type="highway.residential" spreadType="center" length="70.00" shape="-752.68,585.16 -841.64,572.16">
        <lane id="2769_0" index="0" disallow="pedestrian tram rail_urban rail rail_electric rail_fast ship" speed="36.11" length="70.00" width="3.50" customShape="1" shape="-771.86,577.69 -784.34,576.83 -822.31,573.62 -841.64,572.16"/>
    </edge>
    <edge id="2770" from="36" to="40" priority="3" type="highway.residential" spreadType="center" length="69.99" shape="-841.39,568.67 -752.17,581.69">
        <lane id="2770_0" index="0" disallow="pedestrian tram rail_urban rail rail_electric rail_fast ship" speed="36.11" length="69.99" width="3.50" customShape="1" shape="-841.39,568.67 -822.27,570.11 -784.15,573.33 -771.62,574.20"/>
    </edge>
    <edge id="2772" from="37" to="40" priority="3" type="highway.residential" spreadType="center" length="52.20" shape="-667.54,581.92 -752.43,585.17">
        <lane id="2772_0" index="0" disallow="pedestrian tram rail_urban rail rail_electric rail_fast ship" speed="36.11" length="52.20" width="3.50" customShape="1" shape="-680.85,581.48 -706.93,580.43 -733.01,579.39"/>
    </edge>
    <edge id="2773" from="40" to="37" priority="3" type="highway.residential" spreadType="center" length="52.20" shape="-752.56,581.67 -667.67,578.43">
        <lane id="2773_0" index="0" disallow="pedestrian tram rail_urban rail rail_electric rail_fast ship" speed="36.11" length="52.20" width="3.50" customShape="1" shape="-732.87,575.89 -706.79,576.94 -680.71,577.98"/>
    </edge>
    <edge id="2815" from="40" to="39" priority="3" type="highway.residential" spreadType="center" length="35.61" shape="-750.71,583.39 -751.53,645.09">
        <lane id="2815_0" index="0" disallow="pedestrian tram rail_urban rail rail_electric rail_fast ship" speed="36.11" length="35.61" width="3.50" customShape="1" shape="-750.96,596.70 -751.20,614.50 -751.45,632.31"/>
    </edge>
    <edge id="2816" from="39" to="40" priority="3" type="highway.residential" spreadType="center" length="35.62" shape="-755.03,645.05 -754.20,583.35">
        <lane id="2816_0" index="0" disallow="pedestrian tram rail_urban rail rail_electric rail_fast ship" speed="36.11" length="35.62" width="3.50" customShape="1" shape="-754.95,632.26 -754.70,614.46 -754.46,596.64"/>
    </edge>
    <edge id="3826" from="37" to="17" priority="3" type="highway.residential" spreadType="center" length="41.01" shape="-669.34,579.94 -659.31,520.24">
        <lane id="3826_0" index="0" disallow="pedestrian tram rail_urban rail rail_electric rail_fast ship" speed="36.11" length="41.01" width="3.50" customShape="1" shape="-662.01,561.16 -660.66,540.70 -659.31,520.24"/>
    </edge>
    <edge id="3827" from="28" to="37" priority="3" type="highway.residential" spreadType="center" length="41.04" shape="-655.82,520.46 -665.89,580.51">
        <lane id="3827_0" index="0" disallow="pedestrian tram rail_urban rail rail_electric rail_fast ship" speed="36.11" length="41.04" width="3.50" customShape="1" shape="-655.82,520.46 -657.17,540.93 -658.52,561.41"/>
    </edge>
    <edge id="3829" from="38" to="37" priority="3" type="highway.residential" spreadType="center" length="34.07" shape="-664.29,653.39 -669.35,580.30">
        <lane id="3829_0" index="0" disallow="pedestrian tram rail_urban rail rail_electric rail_fast ship" speed="36.11" length="34.07" width="3.50" customShape="1" shape="-663.89,633.55 -663.70,616.53 -663.50,599.48"/>
    </edge>
    <edge id="3830" from="37" to="38" priority="3" type="highway.residential" spreadType="center" length="34.08" shape="-665.86,580.05 -660.80,653.15">
        <lane id="3830_0" index="0" disallow="pedestrian tram rail_urban rail rail_electric rail_fast ship" speed="36.11" length="34.08" width="3.50" customShape="1" shape="-660.00,599.52 -660.20,616.57 -660.39,633.60"/>
    </edge>
    <edge id="3832" from="27" to="38" priority="3" type="highway.residential" spreadType="center" length="50.61" shape="-667.71,723.06 -664.29,653.10">
        <lane id="3832_0" index="0" disallow="pedestrian tram rail_urban rail rail_electric rail_fast ship" speed="36.11" length="50.61" width="3.50" customShape="1" shape="-667.71,723.06 -666.41,697.79 -665.12,672.52"/>
    </edge>
    <edge id="3833" from="38" to="14" priority="3" type="highway.residential" spreadType="center" length="50.60" shape="-660.80,653.27 -664.21,723.23">
        <lane id="3833_0" index="0" disallow="pedestrian tram rail_urban rail rail_electric rail_fast ship" speed="36.11" length="50.60" width="3.50" customShape="1" shape="-661.62,672.70 -662.92,697.97 -664.21,723.23"/>
    </edge>

    <junction id="14" type="dead_end" x="-664.21" y="723.23" incLanes="3833_0" intLanes="" shape="-662.47,723.32 -665.96,723.14" rightOfWay="edgePriority"/>
    <junction id="15" type="dead_end" x="-572.81" y="655.28" incLanes="2708_0" intLanes="" shape="-572.73,653.54 -572.88,657.03" rightOfWay="edgePriority"/>
    <junction id="17" type="dead_end" x="-659.31" y="520.24" incLanes="3826_0" intLanes="" shape="-661.06,520.12 -657.57,520.35" rightOfWay="edgePriority"/>
    <junction id="23" type="dead_end" x="-572.96" y="658.78" incLanes="" intLanes="" shape="-572.89,657.03 -573.04,660.53" rightOfWay="edgePriority"/>
    <junction id="27" type="dead_end" x="-667.71" y="723.06" incLanes="" intLanes="" shape="-665.96,723.14 -669.46,722.97" rightOfWay="edgePriority"/>
    <junction id="28" type="dead_end" x="-655.82" y="520.46" incLanes="" intLanes="" shape="-657.57,520.35 -654.07,520.58" rightOfWay="edgePriority"/>
    <junction id="30" type="dead_end" x="-842.68" y="649.36" incLanes="2715_0" intLanes="" shape="-842.70,651.11 -842.66,647.61" rightOfWay="edgePriority"/>
    <junction id="33" type="dead_end" x="-841.64" y="572.16" incLanes="2769_0" intLanes="" shape="-841.77,573.90 -841.50,570.41" rightOfWay="edgePriority"/>
    <junction id="35" type="dead_end" x="-842.56" y="645.86" incLanes="" intLanes="" shape="-842.58,647.61 -842.54,644.11" rightOfWay="edgePriority"/>
    <junction id="36" type="dead_end" x="-841.39" y="568.67" incLanes="" intLanes="" shape="-841.53,570.41 -841.26,566.92" rightOfWay="edgePriority"/>
    <junction id="37" type="priority" x="-667.60" y="580.18" incLanes="3829_0 3827_0 2773_0" intLanes=":37_0_0 :37_1_0 :37_2_0 :37_3_0 :37_4_0 :37_5_0" shape="-665.25,599.46 -658.25,599.54 -656.77,561.51 -663.76,561.05 -664.52,565.86 -666.10,569.77 -668.50,572.75 -671.73,574.83 -675.77,575.99 -680.64,576.23 -680.92,583.22 -676.09,583.85 -672.14,585.31 -669.08,587.60 -666.91,590.72 -665.64,594.67">
        <request index="0" response="000000" foes="001000" cont="0"/>
        <request index="1" response="000000" foes="111000" cont="0"/>
        <request index="2" response="000000" foes="100000" cont="0"/>
        <request index="3" response="000011" foes="100011" cont="0"/>
        <request index="4" response="000010" foes="000010" cont="0"/>
        <request index="5" response="001110" foes="001110" cont="0"/>
    </junction>
    <junction id="38" type="priority" x="-662.55" y="653.23" incLanes="2709_0 3830_0 2711_0 3832_0" intLanes=":38_0_0 :38_1_0 :38_2_0 :38_3_0 :38_4_0 :38_5_0 :38_6_0 :38_7_0 :38_8_0 :38_9_0 :38_10_0 :38_11_0" shape="-642.97,657.45 -642.66,650.46 -647.60,649.80 -651.62,648.27 -654.74,645.89 -656.95,642.66 -658.25,638.56 -658.64,633.61 -665.64,633.53 -666.14,638.42 -667.52,642.40 -669.78,645.47 -672.91,647.65 -676.92,648.91 -681.81,649.28 -681.92,656.27 -677.10,656.80 -673.20,658.19 -670.22,660.44 -668.17,663.57 -667.06,667.56 -666.86,672.43 -659.88,672.79 -659.18,667.90 -657.63,663.95 -655.24,660.93 -652.00,658.84 -647.91,657.68">
        <request index="0" response="000000000000" foes="000100010000" cont="0"/>
        <request index="1" response="000000000000" foes="111100110000" cont="0"/>
        <request index="2" response="000011000000" foes="110011110000" cont="0"/>
        <request index="3" response="000010000000" foes="100010000000" cont="0"/>
        <request index="4" response="000110000111" foes="100110000111" cont="0"/>
        <request index="5" response="011110000110" foes="011110000110" cont="0"/>
        <request index="6" response="000000000000" foes="010000000100" cont="0"/>
        <request index="7" response="000000000000" foes="110000111100" cont="0"/>
        <request index="8" response="000000000011" foes="110000110011" cont="0"/>
        <request index="9" response="000000000010" foes="000000100010" cont="0"/>
        <request index="10" response="000111000110" foes="000111100110" cont="0"/>
        <request index="11" response="000110011110" foes="000110011110" cont="0"/>
    </junction>
    <junction id="39" type="priority" x="-753.28" y="645.07" incLanes="2712_0 2815_0 2714_0" intLanes=":39_0_0 :39_1_0 :39_2_0 :39_3_0 :39_4_0 :39_5_0" shape="-733.97,655.42 -733.85,648.42 -738.75,647.90 -742.75,646.52 -745.84,644.27 -748.03,641.15 -749.32,637.18 -749.70,632.33 -756.70,632.24 -757.20,637.14 -758.55,641.10 -760.75,644.11 -763.81,646.19 -767.72,647.32 -772.49,647.51 -772.86,654.50">
        <request index="0" response="000000" foes="001000" cont="0"/>
        <request index="1" response="110000" foes="111000" cont="0"/>
        <request index="2" response="100000" foes="100000" cont="0"/>
        <request index="3" response="100011" foes="100011" cont="0"/>
        <request index="4" response="000000" foes="000010" cont="0"/>
        <request index="5" response="000000" foes="001110" cont="0"/>
    </junction>