<routes>
	<vehicle depart="0.1" departLane="0" departPos="24.575610927667544" departSpeed="2.5085755" id="317" type="passenger">
		<route edges=":70_2 3629"/>
	</vehicle>
	<vehicle depart="0.1" departLane="0" departPos="5.923266222536874" departSpeed="9.7400282" id="351" type="passenger">
		<route edges="3902 3793"/>
	</vehicle>
	<vehicle depart="0.1" departLane="0" departPos="15.167161919860847" departSpeed="1.3161628" id="398" type="passenger">
		<route edges="3901 3898"/>
	</vehicle>
	<vehicle depart="0.1" departLane="0" departPos="41.270853157934845" departSpeed="0.26980807" id="3101" type="passenger">
		<route edges=":70_4 3901 3898"/>
	</vehicle>
	<vehicle depart="0.1" departLane="0" departPos="67.58702249371653" departSpeed="3.2401839" id="3106" type="passenger">
		<route edges="3628 3901 3898"/>
	</vehicle>
	<vehicle depart="0.1" departLane="0" departPos="45.380101270439454" departSpeed="0.32133388" id="3110" type="passenger">
		<route edges="3628 3338"/>
	</vehicle>
	<vehicle depart="0.1" departLane="0" departPos="49.8971970179831" departSpeed="2.2645481" id="3111" type="passenger">
		<route edges="3628 3338"/>
	</vehicle>
	<vehicle depart="0.1" departLane="0" departPos="35.24055408696006" departSpeed="0.36819874" id="3114" type="passenger">
		<route edges="3628 3338"/>
	</vehicle>
	<vehicle depart="0.1" departLane="0" departPos="1.25" departSpeed="1.0610209" id="322" type="motorcycle">
		<route edges="3794 3901"/>
	</vehicle>
</routes>
