<routes>
	<vehicle depart="0.1" departLane="0" departPos="18.204812905413775" departSpeed="0.0" id="319" type="passenger">
		<route edges="99 96"/>
	</vehicle>
	<vehicle depart="0.1" departLane="0" departPos="13.37893475253866" departSpeed="1.3118994" id="320" type="passenger">
		<route edges=":30_2 100"/>
	</vehicle>
	<vehicle depart="0.1" departLane="0" departPos="69.90391380072907" departSpeed="0.0" id="321" type="passenger">
		<route edges="422 99"/>
	</vehicle>
	<vehicle depart="0.1" departLane="0" departPos="10.609022912182786" departSpeed="1.9405861" id="351" type="passenger">
		<route edges="100 103"/>
	</vehicle>
	<vehicle depart="0.1" departLane="0" departPos="25.977166372406653" departSpeed="12.995177" id="356" type="passenger">
		<route edges=":30_4 350"/>
	</vehicle>
	<vehicle depart="0.1" departLane="0" departPos="39.94571642305667" departSpeed="12.123307" id="358" type="passenger">
		<route edges="97 350"/>
	</vehicle>
	<vehicle depart="0.1" departLane="0" departPos="17.73573041419329" departSpeed="8.0991396" id="359" type="passenger">
		<route edges="97 100"/>
	</vehicle>
	<vehicle depart="0.1" departLane="0" departPos="62.578744025081086" departSpeed="0.0" id="31" type="truck">
		<route edges="422 99"/>
	</vehicle>
</routes>
