<!-- generated on Tue Feb  9 22:18:36 2021 by Eclipse SUMO netconvert Version 1.8.0
<configuration xmlns:xsi="http://www.w3.org/2001/XMLSchema-instance" xsi:noNamespaceSchemaLocation="http://sumo.dlr.de/xsd/netconvertConfiguration.xsd">

    <input>
        <node-files value="./converted_scenarios/scenario-factory/DEU_Hennigsdorf-1_1_I-1-1/DEU_Hennigsdorf-1_1_I-1-1.nod.xml"/>
        <edge-files value="./converted_scenarios/scenario-factory/DEU_Hennigsdorf-1_1_I-1-1/DEU_Hennigsdorf-1_1_I-1-1.edg.xml"/>
        <connection-files value="./converted_scenarios/scenario-factory/DEU_Hennigsdorf-1_1_I-1-1/DEU_Hennigsdorf-1_1_I-1-1.con.xml"/>
        <tllogic-files value="./converted_scenarios/scenario-factory/DEU_Hennigsdorf-1_1_I-1-1/DEU_Hennigsdorf-1_1_I-1-1.tll.xml"/>
        <type-files value="/home/zen/commonroad-interactive-benchmarks/install/commonroad-map-tool/crmapconverter/sumo_map/templates/DEU.typ.xml"/>
    </input>

    <output>
        <output-file value="./converted_scenarios/scenario-factory/DEU_Hennigsdorf-1_1_I-1-1/DEU_Hennigsdorf-1_1_I-1-1.net.xml"/>
    </output>

    <processing>
        <geometry.remove.keep-edges.explicit value="true"/>
        <geometry.avoid-overlap value="true"/>
        <offset.disable-normalization value="true"/>
    </processing>

    <junctions>
        <no-turnarounds value="true"/>
        <junctions.internal-link-detail value="20"/>
    </junctions>

    <report>
        <aggregate-warnings value="5"/>
    </report>

    <random_number>
        <seed value="1234"/>
    </random_number>

</configuration>
--><net xmlns:xsi="http://www.w3.org/2001/XMLSchema-instance" version="1.6" junctionCornerDetail="5" junctionLinkDetail="20" limitTurnSpeed="5.50" xsi:noNamespaceSchemaLocation="http://sumo.dlr.de/xsd/net_file.xsd">

    <location netOffset="0.00,0.00" convBoundary="231.54,586.94,511.36,775.50" origBoundary="231.54,586.94,511.36,775.50" projParameter="!"/>

    <type id="highway.bridleway" priority="1" speed="2.78" allow="pedestrian" oneway="1" width="2.00"/>
    <type id="highway.bus_guideway" priority="1" speed="27.78" allow="bus" oneway="1"/>
    <type id="highway.cycleway" priority="1" speed="8.33" allow="bicycle" oneway="0" width="1.00"/>
    <type id="highway.footway" priority="1" speed="2.78" allow="pedestrian" oneway="1" width="2.00"/>
    <type id="highway.ford" priority="1" speed="2.78" allow="army" oneway="0"/>
    <type id="highway.living_street" priority="2" speed="2.78" disallow="tram rail_urban rail rail_electric rail_fast ship" oneway="0"/>
    <type id="highway.motorway" priority="14" speed="39.44" allow="private emergency authority army vip passenger hov taxi bus coach delivery truck trailer motorcycle evehicle custom1 custom2" oneway="1"/>
    <type id="highway.motorway_link" priority="9" speed="22.22" allow="private emergency authority army vip passenger hov taxi bus coach delivery truck trailer motorcycle evehicle custom1 custom2" oneway="1"/>
    <type id="highway.path" priority="1" speed="2.78" allow="pedestrian bicycle" oneway="0" width="2.00"/>
    <type id="highway.pedestrian" priority="1" speed="2.78" allow="pedestrian" oneway="1" width="2.00"/>
    <type id="highway.primary" priority="12" speed="27.78" disallow="pedestrian tram rail_urban rail rail_electric rail_fast ship" oneway="0"/>
    <type id="highway.primary_link" priority="7" speed="22.22" disallow="pedestrian tram rail_urban rail rail_electric rail_fast ship" oneway="0"/>
    <type id="highway.raceway" priority="15" speed="83.33" allow="vip" oneway="0"/>
    <type id="highway.residential" priority="3" speed="13.89" disallow="pedestrian tram rail_urban rail rail_electric rail_fast ship" oneway="0"/>
    <type id="highway.secondary" priority="11" speed="27.78" disallow="pedestrian tram rail_urban rail rail_electric rail_fast ship" oneway="0"/>
    <type id="highway.secondary_link" priority="6" speed="22.22" disallow="pedestrian tram rail_urban rail rail_electric rail_fast ship" oneway="0"/>
    <type id="highway.service" priority="1" speed="5.56" allow="pedestrian delivery bicycle" oneway="0"/>
    <type id="highway.stairs" priority="1" speed="1.39" allow="pedestrian" oneway="1" width="2.00"/>
    <type id="highway.step" priority="1" speed="1.39" allow="pedestrian" oneway="1" width="2.00"/>
    <type id="highway.steps" priority="1" speed="1.39" allow="pedestrian" oneway="1" width="2.00"/>
    <type id="highway.tertiary" priority="10" speed="22.22" disallow="pedestrian tram rail_urban rail rail_electric rail_fast ship" oneway="0"/>
    <type id="highway.tertiary_link" priority="5" speed="22.22" disallow="pedestrian tram rail_urban rail rail_electric rail_fast ship" oneway="0"/>
    <type id="highway.track" priority="1" speed="5.56" allow="pedestrian motorcycle moped bicycle" oneway="0"/>
    <type id="highway.trunk" priority="13" speed="27.78" disallow="pedestrian bicycle tram rail_urban rail rail_electric rail_fast ship" oneway="0"/>
    <type id="highway.trunk_link" priority="8" speed="22.22" disallow="pedestrian bicycle tram rail_urban rail rail_electric rail_fast ship" oneway="0"/>
    <type id="highway.unclassified" priority="4" speed="13.89" disallow="pedestrian tram rail_urban rail rail_electric rail_fast ship" oneway="0"/>
    <type id="highway.unsurfaced" priority="1" speed="8.33" disallow="tram rail_urban rail rail_electric rail_fast ship" oneway="0"/>
    <type id="railway.highspeed" priority="21" speed="69.44" allow="rail_fast" oneway="1"/>
    <type id="railway.light_rail" priority="19" speed="27.78" allow="rail_urban" oneway="1"/>
    <type id="railway.preserved" priority="16" speed="27.78" allow="rail" oneway="1"/>
    <type id="railway.rail" priority="20" speed="44.44" allow="rail" oneway="1"/>
    <type id="railway.subway" priority="18" speed="27.78" allow="rail_urban" oneway="1"/>
    <type id="railway.tram" priority="17" speed="13.89" allow="tram" oneway="1"/>

    <edge id=":29_0" function="internal">
        <lane id=":29_0_0" index="0" disallow="pedestrian tram rail_urban rail rail_electric rail_fast ship" speed="36.11" length="38.58" width="3.50" shape="445.12,724.22 438.35,721.50 409.22,710.08"/>
    </edge>
    <edge id=":29_1" function="internal">
        <lane id=":29_1_0" index="0" disallow="pedestrian tram rail_urban rail rail_electric rail_fast ship" speed="12.28" length="34.00" width="3.50" shape="445.12,724.22 442.80,723.19 440.55,721.97 438.40,720.54 436.40,718.84 434.64,716.89 433.84,715.76 433.15,714.60 432.56,713.38 432.08,712.12 431.71,710.82 431.44,709.51 431.28,708.16 431.23,705.55 431.50,702.96 432.02,700.44 433.16,696.82"/>
    </edge>
    <edge id=":29_2" function="internal">
        <lane id=":29_2_0" index="0" disallow="pedestrian tram rail_urban rail rail_electric rail_fast ship" speed="11.28" length="28.52" width="3.50" shape="436.44,698.04 435.45,701.18 435.01,703.33 434.78,705.51 434.82,707.70 434.95,708.79 435.17,709.86 435.47,710.92 435.86,711.94 436.34,712.93 436.89,713.88 437.53,714.77 438.99,716.40 440.67,717.82 442.49,719.04 444.42,720.08 446.43,720.97"/>
    </edge>
    <edge id=":29_3" function="internal">
        <lane id=":29_3_0" index="0" disallow="pedestrian tram rail_urban rail rail_electric rail_fast ship" speed="12.14" length="34.24" width="3.50" shape="436.44,698.04 434.87,701.66 433.58,703.96 432.05,706.10 430.26,708.04 429.26,708.90 428.20,709.68 427.07,710.36 425.89,710.94 424.66,711.41 423.40,711.77 422.10,712.02 419.48,712.22 416.85,712.07 414.25,711.62 411.71,710.94 409.22,710.08"/>
    </edge>
    <edge id=":29_4" function="internal">
        <lane id=":29_4_0" index="0" disallow="pedestrian tram rail_urban rail rail_electric rail_fast ship" speed="11.13" length="28.63" width="3.50" shape="410.46,706.81 412.64,707.57 414.84,708.15 417.04,708.54 419.23,708.67 421.42,708.50 422.43,708.30 423.45,708.01 424.43,707.64 425.37,707.18 426.28,706.63 427.13,706.01 427.92,705.33 429.42,703.72 430.70,701.92 431.79,699.97 433.16,696.82"/>
    </edge>
    <edge id=":29_5" function="internal">
        <lane id=":29_5_0" index="0" disallow="pedestrian tram rail_urban rail rail_electric rail_fast ship" speed="36.11" length="38.66" width="3.50" shape="410.46,706.81 439.64,718.25 446.43,720.97"/>
    </edge>
    <edge id=":30_0" function="internal">
        <lane id=":30_0_0" index="0" disallow="pedestrian tram rail_urban rail rail_electric rail_fast ship" speed="36.11" length="38.26" width="3.50" shape="329.83,679.63 313.34,673.53 296.72,667.79 293.78,666.82"/>
    </edge>
    <edge id=":30_1" function="internal">
        <lane id=":30_1_0" index="0" disallow="pedestrian tram rail_urban rail rail_electric rail_fast ship" speed="12.21" length="33.78" width="3.50" shape="329.83,679.63 327.52,678.65 325.26,677.49 323.09,676.11 321.06,674.47 319.27,672.57 318.45,671.48 317.74,670.34 317.12,669.15 316.61,667.91 316.21,666.63 315.91,665.32 315.72,663.98 315.62,661.39 315.84,658.81 316.31,656.29 317.39,652.68"/>
    </edge>
    <edge id=":30_2" function="internal">
        <lane id=":30_2_0" index="0" disallow="pedestrian tram rail_urban rail rail_electric rail_fast ship" speed="11.21" length="28.29" width="3.50" shape="320.68,653.85 319.75,656.98 319.35,659.12 319.17,661.28 319.25,663.46 319.41,664.53 319.65,665.60 319.98,666.63 320.39,667.64 320.89,668.61 321.47,669.53 322.12,670.40 323.61,671.98 325.30,673.35 327.14,674.52 329.08,675.52 331.08,676.36"/>
    </edge>
    <edge id=":30_3" function="internal">
        <lane id=":30_3_0" index="0" disallow="pedestrian tram rail_urban rail rail_electric rail_fast ship" speed="12.28" length="34.07" width="3.50" shape="320.68,653.85 319.17,657.48 317.92,659.78 316.43,661.94 314.69,663.89 313.71,664.77 312.67,665.57 311.57,666.28 310.41,666.89 309.21,667.40 307.96,667.81 306.68,668.11 304.08,668.43 301.46,668.41 298.86,668.10 296.30,667.55 293.78,666.82"/>
    </edge>
    <edge id=":30_4" function="internal">
        <lane id=":30_4_0" index="0" disallow="pedestrian tram rail_urban rail rail_electric rail_fast ship" speed="11.29" length="28.60" width="3.50" shape="294.85,663.49 297.06,664.13 299.28,664.61 301.49,664.87 303.69,664.90 305.86,664.63 306.87,664.39 307.88,664.06 308.85,663.65 309.78,663.16 310.67,662.59 311.51,661.94 312.29,661.25 313.76,659.61 315.01,657.79 316.07,655.84 317.39,652.68"/>
    </edge>
    <edge id=":30_5" function="internal">
        <lane id=":30_5_0" index="0" disallow="pedestrian tram rail_urban rail rail_electric rail_fast ship" speed="36.11" length="38.45" width="3.50" shape="294.85,663.49 297.84,664.47 314.52,670.24 331.08,676.36"/>
    </edge>
    <edge id=":31_0" function="internal">
        <lane id=":31_0_0" index="0" disallow="pedestrian tram rail_urban rail rail_electric rail_fast ship" speed="11.16" length="28.47" width="3.50" shape="382.78,699.89 379.66,698.88 377.52,698.42 375.34,698.21 373.15,698.27 372.06,698.43 371.00,698.67 369.95,699.00 368.94,699.42 367.97,699.93 367.05,700.53 366.18,701.19 364.60,702.71 363.24,704.42 362.07,706.27 361.07,708.22 360.21,710.24"/>
    </edge>
    <edge id=":31_1" function="internal">
        <lane id=":31_1_0" index="0" disallow="pedestrian tram rail_urban rail rail_electric rail_fast ship" speed="36.11" length="38.41" width="3.50" shape="382.78,699.89 364.87,693.02 346.92,686.14"/>
    </edge>
    <edge id=":31_2" function="internal">
        <lane id=":31_2_0" index="0" disallow="pedestrian tram rail_urban rail rail_electric rail_fast ship" speed="36.11" length="38.38" width="3.50" shape="348.17,682.87 366.12,689.75 384.01,696.61"/>
    </edge>
    <edge id=":31_3" function="internal">
        <lane id=":31_3_0" index="0" disallow="pedestrian tram rail_urban rail rail_electric rail_fast ship" speed="12.19" length="34.35" width="3.50" shape="348.17,682.87 351.82,684.49 354.11,685.80 356.25,687.34 358.18,689.15 359.04,690.15 359.82,691.22 360.50,692.35 361.08,693.53 361.55,694.77 361.91,696.04 362.16,697.33 362.37,699.96 362.21,702.60 361.76,705.20 361.08,707.75 360.21,710.24"/>
    </edge>
    <edge id=":31_4" function="internal">
        <lane id=":31_4_0" index="0" disallow="pedestrian tram rail_urban rail rail_electric rail_fast ship" speed="11.18" length="28.74" width="3.50" shape="356.95,708.97 357.71,706.80 358.30,704.61 358.68,702.40 358.81,700.20 358.64,698.00 358.44,696.99 358.15,695.97 357.77,694.98 357.31,694.03 356.77,693.13 356.14,692.27 355.46,691.47 353.85,689.96 352.05,688.66 350.11,687.55 346.92,686.14"/>
    </edge>
    <edge id=":31_5" function="internal">
        <lane id=":31_5_0" index="0" disallow="pedestrian tram rail_urban rail rail_electric rail_fast ship" speed="12.16" length="34.01" width="3.50" shape="356.95,708.97 357.94,706.65 359.11,704.38 360.49,702.20 362.13,700.15 364.02,698.34 365.11,697.50 366.25,696.77 367.45,696.14 368.70,695.62 370.00,695.21 371.31,694.92 372.67,694.73 375.29,694.66 377.89,694.92 380.43,695.45 384.01,696.61"/>
    </edge>

    <edge id="100" from="30" to="31" priority="3" type="highway.residential" spreadType="center" length="18.32" shape="315.56,664.01 364.18,696.03">
        <lane id="100_0" index="0" disallow="pedestrian tram rail_urban rail rail_electric rail_fast ship" speed="36.11" length="18.32" width="3.50" customShape="1" shape="331.08,676.36 339.64,679.62 348.20,682.88"/>
    </edge>
    <edge id="102" from="29" to="31" priority="3" type="highway.residential" spreadType="center" length="28.37" shape="429.82,711.21 362.83,699.17">
        <lane id="102_0" index="0" disallow="pedestrian tram rail_urban rail rail_electric rail_fast ship" speed="36.11" length="28.37" width="3.50" customShape="1" shape="409.22,710.08 396.00,704.98 382.75,699.88"/>
    </edge>
    <edge id="103" from="31" to="29" priority="3" type="highway.residential" spreadType="center" length="28.36" shape="363.44,695.73 430.44,707.76">
        <lane id="103_0" index="0" disallow="pedestrian tram rail_urban rail rail_electric rail_fast ship" speed="36.11" length="28.36" width="3.50" customShape="1" shape="384.01,696.61 397.26,701.72 410.47,706.81"/>
    </edge>
    <edge id="105" from="28" to="29" priority="3" type="highway.residential" spreadType="center" length="70.00" shape="510.04,750.35 429.34,711.04">
        <lane id="105_0" index="0" disallow="pedestrian tram rail_urban rail rail_electric rail_fast ship" speed="36.11" length="70.00" width="3.50" customShape="1" shape="510.04,750.35 480.50,738.46 445.10,724.21"/>
    </edge>
    <edge id="106" from="29" to="21" priority="3" type="highway.residential" spreadType="center" length="69.99" shape="430.87,707.90 511.36,747.11">
        <lane id="106_0" index="0" disallow="pedestrian tram rail_urban rail rail_electric rail_fast ship" speed="36.11" length="69.99" width="3.50" customShape="1" shape="446.43,720.97 481.80,735.21 511.36,747.11"/>
    </edge>
    <edge id="334" from="26" to="29" priority="3" type="highway.residential" spreadType="center" length="70.00" shape="460.79,632.41 431.76,710.13">
        <lane id="334_0" index="0" disallow="pedestrian tram rail_urban rail rail_electric rail_fast ship" speed="36.11" length="70.00" width="3.50" customShape="1" shape="460.79,632.41 436.44,698.04"/>
    </edge>
    <edge id="335" from="29" to="22" priority="3" type="highway.residential" spreadType="center" length="70.00" shape="428.48,708.91 457.51,631.19">
        <lane id="335_0" index="0" disallow="pedestrian tram rail_urban rail rail_electric rail_fast ship" speed="36.11" length="70.00" width="3.50" customShape="1" shape="433.16,696.82 457.51,631.19"/>
    </edge>
    <edge id="349" from="25" to="30" priority="3" type="highway.residential" spreadType="center" length="70.01" shape="344.73,588.11 316.23,666.10">
        <lane id="349_0" index="0" disallow="pedestrian tram rail_urban rail rail_electric rail_fast ship" speed="36.11" length="70.01" width="3.50" customShape="1" shape="344.73,588.11 341.66,595.93 334.60,614.85 320.68,653.85"/>
    </edge>
    <edge id="350" from="30" to="19" priority="3" type="highway.residential" spreadType="center" length="70.00" shape="312.94,664.90 341.43,586.94">
        <lane id="350_0" index="0" disallow="pedestrian tram rail_urban rail rail_electric rail_fast ship" speed="36.11" length="70.00" width="3.50" customShape="1" shape="317.39,652.68 331.31,613.66 338.38,594.71 341.43,586.94"/>
    </edge>
    <edge id="421" from="31" to="9" priority="3" type="highway.residential" spreadType="center" length="70.00" shape="364.82,698.05 334.90,775.50">
        <lane id="421_0" index="0" disallow="pedestrian tram rail_urban rail rail_electric rail_fast ship" speed="36.11" length="70.00" width="3.50" customShape="1" shape="360.21,710.24 336.77,770.69 334.90,775.50"/>
    </edge>
    <edge id="422" from="13" to="31" priority="3" type="highway.residential" spreadType="center" length="70.01" shape="331.64,774.24 361.56,696.79">
        <lane id="422_0" index="0" disallow="pedestrian tram rail_urban rail rail_electric rail_fast ship" speed="36.11" length="70.01" width="3.50" customShape="1" shape="331.64,774.24 333.50,769.42 356.95,708.97"/>
    </edge>
    <edge id="96" from="30" to="20" priority="3" type="highway.residential" spreadType="center" length="66.18" shape="314.17,667.16 231.54,644.35">
        <lane id="96_0" index="0" disallow="pedestrian tram rail_urban rail rail_electric rail_fast ship" speed="36.11" length="66.18" width="3.50" customShape="1" shape="293.78,666.82 290.42,665.72 271.74,659.43 255.58,653.59 231.54,644.35"/>
    </edge>
    <edge id="97" from="27" to="30" priority="3" type="highway.residential" spreadType="center" length="65.97" shape="232.83,641.10 315.10,663.79">
        <lane id="97_0" index="0" disallow="pedestrian tram rail_urban rail rail_electric rail_fast ship" speed="36.11" length="65.97" width="3.50" customShape="1" shape="232.83,641.10 256.79,650.31 272.89,656.12 291.52,662.39 294.87,663.49"/>
    </edge>
    <edge id="99" from="31" to="30" priority="3" type="highway.residential" spreadType="center" length="18.30" shape="362.26,698.95 313.64,666.93">
        <lane id="99_0" index="0" disallow="pedestrian tram rail_urban rail rail_electric rail_fast ship" speed="36.11" length="18.30" width="3.50" customShape="1" shape="346.92,686.14 338.40,682.89 329.82,679.62"/>
    </edge>

    <junction id="13" type="dead_end" x="331.64" y="774.24" incLanes="" intLanes="" shape="333.27,774.87 330.01,773.61" rightOfWay="edgePriority"/>
    <junction id="19" type="dead_end" x="341.43" y="586.94" incLanes="350_0" intLanes="" shape="339.80,586.30 343.06,587.58" rightOfWay="edgePriority"/>
    <junction id="20" type="dead_end" x="231.54" y="644.35" incLanes="96_0" intLanes="" shape="230.91,645.99 232.17,642.72" rightOfWay="edgePriority"/>
    <junction id="21" type="dead_end" x="511.36" y="747.11" incLanes="106_0" intLanes="" shape="512.01,745.49 510.71,748.74" rightOfWay="edgePriority"/>
    <junction id="22" type="dead_end" x="457.51" y="631.19" incLanes="335_0" intLanes="" shape="455.87,630.58 459.15,631.80" rightOfWay="edgePriority"/>
    <junction id="25" type="dead_end" x="344.73" y="588.11" incLanes="" intLanes="" shape="343.10,587.47 346.36,588.75" rightOfWay="edgePriority"/>
    <junction id="26" type="dead_end" x="460.79" y="632.41" incLanes="" intLanes="" shape="459.15,631.80 462.43,633.02" rightOfWay="edgePriority"/>
    <junction id="27" type="dead_end" x="232.83" y="641.10" incLanes="" intLanes="" shape="232.20,642.73 233.45,639.47" rightOfWay="edgePriority"/>
    <junction id="28" type="dead_end" x="510.04" y="750.35" incLanes="" intLanes="" shape="510.69,748.73 509.38,751.97" rightOfWay="edgePriority"/>
    <junction id="29" type="priority" x="430.13" y="709.49" incLanes="105_0 334_0 103_0" intLanes=":29_0_0 :29_1_0 :29_2_0 :29_3_0 :29_4_0 :29_5_0" shape="444.47,725.84 447.08,719.35 442.80,717.15 439.63,714.45 437.57,711.25 436.62,707.55 436.79,703.35 438.08,698.64 431.52,696.21 429.43,700.55 426.82,703.75 423.68,705.82 420.01,706.74 415.82,706.53 411.10,705.18 408.59,711.71">
        <request index="0" response="000000" foes="001000" cont="0"/>
        <request index="1" response="110000" foes="111000" cont="0"/>
        <request index="2" response="100000" foes="100000" cont="0"/>
        <request index="3" response="100011" foes="100011" cont="0"/>
        <request index="4" response="000000" foes="000010" cont="0"/>
        <request index="5" response="000000" foes="001110" cont="0"/>
    </junction>
    <junction id="30" type="priority" x="314.60" y="665.47" incLanes="99_0 349_0 97_0" intLanes=":30_0_0 :30_1_0 :30_2_0 :30_3_0 :30_4_0 :30_5_0" shape="329.21,681.26 331.70,674.72 327.38,672.61 324.16,669.99 322.05,666.86 321.03,663.23 321.13,659.09 322.33,654.44 315.74,652.09 313.72,656.44 311.15,659.70 308.03,661.87 304.37,662.95 300.17,662.94 295.41,661.83 293.23,668.48">
        <request index="0" response="000000" foes="001000" cont="0"/>
        <request index="1" response="110000" foes="111000" cont="0"/>
        <request index="2" response="100000" foes="100000" cont="0"/>
        <request index="3" response="100011" foes="100011" cont="0"/>
        <request index="4" response="000000" foes="000010" cont="0"/>
        <request index="5" response="000000" foes="001110" cont="0"/>
    </junction>
    <junction id="31" type="priority" x="363.18" y="697.46" incLanes="102_0 100_0 422_0" intLanes=":31_0_0 :31_1_0 :31_2_0 :31_3_0 :31_4_0 :31_5_0" shape="382.13,701.51 384.64,694.98 348.79,681.24 346.30,687.78 350.66,689.92 353.88,692.57 355.95,695.74 356.88,699.42 356.67,703.62 355.31,708.34 361.84,710.87 364.01,706.46 366.67,703.19 369.81,701.06 373.43,700.07 377.54,700.22">
        <request index="0" response="000000" foes="001000" cont="0"/>
        <request index="1" response="000000" foes="111000" cont="0"/>
        <request index="2" response="000000" foes="100000" cont="0"/>
        <request index="3" response="000011" foes="100011" cont="0"/>
        <request index="4" response="000010" foes="000010" cont="0"/>
        <request index="5" response="001110" foes="001110" cont="0"/>
    </junction>
    <junction id="9" type="dead_end" x="334.90" y="775.50" incLanes="421_0" intLanes="" shape="336.53,776.14 333.27,774.87" rightOfWay="edgePriority"/>

    <connection from="100" to="103" fromLane="0" toLane="0" contPos="-4.00" shape="348.20,682.88 366.12,689.75 384.01,696.61" via=":31_2_0" dir="s" state="M"/>
    <connection from="100" to="421" fromLane="0" toLane="0" contPos="-4.00" shape="348.20,682.88 351.82,684.49 354.11,685.80 356.25,687.34 358.18,689.15 359.04,690.15 359.82,691.22 360.50,692.35 361.08,693.53 361.55,694.77 361.91,696.04 362.16,697.33 362.37,699.96 362.21,702.60 361.76,705.20 361.08,707.75 360.21,710.24" via=":31_3_0" dir="l" state="m"/>
    <connection from="102" to="421" fromLane="0" toLane="0" contPos="-4.00" shape="382.78,699.89 379.66,698.88 377.52,698.42 375.34,698.21 373.15,698.27 372.06,698.43 371.00,698.67 369.95,699.00 368.94,699.42 367.97,699.93 367.05,700.53 366.18,701.19 364.60,702.71 363.24,704.42 362.07,706.27 361.07,708.22 360.21,710.24" via=":31_0_0" dir="r" state="M"/>
    <connection from="102" to="99" fromLane="0" toLane="0" contPos="-4.00" shape="382.78,699.89 364.87,693.02 346.92,686.14" via=":31_1_0" dir="s" state="M"/>
    <connection from="103" to="335" fromLane="0" toLane="0" contPos="-4.00" shape="410.46,706.81 412.64,707.57 414.84,708.15 417.04,708.54 419.23,708.67 421.42,708.50 422.43,708.30 423.45,708.01 424.43,707.64 425.37,707.18 426.28,706.63 427.13,706.01 427.92,705.33 429.42,703.72 430.70,701.92 431.79,699.97 433.16,696.82" via=":29_4_0" dir="r" state="M"/>
    <connection from="103" to="106" fromLane="0" toLane="0" contPos="-4.00" shape="410.46,706.81 439.64,718.25 446.43,720.97" via=":29_5_0" dir="s" state="M"/>
    <connection from="105" to="102" fromLane="0" toLane="0" contPos="-4.00" shape="445.10,724.21 438.35,721.50 409.22,710.08" via=":29_0_0" dir="s" state="M"/>
    <connection from="105" to="335" fromLane="0" toLane="0" contPos="-4.00" shape="445.10,724.21 442.80,723.19 440.55,721.97 438.40,720.54 436.40,718.84 434.64,716.89 433.84,715.76 433.15,714.60 432.56,713.38 432.08,712.12 431.71,710.82 431.44,709.51 431.28,708.16 431.23,705.55 431.50,702.96 432.02,700.44 433.16,696.82" via=":29_1_0" dir="l" state="m"/>
    <connection from="334" to="106" fromLane="0" toLane="0" contPos="-4.00" shape="436.44,698.04 435.45,701.18 435.01,703.33 434.78,705.51 434.82,707.70 434.95,708.79 435.17,709.86 435.47,710.92 435.86,711.94 436.34,712.93 436.89,713.88 437.53,714.77 438.99,716.40 440.67,717.82 442.49,719.04 444.42,720.08 446.43,720.97" via=":29_2_0" dir="r" state="m"/>
    <connection from="334" to="102" fromLane="0" toLane="0" contPos="-4.00" shape="436.44,698.04 434.87,701.66 433.58,703.96 432.05,706.10 430.26,708.04 429.26,708.90 428.20,709.68 427.07,710.36 425.89,710.94 424.66,711.41 423.40,711.77 422.10,712.02 419.48,712.22 416.85,712.07 414.25,711.62 411.71,710.94 409.22,710.08" via=":29_3_0" dir="l" state="m"/>
    <connection from="349" to="100" fromLane="0" toLane="0" contPos="-4.00" shape="320.68,653.85 319.75,656.98 319.35,659.12 319.17,661.28 319.25,663.46 319.41,664.53 319.65,665.60 319.98,666.63 320.39,667.64 320.89,668.61 321.47,669.53 322.12,670.40 323.61,671.98 325.30,673.35 327.14,674.52 329.08,675.52 331.08,676.36" via=":30_2_0" dir="r" state="m"/>
    <connection from="349" to="96" fromLane="0" toLane="0" contPos="-4.00" shape="320.68,653.85 319.17,657.48 317.92,659.78 316.43,661.94 314.69,663.89 313.71,664.77 312.67,665.57 311.57,666.28 310.41,666.89 309.21,667.40 307.96,667.81 306.68,668.11 304.08,668.43 301.46,668.41 298.86,668.10 296.30,667.55 293.78,666.82" via=":30_3_0" dir="l" state="m"/>
    <connection from="422" to="99" fromLane="0" toLane="0" contPos="-4.00" shape="356.95,708.97 357.71,706.80 358.30,704.61 358.68,702.40 358.81,700.20 358.64,698.00 358.44,696.99 358.15,695.97 357.77,694.98 357.31,694.03 356.77,693.13 356.14,692.27 355.46,691.47 353.85,689.96 352.05,688.66 350.11,687.55 346.92,686.14" via=":31_4_0" dir="r" state="m"/>
    <connection from="422" to="103" fromLane="0" toLane="0" contPos="-4.00" shape="356.95,708.97 357.94,706.65 359.11,704.38 360.49,702.20 362.13,700.15 364.02,698.34 365.11,697.50 366.25,696.77 367.45,696.14 368.70,695.62 370.00,695.21 371.31,694.92 372.67,694.73 375.29,694.66 377.89,694.92 380.43,695.45 384.01,696.61" via=":31_5_0" dir="l" state="m"/>
    <connection from="97" to="350" fromLane="0" toLane="0" contPos="-4.00" shape="294.85,663.49 297.06,664.13 299.28,664.61 301.49,664.87 303.69,664.90 305.86,664.63 306.87,664.39 307.88,664.06 308.85,663.65 309.78,663.16 310.67,662.59 311.51,661.94 312.29,661.25 313.76,659.61 315.01,657.79 316.07,655.84 317.39,652.68" via=":30_4_0" dir="r" state="M"/>
    <connection from="97" to="100" fromLane="0" toLane="0" contPos="-4.00" shape="294.85,663.49 297.84,664.47 314.52,670.24 331.08,676.36" via=":30_5_0" dir="s" state="M"/>
    <connection from="99" to="96" fromLane="0" toLane="0" contPos="-4.00" shape="329.82,679.62 313.34,673.53 296.72,667.79 293.78,666.82" via=":30_0_0" dir="s" state="M"/>
    <connection from="99" to="350" fromLane="0" toLane="0" contPos="-4.00" shape="329.82,679.62 327.52,678.65 325.26,677.49 323.09,676.11 321.06,674.47 319.27,672.57 318.45,671.48 317.74,670.34 317.12,669.15 316.61,667.91 316.21,666.63 315.91,665.32 315.72,663.98 315.62,661.39 315.84,658.81 316.31,656.29 317.39,652.68" via=":30_1_0" dir="l" state="m"/>

    <connection from=":29_0" to="102" fromLane="0" toLane="0" dir="s" state="M"/>
    <connection from=":29_1" to="335" fromLane="0" toLane="0" dir="l" state="M"/>
    <connection from=":29_2" to="106" fromLane="0" toLane="0" dir="r" state="M"/>
    <connection from=":29_3" to="102" fromLane="0" toLane="0" dir="l" state="M"/>
    <connection from=":29_4" to="335" fromLane="0" toLane="0" dir="r" state="M"/>
    <connection from=":29_5" to="106" fromLane="0" toLane="0" dir="s" state="M"/>
    <connection from=":30_0" to="96" fromLane="0" toLane="0" dir="s" state="M"/>
    <connection from=":30_1" to="350" fromLane="0" toLane="0" dir="l" state="M"/>
    <connection from=":30_2" to="100" fromLane="0" toLane="0" dir="r" state="M"/>
    <connection from=":30_3" to="96" fromLane="0" toLane="0" dir="l" state="M"/>
    <connection from=":30_4" to="350" fromLane="0" toLane="0" dir="r" state="M"/>
    <connection from=":30_5" to="100" fromLane="0" toLane="0" dir="s" state="M"/>
    <connection from=":31_0" to="421" fromLane="0" toLane="0" dir="r" state="M"/>
    <connection from=":31_1" to="99" fromLane="0" toLane="0" dir="s" state="M"/>
    <connection from=":31_2" to="103" fromLane="0" toLane="0" dir="s" state="M"/>
    <connection from=":31_3" to="421" fromLane="0" toLane="0" dir="l" state="M"/>
    <connection from=":31_4" to="99" fromLane="0" toLane="0" dir="r" state="M"/>
    <connection from=":31_5" to="103" fromLane="0" toLane="0" dir="l" state="M"/>

</net>