<routes>
	<vehicle depart="0.1" departLane="0" departPos="40.9006979410107" departSpeed="5.9273667" id="1" type="passenger">
		<route edges="50201 50213 50197"/>
	</vehicle>
	<vehicle depart="0.1" departLane="0" departPos="98.55279659001262" departSpeed="1.8331717" id="2" type="passenger">
		<route edges="50195 50211 50199"/>
	</vehicle>
	<vehicle depart="0.1" departLane="0" departPos="124.38304431014308" departSpeed="3.9378046" id="4" type="passenger">
		<route edges="50205 50217 50199"/>
	</vehicle>
	<vehicle depart="0.1" departLane="0" departPos="132.38414921500328" departSpeed="4.4490886" id="5" type="passenger">
		<route edges="50205 50217 50199"/>
	</vehicle>
	<vehicle depart="0.1" departLane="0" departPos="32.8997844899309" departSpeed="1.8615289" id="7" type="passenger">
		<route edges="50201 50213 50197"/>
	</vehicle>
</routes>
