<routes>
	<vehicle depart="0.1" departLane="0" departPos="53.89462877592609" departSpeed="1.0457465" id="39" type="bicycle">
		<route edges="58324 58395"/>
	</vehicle>
	<vehicle depart="0.1" departLane="0" departPos="15.051960125460976" departSpeed="12.6029" id="32" type="passenger">
		<route edges=":67_4 58397 58394"/>
	</vehicle>
	<vehicle depart="0.1" departLane="0" departPos="61.40277907785579" departSpeed="1.4844722" id="34" type="passenger">
		<route edges="58324 58395"/>
	</vehicle>
	<vehicle depart="0.1" departLane="0" departPos="31.851886213853547" departSpeed="6.8719525" id="38" type="passenger">
		<route edges=":65_2 58398 58392"/>
	</vehicle>
	<vehicle depart="0.1" departLane="0" departPos="14.042472574854306" departSpeed="0.15732338" id="317" type="passenger">
		<route edges=":65_5 58398"/>
	</vehicle>
	<vehicle depart="0.1" departLane="0" departPos="5.870801819665029" departSpeed="10.962554" id="320" type="passenger">
		<route edges=":68_5 58424"/>
	</vehicle>
	<vehicle depart="0.1" departLane="0" departPos="41.249990290045055" departSpeed="2.1397658" id="326" type="passenger">
		<route edges="58391 58397"/>
	</vehicle>
	<vehicle depart="0.1" departLane="0" departPos="14.463071960699217" departSpeed="3.8542652" id="337" type="passenger">
		<route edges=":65_2 58398"/>
	</vehicle>
	<vehicle depart="0.1" departLane="0" departPos="33.918491524387896" departSpeed="6.9162216" id="33" type="motorcycle">
		<route edges=":65_3 58239"/>
	</vehicle>
	<vehicle depart="0.1" departLane="0" departPos="9.050869557286475" departSpeed="0.74190627" id="30" type="truck">
		<route edges=":68_3 58395"/>
	</vehicle>
</routes>
