<routes>
	<vehicle depart="0.1" departLane="0" departPos="3.669894823916933" departSpeed="3.3450573" id="310" type="bicycle">
		<route edges="2441"/>
	</vehicle>
	<vehicle depart="0.1" departLane="0" departPos="55.62504710315757" departSpeed="3.4586441" id="339" type="bicycle">
		<route edges="2059 2062"/>
	</vehicle>
	<vehicle depart="0.1" departLane="0" departPos="40.4465914811241" departSpeed="9.6455789" id="33" type="passenger">
		<route edges=":29_10 2062 2649"/>
	</vehicle>
	<vehicle depart="0.1" departLane="0" departPos="31.70042953194494" departSpeed="1.0057785" id="313" type="passenger">
		<route edges="2061 2058"/>
	</vehicle>
	<vehicle depart="0.1" departLane="0" departPos="22.130336744876914" departSpeed="0.02681818" id="314" type="passenger">
		<route edges="2061 2441"/>
	</vehicle>
	<vehicle depart="0.1" departLane="0" departPos="26.421551069306624" departSpeed="6.271208" id="330" type="passenger">
		<route edges=":29_9 2441"/>
	</vehicle>
	<vehicle depart="0.1" departLane="0" departPos="58.58023422004951" departSpeed="4.0127648" id="353" type="passenger">
		<route edges="2059 2062 2649"/>
	</vehicle>
	<vehicle depart="0.1" departLane="0" departPos="25.068617564259196" departSpeed="4.6185319" id="368" type="passenger">
		<route edges="2062 2649"/>
	</vehicle>
	<vehicle depart="0.1" departLane="0" departPos="17.495680833957394" departSpeed="11.721966" id="374" type="passenger">
		<route edges=":29_0 2058"/>
	</vehicle>
	<vehicle depart="0.1" departLane="0" departPos="69.65885584400783" departSpeed="11.048597" id="376" type="passenger">
		<route edges="2438 2058"/>
	</vehicle>
</routes>
