<routes>
	<vehicle depart="0.1" departLane="0" departPos="17.993680235584037" departSpeed="1.2535648" id="367" type="bus">
		<route edges="33062 33065"/>
	</vehicle>
	<vehicle depart="0.1" departLane="0" departPos="5.965560436309497" departSpeed="0.32386239" id="32" type="passenger">
		<route edges=":74_1 33333"/>
	</vehicle>
	<vehicle depart="0.1" departLane="0" departPos="64.8037883318735" departSpeed="0.1730034" id="34" type="passenger">
		<route edges="33062 33065"/>
	</vehicle>
	<vehicle depart="0.1" departLane="0" departPos="50.49656967593375" departSpeed="1.8470125" id="318" type="passenger">
		<route edges="33062 33065"/>
	</vehicle>
	<vehicle depart="0.1" departLane="0" departPos="50.00942907806758" departSpeed="1.4272887" id="328" type="passenger">
		<route edges="33332 33061"/>
	</vehicle>
	<vehicle depart="0.1" departLane="0" departPos="15.663216102798586" departSpeed="1.5584328" id="340" type="passenger">
		<route edges=":74_1 33333"/>
	</vehicle>
	<vehicle depart="0.1" departLane="0" departPos="42.88292318279837" departSpeed="1.0436811" id="342" type="passenger">
		<route edges="33062 33065"/>
	</vehicle>
	<vehicle depart="0.1" departLane="0" departPos="33.53667513550661" departSpeed="1.1729532" id="350" type="motorcycle">
		<route edges="33062 33065"/>
	</vehicle>
	<vehicle depart="0.1" departLane="0" departPos="30.40305102646016" departSpeed="0.078402771" id="339" type="truck">
		<route edges=":74_1 33333"/>
	</vehicle>
</routes>
