<routes>
	<vehicle depart="0.1" departLane="1" departPos="47.35535241072426" departSpeed="0.6952473" id="30" type="passenger">
		<route edges="67455 67035"/>
	</vehicle>
	<vehicle depart="0.1" departLane="0" departPos="43.00561911783367" departSpeed="5.4010322" id="316" type="passenger">
		<route edges="67455 68100 73740 66997 73783"/>
	</vehicle>
	<vehicle depart="0.1" departLane="0" departPos="46.89212980831887" departSpeed="0.0" id="317" type="passenger">
		<route edges="67453 66920"/>
	</vehicle>
	<vehicle depart="0.1" departLane="0" departPos="39.38536217476449" departSpeed="5.2689069e-05" id="336" type="passenger">
		<route edges="67453 66920"/>
	</vehicle>
	<vehicle depart="0.1" departLane="0" departPos="23.861238309923603" departSpeed="11.169519" id="351" type="passenger">
		<route edges=":54_6 67455 66870"/>
	</vehicle>
	<vehicle depart="0.1" departLane="0" departPos="59.08722741844813" departSpeed="13.149514" id="358" type="passenger">
		<route edges="66921 67455"/>
	</vehicle>
	<vehicle depart="0.1" departLane="0" departPos="29.9602877230698" departSpeed="1.9079508" id="375" type="passenger">
		<route edges="67453 66920"/>
	</vehicle>
	<vehicle depart="0.1" departLane="0" departPos="2.5" departSpeed="6.7699304" id="381" type="passenger">
		<route edges="67453 66920"/>
	</vehicle>
	<vehicle depart="0.1" departLane="0" departPos="30.11840062553221" departSpeed="0.42468843" id="33" type="motorcycle">
		<route edges="67455 66870"/>
	</vehicle>
	<vehicle depart="0.1" departLane="0" departPos="15.19625409798509" departSpeed="5.2568183" id="379" type="motorcycle">
		<route edges="67453 66920"/>
	</vehicle>
</routes>
