<routes>
	<vehicle depart="0.1" departLane="0" departPos="15.534429008193916" departSpeed="0.47495211" id="32" type="passenger">
		<route edges="20835 20838"/>
	</vehicle>
	<vehicle depart="0.1" departLane="0" departPos="23.357342252952545" departSpeed="0.2277043" id="314" type="passenger">
		<route edges="20935 20834"/>
	</vehicle>
	<vehicle depart="0.1" departLane="0" departPos="31.17958533761075" departSpeed="4.2326753" id="317" type="passenger">
		<route edges="20835 20936"/>
	</vehicle>
	<vehicle depart="0.1" departLane="0" departPos="23.843793399408316" departSpeed="2.3042463" id="318" type="passenger">
		<route edges="20835 20838"/>
	</vehicle>
	<vehicle depart="0.1" departLane="0" departPos="2.5" departSpeed="0.11497783" id="332" type="passenger">
		<route edges="20835 20838"/>
	</vehicle>
	<vehicle depart="0.1" departLane="0" departPos="47.79252039372055" departSpeed="12.763058" id="336" type="passenger">
		<route edges="20837 20936"/>
	</vehicle>
	<vehicle depart="0.1" departLane="0" departPos="22.88015241307522" departSpeed="8.9574266" id="337" type="passenger">
		<route edges="20837 20936"/>
	</vehicle>
	<vehicle depart="0.1" departLane="0" departPos="8.181696624395228" departSpeed="0.70800507" id="33" type="motorcycle">
		<route edges="20835 20838"/>
	</vehicle>
</routes>
