<routes>
	<vehicle depart="0.1" departLane="0" departPos="69.89526360166963" departSpeed="0.0" id="31" type="passenger">
		<route edges="5971 5819"/>
	</vehicle>
	<vehicle depart="0.1" departLane="0" departPos="16.074178856859167" departSpeed="0.41396422" id="39" type="passenger">
		<route edges=":114_0 5819"/>
	</vehicle>
	<vehicle depart="0.1" departLane="0" departPos="62.3946108762274" departSpeed="0.0" id="318" type="passenger">
		<route edges="5971 5819"/>
	</vehicle>
	<vehicle depart="0.1" departLane="0" departPos="7.302789091006326" departSpeed="7.0680046" id="324" type="passenger">
		<route edges="5972"/>
	</vehicle>
	<vehicle depart="0.1" departLane="0" departPos="78.03999271462182" departSpeed="7.4393999" id="355" type="passenger">
		<route edges="5822 5819"/>
	</vehicle>
	<vehicle depart="0.1" departLane="0" departPos="61.05910582194704" departSpeed="7.6596502" id="379" type="passenger">
		<route edges="5822 5968"/>
	</vehicle>
	<vehicle depart="0.1" departLane="0" departPos="33.64810953275169" departSpeed="1.420703" id="388" type="passenger">
		<route edges=":114_5 5972"/>
	</vehicle>
	<vehicle depart="0.1" departLane="0" departPos="9.438155548420955" departSpeed="1.6107139" id="399" type="passenger">
		<route edges=":114_9 5972"/>
	</vehicle>
	<vehicle depart="0.1" departLane="0" departPos="56.37434350030833" departSpeed="0.92858141" id="3112" type="passenger">
		<route edges="5820 5968"/>
	</vehicle>
	<vehicle depart="0.1" departLane="0" departPos="47.80656957196017" departSpeed="1.2048156" id="3120" type="passenger">
		<route edges="5820 5968"/>
	</vehicle>
</routes>
