<routes>
	<vehicle depart="0.1" departLane="0" departPos="10.451323430507104" departSpeed="2.5607542" id="312" type="bicycle">
		<route edges=":70_5 4658"/>
	</vehicle>
	<vehicle depart="0.1" departLane="0" departPos="8.038206222416612" departSpeed="4.6771193" id="316" type="passenger">
		<route edges=":69_0 4527 4626"/>
	</vehicle>
	<vehicle depart="0.1" departLane="0" departPos="12.778064550506695" departSpeed="4.7788858" id="317" type="passenger">
		<route edges=":69_2 4800"/>
	</vehicle>
	<vehicle depart="0.1" departLane="0" departPos="38.875492615193444" departSpeed="2.0218637" id="323" type="passenger">
		<route edges="4799 4531"/>
	</vehicle>
	<vehicle depart="0.1" departLane="0" departPos="39.26103051166529" departSpeed="2.8898453" id="324" type="passenger">
		<route edges="4599 4530"/>
	</vehicle>
	<vehicle depart="0.1" departLane="0" departPos="26.359346833872632" departSpeed="3.9212904" id="333" type="passenger">
		<route edges="4599 4534"/>
	</vehicle>
	<vehicle depart="0.1" departLane="0" departPos="5.581709245708403" departSpeed="1.2125806" id="344" type="passenger">
		<route edges="4599 4534"/>
	</vehicle>
	<vehicle depart="0.1" departLane="0" departPos="29.99294583221727" departSpeed="5.9290623" id="354" type="passenger">
		<route edges=":69_1 4531 4534"/>
	</vehicle>
	<vehicle depart="0.1" departLane="0" departPos="8.848322976079846" departSpeed="1.346813" id="32" type="truck">
		<route edges=":70_0 4533"/>
	</vehicle>
	<vehicle depart="0.1" departLane="0" departPos="50.732320444093574" departSpeed="2.7860662" id="321" type="truck">
		<route edges="4799 4531"/>
	</vehicle>
</routes>
