<routes>
	<vehicle depart="0.1" departLane="1" departPos="14.137187278108906" departSpeed="1.8057731" id="378" type="bus">
		<route edges="79647 79651"/>
	</vehicle>
	<vehicle depart="0.1" departLane="0" departPos="15.008840514219004" departSpeed="0.0" id="332" type="passenger">
		<route edges="79647 79651"/>
	</vehicle>
	<vehicle depart="0.1" departLane="0" departPos="7.509390226324147" departSpeed="1.2189084e-05" id="337" type="passenger">
		<route edges="79647 79651"/>
	</vehicle>
	<vehicle depart="0.1" departLane="1" departPos="2.5" departSpeed="1.9188063" id="352" type="passenger">
		<route edges="79651 79132"/>
	</vehicle>
	<vehicle depart="0.1" departLane="0" departPos="29.35636056408563" departSpeed="0.00038019304" id="362" type="passenger">
		<route edges="82943 79647"/>
	</vehicle>
	<vehicle depart="0.1" departLane="0" departPos="7.737139899387478" departSpeed="10.976701" id="379" type="passenger">
		<route edges=":56_3 78059"/>
	</vehicle>
	<vehicle depart="0.1" departLane="0" departPos="2.5" departSpeed="11.669683" id="392" type="passenger">
		<route edges="82942 79647"/>
	</vehicle>
	<vehicle depart="0.1" departLane="0" departPos="25.00772255156448" departSpeed="0.0" id="30" type="truck">
		<route edges="79647 79651"/>
	</vehicle>
</routes>
