<!-- generated on Tue Feb  9 22:16:00 2021 by Eclipse SUMO netconvert Version 1.8.0
<configuration xmlns:xsi="http://www.w3.org/2001/XMLSchema-instance" xsi:noNamespaceSchemaLocation="http://sumo.dlr.de/xsd/netconvertConfiguration.xsd">

    <input>
        <node-files value="./converted_scenarios/scenario-factory/ITA_Foggia-1_1_I-1-1/ITA_Foggia-1_1_I-1-1.nod.xml"/>
        <edge-files value="./converted_scenarios/scenario-factory/ITA_Foggia-1_1_I-1-1/ITA_Foggia-1_1_I-1-1.edg.xml"/>
        <connection-files value="./converted_scenarios/scenario-factory/ITA_Foggia-1_1_I-1-1/ITA_Foggia-1_1_I-1-1.con.xml"/>
        <tllogic-files value="./converted_scenarios/scenario-factory/ITA_Foggia-1_1_I-1-1/ITA_Foggia-1_1_I-1-1.tll.xml"/>
        <type-files value="/home/zen/commonroad-interactive-benchmarks/install/commonroad-map-tool/crmapconverter/sumo_map/templates/DEU.typ.xml"/>
    </input>

    <output>
        <output-file value="./converted_scenarios/scenario-factory/ITA_Foggia-1_1_I-1-1/ITA_Foggia-1_1_I-1-1.net.xml"/>
    </output>

    <processing>
        <geometry.remove.keep-edges.explicit value="true"/>
        <geometry.avoid-overlap value="true"/>
        <offset.disable-normalization value="true"/>
    </processing>

    <junctions>
        <no-turnarounds value="true"/>
        <junctions.internal-link-detail value="20"/>
    </junctions>

    <report>
        <aggregate-warnings value="5"/>
    </report>

    <random_number>
        <seed value="1234"/>
    </random_number>

</configuration>
--><net xmlns:xsi="http://www.w3.org/2001/XMLSchema-instance" version="1.6" junctionCornerDetail="5" junctionLinkDetail="20" limitTurnSpeed="5.50" xsi:noNamespaceSchemaLocation="http://sumo.dlr.de/xsd/net_file.xsd">

    <location netOffset="0.00,0.00" convBoundary="-911.30,667.71,-739.77,862.93" origBoundary="-911.30,667.71,-739.77,862.93" projParameter="!"/>

    <type id="highway.bridleway" priority="1" speed="2.78" allow="pedestrian" oneway="1" width="2.00"/>
    <type id="highway.bus_guideway" priority="1" speed="27.78" allow="bus" oneway="1"/>
    <type id="highway.cycleway" priority="1" speed="8.33" allow="bicycle" oneway="0" width="1.00"/>
    <type id="highway.footway" priority="1" speed="2.78" allow="pedestrian" oneway="1" width="2.00"/>
    <type id="highway.ford" priority="1" speed="2.78" allow="army" oneway="0"/>
    <type id="highway.living_street" priority="2" speed="2.78" disallow="tram rail_urban rail rail_electric rail_fast ship" oneway="0"/>
    <type id="highway.motorway" priority="14" speed="39.44" allow="private emergency authority army vip passenger hov taxi bus coach delivery truck trailer motorcycle evehicle custom1 custom2" oneway="1"/>
    <type id="highway.motorway_link" priority="9" speed="22.22" allow="private emergency authority army vip passenger hov taxi bus coach delivery truck trailer motorcycle evehicle custom1 custom2" oneway="1"/>
    <type id="highway.path" priority="1" speed="2.78" allow="pedestrian bicycle" oneway="0" width="2.00"/>
    <type id="highway.pedestrian" priority="1" speed="2.78" allow="pedestrian" oneway="1" width="2.00"/>
    <type id="highway.primary" priority="12" speed="27.78" disallow="pedestrian tram rail_urban rail rail_electric rail_fast ship" oneway="0"/>
    <type id="highway.primary_link" priority="7" speed="22.22" disallow="pedestrian tram rail_urban rail rail_electric rail_fast ship" oneway="0"/>
    <type id="highway.raceway" priority="15" speed="83.33" allow="vip" oneway="0"/>
    <type id="highway.residential" priority="3" speed="13.89" disallow="pedestrian tram rail_urban rail rail_electric rail_fast ship" oneway="0"/>
    <type id="highway.secondary" priority="11" speed="27.78" disallow="pedestrian tram rail_urban rail rail_electric rail_fast ship" oneway="0"/>
    <type id="highway.secondary_link" priority="6" speed="22.22" disallow="pedestrian tram rail_urban rail rail_electric rail_fast ship" oneway="0"/>
    <type id="highway.service" priority="1" speed="5.56" allow="pedestrian delivery bicycle" oneway="0"/>
    <type id="highway.stairs" priority="1" speed="1.39" allow="pedestrian" oneway="1" width="2.00"/>
    <type id="highway.step" priority="1" speed="1.39" allow="pedestrian" oneway="1" width="2.00"/>
    <type id="highway.steps" priority="1" speed="1.39" allow="pedestrian" oneway="1" width="2.00"/>
    <type id="highway.tertiary" priority="10" speed="22.22" disallow="pedestrian tram rail_urban rail rail_electric rail_fast ship" oneway="0"/>
    <type id="highway.tertiary_link" priority="5" speed="22.22" disallow="pedestrian tram rail_urban rail rail_electric rail_fast ship" oneway="0"/>
    <type id="highway.track" priority="1" speed="5.56" allow="pedestrian motorcycle moped bicycle" oneway="0"/>
    <type id="highway.trunk" priority="13" speed="27.78" disallow="pedestrian bicycle tram rail_urban rail rail_electric rail_fast ship" oneway="0"/>
    <type id="highway.trunk_link" priority="8" speed="22.22" disallow="pedestrian bicycle tram rail_urban rail rail_electric rail_fast ship" oneway="0"/>
    <type id="highway.unclassified" priority="4" speed="13.89" disallow="pedestrian tram rail_urban rail rail_electric rail_fast ship" oneway="0"/>
    <type id="highway.unsurfaced" priority="1" speed="8.33" disallow="tram rail_urban rail rail_electric rail_fast ship" oneway="0"/>
    <type id="railway.highspeed" priority="21" speed="69.44" allow="rail_fast" oneway="1"/>
    <type id="railway.light_rail" priority="19" speed="27.78" allow="rail_urban" oneway="1"/>
    <type id="railway.preserved" priority="16" speed="27.78" allow="rail" oneway="1"/>
    <type id="railway.rail" priority="20" speed="44.44" allow="rail" oneway="1"/>
    <type id="railway.subway" priority="18" speed="27.78" allow="rail_urban" oneway="1"/>
    <type id="railway.tram" priority="17" speed="13.89" allow="tram" oneway="1"/>

    <edge id=":14_0" function="internal">
        <lane id=":14_0_0" index="0" disallow="pedestrian tram rail_urban rail rail_electric rail_fast ship" speed="36.11" length="3.00" width="3.50" shape="-848.57,745.14 -851.53,744.66"/>
    </edge>
    <edge id=":15_0" function="internal">
        <lane id=":15_0_0" index="0" disallow="pedestrian tram rail_urban rail rail_electric rail_fast ship" speed="36.11" length="2.96" width="3.50" shape="-871.33,741.43 -874.25,740.92"/>
    </edge>
    <edge id=":16_0" function="internal">
        <lane id=":16_0_0" index="0" disallow="pedestrian tram rail_urban rail rail_electric rail_fast ship" speed="36.11" length="2.99" width="3.50" shape="-804.46,745.50 -801.51,746.00"/>
    </edge>
    <edge id=":17_0" function="internal">
        <lane id=":17_0_0" index="0" disallow="pedestrian tram rail_urban rail rail_electric rail_fast ship" speed="36.11" length="0.24" width="3.50" shape="-776.88,750.24 -776.64,750.28"/>
    </edge>
    <edge id=":24_0" function="internal">
        <lane id=":24_0_0" index="0" disallow="pedestrian tram rail_urban rail rail_electric rail_fast ship" speed="36.11" length="3.00" width="3.50" shape="-824.09,706.96 -823.85,703.97"/>
    </edge>
    <edge id=":26_0" function="internal">
        <lane id=":26_0_0" index="0" disallow="pedestrian tram rail_urban rail rail_electric rail_fast ship" speed="36.11" length="3.00" width="3.50" shape="-826.07,791.63 -826.29,794.62"/>
    </edge>
    <edge id=":43_0" function="internal">
        <lane id=":43_0_0" index="0" disallow="pedestrian tram rail_urban rail rail_electric rail_fast ship" speed="36.11" length="3.00" width="3.50" shape="-829.78,794.36 -829.56,791.37"/>
    </edge>
    <edge id=":45_0" function="internal">
        <lane id=":45_0_0" index="0" disallow="pedestrian tram rail_urban rail rail_electric rail_fast ship" speed="36.11" length="3.01" width="3.50" shape="-816.88,704.55 -817.12,707.55"/>
        <lane id=":45_0_1" index="1" disallow="pedestrian tram rail_urban rail rail_electric rail_fast ship" speed="36.11" length="3.01" width="3.50" shape="-820.37,704.26 -820.61,707.26"/>
    </edge>
    <edge id=":47_0" function="internal">
        <lane id=":47_0_0" index="0" disallow="pedestrian tram rail_urban rail rail_electric rail_fast ship" speed="36.11" length="3.06" width="3.49" shape="-853.89,725.38 -850.84,725.68"/>
        <lane id=":47_0_1" index="1" disallow="pedestrian tram rail_urban rail rail_electric rail_fast ship" speed="36.11" length="3.04" width="3.50" shape="-854.21,728.87 -851.18,729.16"/>
        <lane id=":47_0_2" index="2" disallow="pedestrian tram rail_urban rail rail_electric rail_fast ship" speed="36.11" length="3.02" width="3.50" shape="-854.54,732.35 -851.53,732.64"/>
    </edge>
    <edge id=":48_0" function="internal">
        <lane id=":48_0_0" index="0" disallow="pedestrian tram rail_urban rail rail_electric rail_fast ship" speed="36.11" length="3.08" width="3.49" shape="-805.80,767.53 -808.87,767.26"/>
        <lane id=":48_0_1" index="1" disallow="pedestrian tram rail_urban rail rail_electric rail_fast ship" speed="36.11" length="3.06" width="3.50" shape="-805.51,764.04 -808.56,763.77"/>
        <lane id=":48_0_2" index="2" disallow="pedestrian tram rail_urban rail rail_electric rail_fast ship" speed="36.11" length="3.03" width="3.50" shape="-805.22,760.55 -808.24,760.29"/>
    </edge>
    <edge id=":50_0" function="internal">
        <lane id=":50_0_0" index="0" disallow="pedestrian tram rail_urban rail rail_electric rail_fast ship" speed="36.11" length="3.00" width="3.50" shape="-850.41,737.75 -847.45,738.24"/>
        <lane id=":50_0_1" index="1" disallow="pedestrian tram rail_urban rail rail_electric rail_fast ship" speed="36.11" length="3.00" width="3.50" shape="-850.97,741.21 -848.01,741.69"/>
    </edge>
    <edge id=":51_0" function="internal">
        <lane id=":51_0_0" index="0" disallow="pedestrian tram rail_urban rail rail_electric rail_fast ship" speed="36.11" length="3.02" width="3.50" shape="-802.64,752.91 -805.62,752.40"/>
        <lane id=":51_0_1" index="1" disallow="pedestrian tram rail_urban rail rail_electric rail_fast ship" speed="36.11" length="3.01" width="3.50" shape="-802.07,749.45 -805.04,748.95"/>
    </edge>
    <edge id=":55_0" function="internal">
        <lane id=":55_0_0" index="0" disallow="pedestrian tram rail_urban rail rail_electric rail_fast ship" speed="7.09" length="11.16" width="3.50" shape="-818.13,766.22 -821.82,765.79 -822.35,765.99 -822.80,766.35 -823.44,767.29 -824.02,768.92 -824.53,771.74 -824.59,772.31"/>
    </edge>
    <edge id=":55_1" function="internal">
        <lane id=":55_1_0" index="0" disallow="pedestrian tram rail_urban rail rail_electric rail_fast ship" speed="36.11" length="29.59" width="3.50" shape="-817.61,762.76 -831.38,760.66 -846.85,758.21"/>
    </edge>
    <edge id=":55_2" function="internal">
        <lane id=":55_2_0" index="0" disallow="pedestrian tram rail_urban rail rail_electric rail_fast ship" speed="7.92" length="13.18" width="3.49" shape="-817.09,759.30 -821.93,758.48 -823.56,757.78 -824.52,757.09 -825.29,756.20 -825.82,755.14 -826.09,754.00 -826.11,752.22"/>
    </edge>
    <edge id=":55_3" function="internal">
        <lane id=":55_3_0" index="0" disallow="pedestrian tram rail_urban rail rail_electric rail_fast ship" speed="36.11" length="19.91" width="3.50" shape="-822.63,752.50 -823.61,762.43 -824.59,772.31"/>
    </edge>
    <edge id=":55_4" function="internal">
        <lane id=":55_4_0" index="0" disallow="pedestrian tram rail_urban rail rail_electric rail_fast ship" speed="10.83" length="27.95" width="3.50" shape="-822.62,752.50 -822.96,754.24 -823.39,755.31 -824.00,756.28 -824.78,757.13 -826.18,758.13 -827.76,758.83 -829.99,759.40 -832.86,759.69 -836.32,759.65 -840.91,759.16 -846.85,758.21"/>
    </edge>
    <edge id=":55_5" function="internal">
        <lane id=":55_5_0" index="0" disallow="pedestrian tram rail_urban rail rail_electric rail_fast ship" speed="10.97" length="26.27" width="3.50" shape="-828.07,771.98 -828.01,770.24 -828.20,768.51 -828.69,766.85 -829.48,765.31 -830.55,763.94 -831.84,762.78 -833.79,761.54 -835.89,760.58 -838.65,759.70 -846.85,758.21"/>
    </edge>
    <edge id=":55_6" function="internal">
        <lane id=":55_6_0" index="0" disallow="pedestrian tram rail_urban rail rail_electric rail_fast ship" speed="36.11" length="19.86" width="3.49" shape="-828.07,771.98 -827.09,762.09 -826.11,752.22"/>
    </edge>
    <edge id=":56_0" function="internal">
        <lane id=":56_0_0" index="0" disallow="pedestrian tram rail_urban rail rail_electric rail_fast ship" speed="10.35" length="22.52" width="3.50" shape="-818.39,723.41 -818.60,728.27 -818.17,729.93 -817.64,730.94 -816.55,732.26 -815.20,733.30 -813.68,734.10 -811.53,734.88 -804.29,736.31"/>
    </edge>
    <edge id=":56_1" function="internal">
        <lane id=":56_1_0" index="0" disallow="pedestrian tram rail_urban rail rail_electric rail_fast ship" speed="36.11" length="15.94" width="3.49" shape="-821.88,723.17 -822.18,727.30 -822.11,729.37 -821.63,733.71 -821.37,737.13 -821.41,739.06"/>
    </edge>
    <edge id=":56_2" function="internal">
        <lane id=":56_2_0" index="0" disallow="pedestrian tram rail_urban rail rail_electric rail_fast ship" speed="6.88" length="10.57" width="3.50" shape="-831.66,727.92 -827.50,728.36 -826.87,728.19 -826.33,727.83 -825.94,727.31 -825.72,726.70 -825.37,722.93"/>
    </edge>
    <edge id=":56_3" function="internal">
        <lane id=":56_3_0" index="0" disallow="pedestrian tram rail_urban rail rail_electric rail_fast ship" speed="36.11" length="28.37" width="3.50" shape="-832.23,731.38 -813.81,734.55 -804.29,736.31"/>
    </edge>
    <edge id=":56_4" function="internal">
        <lane id=":56_4_0" index="0" disallow="pedestrian tram rail_urban rail rail_electric rail_fast ship" speed="7.72" length="12.60" width="3.49" shape="-832.79,734.83 -826.60,735.90 -824.44,736.57 -822.92,737.30 -822.04,738.00 -821.70,738.45 -821.49,738.97 -821.41,739.06"/>
    </edge>
    <edge id=":56_5" function="internal">
        <lane id=":56_5_0" index="0" disallow="pedestrian tram rail_urban rail rail_electric rail_fast ship" speed="36.11" length="14.64" width="3.50" shape="-824.74,737.51 -824.86,737.02 -825.12,733.73 -825.60,729.36 -825.67,727.16 -825.37,722.93"/>
    </edge>
    <edge id=":56_6" function="internal">
        <lane id=":56_6_0" index="0" disallow="pedestrian tram rail_urban rail rail_electric rail_fast ship" speed="9.73" length="22.48" width="3.50" shape="-824.74,737.51 -824.70,738.08 -824.20,737.04 -823.42,736.18 -822.45,735.54 -820.83,734.94 -819.11,734.64 -816.21,734.56 -812.75,734.85 -804.29,736.31"/>
    </edge>
    <edge id=":57_0" function="internal">
        <lane id=":57_0_0" index="0" disallow="pedestrian tram rail_urban rail rail_electric rail_fast ship" speed="36.11" length="15.75" width="3.50" shape="-816.56,750.51 -824.80,749.07 -832.08,747.82"/>
    </edge>
    <edge id=":57_1" function="internal">
        <lane id=":57_1_0" index="0" disallow="pedestrian tram rail_urban rail rail_electric rail_fast ship" speed="8.44" length="15.09" width="3.50" shape="-815.95,747.06 -820.19,746.18 -821.85,745.48 -823.32,744.44 -824.38,742.99 -824.91,741.27 -824.76,737.71"/>
    </edge>
    <edge id=":57_2" function="internal">
        <lane id=":57_2_0" index="0" disallow="pedestrian tram rail_urban rail rail_electric rail_fast ship" speed="6.59" length="8.66" width="3.50" shape="-821.43,739.26 -821.49,740.60 -821.25,741.39 -820.71,742.04 -819.90,742.53 -818.89,742.92 -815.34,743.62"/>
    </edge>
    <edge id=":57_3" function="internal">
        <lane id=":57_3_0" index="0" disallow="pedestrian tram rail_urban rail rail_electric rail_fast ship" speed="36.11" length="14.64" width="3.50" shape="-821.43,739.26 -822.04,746.03 -822.77,753.84"/>
    </edge>
    <edge id=":57_4" function="internal">
        <lane id=":57_4_0" index="0" disallow="pedestrian tram rail_urban rail rail_electric rail_fast ship" speed="8.38" length="16.38" width="3.50" shape="-821.43,739.26 -821.83,742.13 -822.34,743.84 -823.14,745.44 -823.87,746.37 -824.78,747.15 -825.82,747.72 -826.96,748.07 -828.73,748.24 -832.08,747.82"/>
    </edge>
    <edge id=":57_5" function="internal">
        <lane id=":57_5_0" index="0" disallow="pedestrian tram rail_urban rail rail_electric rail_fast ship" speed="36.11" length="15.86" width="3.50" shape="-830.97,740.91 -823.59,742.18 -815.34,743.62"/>
    </edge>
    <edge id=":57_6" function="internal">
        <lane id=":57_6_0" index="0" disallow="pedestrian tram rail_urban rail rail_electric rail_fast ship" speed="8.40" length="14.95" width="3.50" shape="-831.52,744.37 -828.48,744.94 -827.01,745.42 -825.56,746.17 -824.23,747.29 -823.22,748.78 -822.68,750.50 -822.77,753.84"/>
    </edge>
    <edge id=":57_7" function="internal">
        <lane id=":57_7_0" index="0" disallow="pedestrian tram rail_urban rail rail_electric rail_fast ship" speed="6.97" length="9.77" width="3.50" shape="-826.22,753.59 -826.13,751.04 -826.46,750.16 -827.06,749.44 -827.83,748.91 -828.69,748.53 -829.59,748.26 -832.08,747.82"/>
    </edge>
    <edge id=":57_8" function="internal">
        <lane id=":57_8_0" index="0" disallow="pedestrian tram rail_urban rail rail_electric rail_fast ship" speed="36.11" length="15.95" width="3.50" shape="-826.22,753.59 -825.52,745.72 -824.76,737.71"/>
    </edge>
    <edge id=":57_9" function="internal">
        <lane id=":57_9_0" index="0" disallow="pedestrian tram rail_urban rail rail_electric rail_fast ship" speed="8.72" length="18.17" width="3.50" shape="-826.22,753.59 -825.75,749.55 -825.28,747.77 -824.55,746.09 -823.88,745.06 -823.02,744.20 -821.98,743.55 -820.82,743.16 -819.61,743.02 -815.34,743.62"/>
    </edge>
    <edge id=":58_0" function="internal">
        <lane id=":58_0_0" index="0" disallow="pedestrian tram rail_urban rail rail_electric rail_fast ship" speed="36.11" length="3.31" width="3.50" shape="-782.61,762.02 -785.91,761.72"/>
    </edge>
    <edge id=":58_1" function="internal">
        <lane id=":58_1_0" index="0" disallow="pedestrian tram rail_urban rail rail_electric rail_fast ship" speed="36.11" length="3.18" width="3.50" shape="-782.95,765.47 -786.12,765.21"/>
    </edge>
    <edge id=":58_2" function="internal">
        <lane id=":58_2_0" index="0" disallow="pedestrian tram rail_urban rail rail_electric rail_fast ship" speed="36.11" length="3.01" width="3.50" shape="-783.32,768.89 -786.32,768.71"/>
    </edge>
    <edge id=":60_0" function="internal">
        <lane id=":60_0_0" index="0" disallow="pedestrian tram rail_urban rail rail_electric rail_fast ship" speed="36.11" length="5.91" width="3.50" shape="-776.37,757.39 -782.20,756.42"/>
    </edge>
    <edge id=":60_1" function="internal">
        <lane id=":60_1_0" index="0" disallow="pedestrian tram rail_urban rail rail_electric rail_fast ship" speed="36.11" length="6.02" width="3.50" shape="-775.68,754.06 -781.60,752.97"/>
    </edge>
    <edge id=":62_0" function="internal">
        <lane id=":62_0_0" index="0" disallow="pedestrian tram rail_urban rail rail_electric rail_fast ship" speed="36.11" length="6.00" width="3.50" shape="-873.93,737.42 -868.02,738.43"/>
    </edge>
    <edge id=":62_1" function="internal">
        <lane id=":62_1_0" index="0" disallow="pedestrian tram rail_urban rail rail_electric rail_fast ship" speed="36.11" length="5.92" width="3.50" shape="-873.30,734.07 -867.45,734.98"/>
    </edge>
    <edge id=":64_0" function="internal">
        <lane id=":64_0_0" index="0" disallow="pedestrian tram rail_urban rail rail_electric rail_fast ship" speed="36.11" length="3.07" width="3.50" shape="-874.38,730.50 -871.33,730.86"/>
    </edge>
    <edge id=":64_1" function="internal">
        <lane id=":64_1_0" index="0" disallow="pedestrian tram rail_urban rail rail_electric rail_fast ship" speed="36.11" length="3.04" width="3.50" shape="-874.05,727.06 -871.03,727.37"/>
    </edge>
    <edge id=":64_2" function="internal">
        <lane id=":64_2_0" index="0" disallow="pedestrian tram rail_urban rail rail_electric rail_fast ship" speed="36.11" length="3.00" width="3.50" shape="-873.72,723.61 -870.73,723.89"/>
    </edge>

    <edge id="78059" from="56" to="21" priority="3" type="highway.residential" spreadType="center" length="64.90">
        <lane id="78059_0" index="0" disallow="pedestrian tram rail_urban rail rail_electric rail_fast ship" speed="36.11" length="64.90" width="3.50" customShape="1" shape="-804.29,736.31 -797.94,737.45 -787.00,738.99 -774.51,740.32 -753.49,742.07 -739.77,742.88"/>
    </edge>
    <edge id="78893" from="26" to="27" priority="3" type="highway.residential" spreadType="center" length="68.50">
        <lane id="78893_0" index="0" disallow="pedestrian tram rail_urban rail rail_electric rail_fast ship" speed="36.11" length="68.50" width="3.50" customShape="1" shape="-826.29,794.62 -829.73,841.26 -831.42,862.93"/>
    </edge>
    <edge id="78894" from="44" to="43" priority="3" type="highway.residential" spreadType="center" length="68.50">
        <lane id="78894_0" index="0" disallow="pedestrian tram rail_urban rail rail_electric rail_fast ship" speed="36.11" length="68.50" width="3.50" customShape="1" shape="-834.91,862.67 -833.22,840.99 -829.78,794.36"/>
    </edge>
    <edge id="78897" from="43" to="55" priority="3" type="highway.residential" spreadType="center" length="19.46" shape="-829.67,792.87 -829.02,761.02">
        <lane id="78897_0" index="0" disallow="pedestrian tram rail_urban rail rail_electric rail_fast ship" speed="36.11" length="19.46" width="3.50" customShape="1" shape="-829.56,791.37 -828.88,782.54 -828.09,772.22 -828.08,772.09 -828.07,771.97"/>
    </edge>
    <edge id="79131" from="56" to="57" priority="3" type="highway.residential" spreadType="center" length="0.20" shape="-820.50,733.86 -822.29,746.23">
        <lane id="79131_0" index="0" disallow="pedestrian tram rail_urban rail rail_electric rail_fast ship" speed="36.11" length="0.20" width="3.49" customShape="1" shape="-821.41,739.06 -821.43,739.26"/>
    </edge>
    <edge id="79132" from="57" to="56" priority="3" type="highway.residential" spreadType="center" length="0.20" shape="-825.71,745.74 -823.96,733.37">
        <lane id="79132_0" index="0" disallow="pedestrian tram rail_urban rail rail_electric rail_fast ship" speed="36.11" length="0.20" width="3.50" customShape="1" shape="-824.76,737.71 -824.74,737.51"/>
    </edge>
    <edge id="79385" from="45" to="56" priority="3" type="highway.residential" spreadType="center" length="15.91" shape="-818.74,705.91 -818.76,734.05">
        <lane id="79385_0" index="0" disallow="pedestrian tram rail_urban rail rail_electric rail_fast ship" speed="36.11" length="15.91" width="3.50" customShape="1" shape="-817.12,707.55 -817.81,716.18 -818.39,723.41"/>
        <lane id="79385_1" index="1" disallow="pedestrian tram rail_urban rail rail_electric rail_fast ship" speed="36.11" length="15.96" width="3.50" customShape="1" shape="-820.61,707.26 -821.30,715.90 -821.88,723.17"/>
    </edge>
    <edge id="79389" from="46" to="45" priority="3" type="highway.residential" spreadType="center" length="36.40">
        <lane id="79389_0" index="0" disallow="pedestrian tram rail_urban rail rail_electric rail_fast ship" speed="36.11" length="36.45" width="3.50" customShape="1" shape="-814.10,668.21 -814.87,679.32 -816.88,704.55"/>
        <lane id="79389_1" index="1" disallow="pedestrian tram rail_urban rail rail_electric rail_fast ship" speed="36.11" length="36.40" width="3.50" customShape="1" shape="-817.59,667.97 -818.36,679.05 -820.37,704.26"/>
    </edge>
    <edge id="79391" from="24" to="25" priority="3" type="highway.residential" spreadType="center" length="36.37">
        <lane id="79391_0" index="0" disallow="pedestrian tram rail_urban rail rail_electric rail_fast ship" speed="36.11" length="36.37" width="3.50" customShape="1" shape="-823.85,703.97 -821.85,678.81 -821.08,667.71"/>
    </edge>
    <edge id="79459" from="57" to="55" priority="3" type="highway.residential" spreadType="center" length="0.20" shape="-822.23,745.91 -825.56,761.52">
        <lane id="79459_0" index="0" disallow="pedestrian tram rail_urban rail rail_electric rail_fast ship" speed="36.11" length="0.20" width="3.50" customShape="1" shape="-822.77,753.84 -822.79,754.04"/>
    </edge>
    <edge id="79460" from="55" to="57" priority="3" type="highway.residential" spreadType="center" length="0.19" shape="-828.98,760.79 -825.62,745.19">
        <lane id="79460_0" index="0" disallow="pedestrian tram rail_urban rail rail_electric rail_fast ship" speed="36.11" length="0.19" width="3.49" customShape="1" shape="-826.24,753.78 -826.22,753.59"/>
    </edge>
    <edge id="79517" from="58" to="48" priority="3" type="highway.residential" spreadType="center" length="19.35">
        <lane id="79517_0" index="0" disallow="pedestrian tram rail_urban rail rail_electric rail_fast ship" speed="36.11" length="19.52" width="3.50" customShape="1" shape="-786.32,768.71 -804.24,767.65 -805.80,767.53"/>
        <lane id="79517_1" index="1" disallow="pedestrian tram rail_urban rail rail_electric rail_fast ship" speed="36.11" length="19.43" width="3.50" customShape="1" shape="-786.12,765.21 -803.98,764.16 -805.51,764.04"/>
        <lane id="79517_2" index="2" disallow="pedestrian tram rail_urban rail rail_electric rail_fast ship" speed="36.11" length="19.35" width="3.50" customShape="1" shape="-785.91,761.72 -803.71,760.67 -805.22,760.55"/>
    </edge>
    <edge id="79521" from="48" to="55" priority="3" type="highway.residential" spreadType="center" length="8.91">
        <lane id="79521_0" index="0" disallow="pedestrian tram rail_urban rail rail_electric rail_fast ship" speed="36.11" length="9.32" width="3.49" customShape="1" shape="-808.87,767.26 -815.56,766.57 -818.13,766.22"/>
        <lane id="79521_1" index="1" disallow="pedestrian tram rail_urban rail rail_electric rail_fast ship" speed="36.11" length="9.11" width="3.50" customShape="1" shape="-808.56,763.77 -815.11,763.10 -817.61,762.76"/>
        <lane id="79521_2" index="2" disallow="pedestrian tram rail_urban rail rail_electric rail_fast ship" speed="36.11" length="8.91" width="3.50" customShape="1" shape="-808.24,760.29 -814.65,759.63 -817.09,759.30"/>
    </edge>
    <edge id="79645" from="16" to="17" priority="3" type="highway.residential" spreadType="center" length="24.99">
        <lane id="79645_0" index="0" disallow="pedestrian tram rail_urban rail rail_electric rail_fast ship" speed="36.11" length="24.99" width="3.50" customShape="1" shape="-801.51,746.00 -798.94,746.42 -776.88,750.24"/>
    </edge>
    <edge id="79647" from="60" to="51" priority="3" type="highway.residential" spreadType="center" length="20.74">
        <lane id="79647_0" index="0" disallow="pedestrian tram rail_urban rail rail_electric rail_fast ship" speed="36.11" length="20.74" width="3.50" customShape="1" shape="-782.20,756.42 -800.09,753.33 -802.64,752.91"/>
        <lane id="79647_1" index="1" disallow="pedestrian tram rail_urban rail rail_electric rail_fast ship" speed="36.11" length="20.77" width="3.50" customShape="1" shape="-781.60,752.97 -799.52,749.87 -802.07,749.45"/>
    </edge>
    <edge id="79651" from="51" to="57" priority="3" type="highway.residential" spreadType="center" length="11.07" shape="-803.84,750.94 -824.84,749.13">
        <lane id="79651_0" index="0" disallow="pedestrian tram rail_urban rail rail_electric rail_fast ship" speed="36.11" length="11.10" width="3.50" customShape="1" shape="-805.62,752.40 -811.48,751.39 -816.56,750.51"/>
        <lane id="79651_1" index="1" disallow="pedestrian tram rail_urban rail rail_electric rail_fast ship" speed="36.11" length="11.07" width="3.50" customShape="1" shape="-805.04,748.95 -810.87,747.94 -815.95,747.06"/>
    </edge>
    <edge id="79869" from="64" to="47" priority="3" type="highway.residential" spreadType="center" length="16.86">
        <lane id="79869_0" index="0" disallow="pedestrian tram rail_urban rail rail_electric rail_fast ship" speed="36.11" length="16.91" width="3.50" customShape="1" shape="-870.73,723.89 -862.32,724.63 -853.89,725.38"/>
        <lane id="79869_1" index="1" disallow="pedestrian tram rail_urban rail rail_electric rail_fast ship" speed="36.11" length="16.89" width="3.50" customShape="1" shape="-871.03,727.37 -862.63,728.12 -854.21,728.87"/>
        <lane id="79869_2" index="2" disallow="pedestrian tram rail_urban rail rail_electric rail_fast ship" speed="36.11" length="16.86" width="3.50" customShape="1" shape="-871.33,730.86 -862.94,731.61 -854.54,732.35"/>
    </edge>
    <edge id="79873" from="47" to="56" priority="3" type="highway.residential" spreadType="center" length="18.87">
        <lane id="79873_0" index="0" disallow="pedestrian tram rail_urban rail rail_electric rail_fast ship" speed="36.11" length="19.31" width="3.49" customShape="1" shape="-850.84,725.68 -838.35,727.00 -831.66,727.92"/>
        <lane id="79873_1" index="1" disallow="pedestrian tram rail_urban rail rail_electric rail_fast ship" speed="36.11" length="19.08" width="3.50" customShape="1" shape="-851.18,729.16 -838.82,730.47 -832.23,731.38"/>
        <lane id="79873_2" index="2" disallow="pedestrian tram rail_urban rail rail_electric rail_fast ship" speed="36.11" length="18.87" width="3.50" customShape="1" shape="-851.53,732.64 -839.29,733.94 -832.79,734.83"/>
    </edge>
    <edge id="79929" from="55" to="13" priority="3" type="highway.residential" spreadType="center" length="65.13">
        <lane id="79929_0" index="0" disallow="pedestrian tram rail_urban rail rail_electric rail_fast ship" speed="36.11" length="65.13" width="3.50" customShape="1" shape="-846.85,758.21 -876.88,753.33 -894.34,750.84 -908.86,749.11 -911.30,748.91"/>
    </edge>
    <edge id="80002" from="50" to="57" priority="3" type="highway.residential" spreadType="center" length="16.69" shape="-849.21,739.72 -823.15,742.33">