<routes>
	<vehicle depart="0.1" departLane="1" departPos="90.06239159177309" departSpeed="11.56067" id="1" type="passenger">
		<route edges="26 28 24"/>
	</vehicle>
	<vehicle depart="0.1" departLane="0" departPos="0" departSpeed="11.56067" id="2" type="passenger">
		<route edges="26 26 28 24"/>
	</vehicle>
	<vehicle depart="0.1" departLane="0" departPos="90.04778186769795" departSpeed="14.56067" id="3" type="passenger">
		<route edges="26 27 24"/>
	</vehicle>
</routes>
