<!-- generated on Tue Feb  9 22:19:54 2021 by Eclipse SUMO netconvert Version 1.8.0
<configuration xmlns:xsi="http://www.w3.org/2001/XMLSchema-instance" xsi:noNamespaceSchemaLocation="http://sumo.dlr.de/xsd/netconvertConfiguration.xsd">

    <input>
        <node-files value="./converted_scenarios/scenario-factory/ESP_Monzon-5_1_I-1-1/ESP_Monzon-5_1_I-1-1.nod.xml"/>
        <edge-files value="./converted_scenarios/scenario-factory/ESP_Monzon-5_1_I-1-1/ESP_Monzon-5_1_I-1-1.edg.xml"/>
        <connection-files value="./converted_scenarios/scenario-factory/ESP_Monzon-5_1_I-1-1/ESP_Monzon-5_1_I-1-1.con.xml"/>
        <tllogic-files value="./converted_scenarios/scenario-factory/ESP_Monzon-5_1_I-1-1/ESP_Monzon-5_1_I-1-1.tll.xml"/>
        <type-files value="/home/zen/commonroad-interactive-benchmarks/install/commonroad-map-tool/crmapconverter/sumo_map/templates/DEU.typ.xml"/>
    </input>

    <output>
        <output-file value="./converted_scenarios/scenario-factory/ESP_Monzon-5_1_I-1-1/ESP_Monzon-5_1_I-1-1.net.xml"/>
    </output>

    <processing>
        <geometry.remove.keep-edges.explicit value="true"/>
        <geometry.avoid-overlap value="true"/>
        <offset.disable-normalization value="true"/>
    </processing>

    <junctions>
        <no-turnarounds value="true"/>
        <junctions.internal-link-detail value="20"/>
    </junctions>

    <report>
        <aggregate-warnings value="5"/>
    </report>

    <random_number>
        <seed value="1234"/>
    </random_number>

</configuration>
--><net xmlns:xsi="http://www.w3.org/2001/XMLSchema-instance" version="1.6" junctionCornerDetail="5" junctionLinkDetail="20" limitTurnSpeed="5.50" xsi:noNamespaceSchemaLocation="http://sumo.dlr.de/xsd/net_file.xsd">

    <location netOffset="0.00,0.00" convBoundary="8.02,-459.74,250.08,-249.69" origBoundary="7.52,-459.74,251.11,-249.69" projParameter="!"/>

    <type id="highway.bridleway" priority="1" speed="2.78" allow="pedestrian" oneway="1" width="2.00"/>
    <type id="highway.bus_guideway" priority="1" speed="27.78" allow="bus" oneway="1"/>
    <type id="highway.cycleway" priority="1" speed="8.33" allow="bicycle" oneway="0" width="1.00"/>
    <type id="highway.footway" priority="1" speed="2.78" allow="pedestrian" oneway="1" width="2.00"/>
    <type id="highway.ford" priority="1" speed="2.78" allow="army" oneway="0"/>
    <type id="highway.living_street" priority="2" speed="2.78" disallow="tram rail_urban rail rail_electric rail_fast ship" oneway="0"/>
    <type id="highway.motorway" priority="14" speed="39.44" allow="private emergency authority army vip passenger hov taxi bus coach delivery truck trailer motorcycle evehicle custom1 custom2" oneway="1"/>
    <type id="highway.motorway_link" priority="9" speed="22.22" allow="private emergency authority army vip passenger hov taxi bus coach delivery truck trailer motorcycle evehicle custom1 custom2" oneway="1"/>
    <type id="highway.path" priority="1" speed="2.78" allow="pedestrian bicycle" oneway="0" width="2.00"/>
    <type id="highway.pedestrian" priority="1" speed="2.78" allow="pedestrian" oneway="1" width="2.00"/>
    <type id="highway.primary" priority="12" speed="27.78" disallow="pedestrian tram rail_urban rail rail_electric rail_fast ship" oneway="0"/>
    <type id="highway.primary_link" priority="7" speed="22.22" disallow="pedestrian tram rail_urban rail rail_electric rail_fast ship" oneway="0"/>
    <type id="highway.raceway" priority="15" speed="83.33" allow="vip" oneway="0"/>
    <type id="highway.residential" priority="3" speed="13.89" disallow="pedestrian tram rail_urban rail rail_electric rail_fast ship" oneway="0"/>
    <type id="highway.secondary" priority="11" speed="27.78" disallow="pedestrian tram rail_urban rail rail_electric rail_fast ship" oneway="0"/>
    <type id="highway.secondary_link" priority="6" speed="22.22" disallow="pedestrian tram rail_urban rail rail_electric rail_fast ship" oneway="0"/>
    <type id="highway.service" priority="1" speed="5.56" allow="pedestrian delivery bicycle" oneway="0"/>
    <type id="highway.stairs" priority="1" speed="1.39" allow="pedestrian" oneway="1" width="2.00"/>
    <type id="highway.step" priority="1" speed="1.39" allow="pedestrian" oneway="1" width="2.00"/>
    <type id="highway.steps" priority="1" speed="1.39" allow="pedestrian" oneway="1" width="2.00"/>
    <type id="highway.tertiary" priority="10" speed="22.22" disallow="pedestrian tram rail_urban rail rail_electric rail_fast ship" oneway="0"/>
    <type id="highway.tertiary_link" priority="5" speed="22.22" disallow="pedestrian tram rail_urban rail rail_electric rail_fast ship" oneway="0"/>
    <type id="highway.track" priority="1" speed="5.56" allow="pedestrian motorcycle moped bicycle" oneway="0"/>
    <type id="highway.trunk" priority="13" speed="27.78" disallow="pedestrian bicycle tram rail_urban rail rail_electric rail_fast ship" oneway="0"/>
    <type id="highway.trunk_link" priority="8" speed="22.22" disallow="pedestrian bicycle tram rail_urban rail rail_electric rail_fast ship" oneway="0"/>
    <type id="highway.unclassified" priority="4" speed="13.89" disallow="pedestrian tram rail_urban rail rail_electric rail_fast ship" oneway="0"/>
    <type id="highway.unsurfaced" priority="1" speed="8.33" disallow="tram rail_urban rail rail_electric rail_fast ship" oneway="0"/>
    <type id="railway.highspeed" priority="21" speed="69.44" allow="rail_fast" oneway="1"/>
    <type id="railway.light_rail" priority="19" speed="27.78" allow="rail_urban" oneway="1"/>
    <type id="railway.preserved" priority="16" speed="27.78" allow="rail" oneway="1"/>
    <type id="railway.rail" priority="20" speed="44.44" allow="rail" oneway="1"/>
    <type id="railway.subway" priority="18" speed="27.78" allow="rail_urban" oneway="1"/>
    <type id="railway.tram" priority="17" speed="13.89" allow="tram" oneway="1"/>

    <edge id=":14_0" function="internal">
        <lane id=":14_0_0" index="0" disallow="pedestrian tram rail_urban rail rail_electric rail_fast ship" speed="36.11" length="0.10" width="3.50" shape="77.57,-443.32 77.57,-443.32"/>
    </edge>
    <edge id=":3_0" function="internal">
        <lane id=":3_0_0" index="0" disallow="pedestrian tram rail_urban rail rail_electric rail_fast ship" speed="36.11" length="3.77" width="3.50" shape="75.06,-418.00 73.06,-421.20"/>
    </edge>
    <edge id=":51_0" function="internal">
        <lane id=":51_0_0" index="0" disallow="pedestrian tram rail_urban rail rail_electric rail_fast ship" speed="11.41" length="29.30" width="3.50" shape="170.24,-400.94 168.07,-403.37 166.47,-404.84 164.72,-406.13 162.83,-407.19 160.81,-407.97 159.75,-408.23 158.68,-408.41 157.60,-408.50 156.52,-408.51 154.36,-408.26 152.26,-407.72 150.24,-406.93 148.30,-405.95 145.56,-404.19 144.69,-403.55"/>
    </edge>
    <edge id=":51_1" function="internal">
        <lane id=":51_1_0" index="0" disallow="pedestrian tram rail_urban rail rail_electric rail_fast ship" speed="36.11" length="39.61" width="3.50" shape="170.24,-400.94 168.94,-402.56 158.98,-414.60 144.68,-431.20"/>
    </edge>
    <edge id=":51_2" function="internal">
        <lane id=":51_2_0" index="0" disallow="pedestrian tram rail_urban rail rail_electric rail_fast ship" speed="12.07" length="33.99" width="3.50" shape="170.24,-400.94 167.95,-404.13 166.65,-406.40 165.59,-408.79 164.84,-411.29 164.61,-412.58 164.48,-413.88 164.46,-415.19 164.56,-416.49 164.77,-417.78 165.10,-419.04 165.54,-420.28 166.69,-422.62 168.16,-424.78 169.87,-426.76 171.75,-428.58 173.77,-430.24"/>
    </edge>
    <edge id=":51_3" function="internal">
        <lane id=":51_3_0" index="0" disallow="pedestrian tram rail_urban rail rail_electric rail_fast ship" speed="11.06" length="28.34" width="3.50" shape="175.91,-427.47 174.16,-426.03 172.54,-424.47 171.09,-422.79 169.87,-421.00 168.91,-419.06 168.58,-418.09 168.31,-417.08 168.14,-416.06 168.07,-415.02 168.08,-413.98 168.18,-412.93 168.37,-411.92 168.99,-409.82 169.88,-407.82 170.98,-405.90 172.97,-403.13"/>
    </edge>
    <edge id=":51_4" function="internal">
        <lane id=":51_4_0" index="0" disallow="pedestrian tram rail_urban rail rail_electric rail_fast ship" speed="36.11" length="39.33" width="3.50" shape="175.91,-427.47 160.30,-415.51 144.69,-403.55"/>
    </edge>
    <edge id=":51_5" function="internal">
        <lane id=":51_5_0" index="0" disallow="pedestrian tram rail_urban rail rail_electric rail_fast ship" speed="12.72" length="35.50" width="3.50" shape="175.91,-427.47 172.86,-425.37 170.66,-424.15 168.33,-423.15 165.88,-422.41 163.32,-422.00 160.71,-421.97 158.13,-422.33 155.64,-423.06 153.30,-424.10 151.12,-425.40 149.10,-426.89 147.23,-428.54 144.68,-431.20"/>
    </edge>
    <edge id=":51_6" function="internal">
        <lane id=":51_6_0" index="0" disallow="pedestrian tram rail_urban rail rail_electric rail_fast ship" speed="11.75" length="30.16" width="3.50" shape="147.31,-433.51 149.55,-431.16 151.17,-429.74 152.90,-428.46 154.75,-427.35 156.71,-426.47 158.77,-425.85 160.90,-425.55 163.06,-425.57 165.18,-425.90 167.25,-426.52 169.23,-427.37 171.11,-428.41 173.77,-430.24"/>
    </edge>
    <edge id=":51_7" function="internal">
        <lane id=":51_7_0" index="0" disallow="pedestrian tram rail_urban rail rail_electric rail_fast ship" speed="36.11" length="39.77" width="3.50" shape="147.31,-433.51 161.66,-416.85 171.66,-404.76 172.97,-403.13"/>
    </edge>
    <edge id=":51_8" function="internal">
        <lane id=":51_8_0" index="0" disallow="pedestrian tram rail_urban rail rail_electric rail_fast ship" speed="12.03" length="35.08" width="3.50" shape="147.31,-433.51 149.83,-430.32 151.29,-428.06 152.52,-425.65 153.44,-423.12 153.75,-421.81 153.96,-420.48 154.05,-419.13 154.01,-417.78 153.84,-416.44 153.55,-415.13 153.13,-413.84 152.61,-412.60 151.27,-410.26 149.63,-408.12 147.77,-406.17 145.75,-404.38 144.69,-403.55"/>
    </edge>
    <edge id=":51_9" function="internal">
        <lane id=":51_9_0" index="0" disallow="pedestrian tram rail_urban rail rail_electric rail_fast ship" speed="11.01" length="29.23" width="3.50" shape="142.57,-406.33 143.48,-407.05 145.24,-408.60 146.82,-410.26 148.19,-412.05 149.30,-414.00 149.71,-414.97 150.04,-416.00 150.27,-417.04 150.40,-418.10 150.43,-419.17 150.35,-420.24 150.18,-421.31 149.93,-422.35 149.16,-424.47 148.12,-426.49 146.88,-428.42 144.68,-431.20"/>
    </edge>
    <edge id=":51_10" function="internal">
        <lane id=":51_10_0" index="0" disallow="pedestrian tram rail_urban rail rail_electric rail_fast ship" speed="36.11" length="39.31" width="3.50" shape="142.57,-406.33 158.17,-418.29 173.77,-430.24"/>
    </edge>
    <edge id=":51_11" function="internal">
        <lane id=":51_11_0" index="0" disallow="pedestrian tram rail_urban rail rail_electric rail_fast ship" speed="12.40" length="34.79" width="3.50" shape="142.57,-406.33 143.60,-407.09 146.72,-409.09 149.00,-410.24 151.39,-411.17 153.92,-411.81 156.50,-412.10 157.86,-412.09 159.19,-411.97 160.50,-411.75 161.82,-411.41 164.25,-410.46 166.52,-409.18 168.59,-407.65 170.48,-405.93 172.97,-403.13"/>
    </edge>
    <edge id=":52_0" function="internal">
        <lane id=":52_0_0" index="0" disallow="pedestrian tram rail_urban rail rail_electric rail_fast ship" speed="36.11" length="10.03" width="3.50" shape="106.13,-370.27 103.97,-373.77 100.85,-378.80"/>
    </edge>
    <edge id=":52_1" function="internal">
        <lane id=":52_1_0" index="0" disallow="pedestrian tram rail_urban rail rail_electric rail_fast ship" speed="9.36" length="18.44" width="3.50" shape="108.57,-371.83 108.55,-372.41 108.78,-374.71 109.36,-376.94 110.25,-379.06 111.42,-381.04 113.19,-383.32 115.22,-385.36 117.44,-387.20"/>
    </edge>
    <edge id=":52_2" function="internal">
        <lane id=":52_2_0" index="0" disallow="pedestrian tram rail_urban rail rail_electric rail_fast ship" speed="8.48" length="16.65" width="3.50" shape="119.56,-384.42 117.13,-382.75 114.52,-381.39 112.30,-380.60 109.98,-380.15 108.22,-380.09 106.46,-380.26 104.74,-380.69 104.06,-380.97"/>
    </edge>
    <edge id=":53_0" function="internal">
        <lane id=":53_0_0" index="0" disallow="pedestrian tram rail_urban rail rail_electric rail_fast ship" speed="36.11" length="43.76" width="3.50" shape="226.76,-366.72 216.16,-358.99 191.56,-340.73"/>
        <lane id=":53_0_1" index="1" disallow="pedestrian tram rail_urban rail rail_electric rail_fast ship" speed="36.11" length="43.81" width="3.50" shape="224.70,-369.55 214.09,-361.80 189.46,-343.53"/>
    </edge>
    <edge id=":53_2" function="internal">
        <lane id=":53_2_0" index="0" disallow="pedestrian tram rail_urban rail rail_electric rail_fast ship" speed="13.14" length="38.53" width="3.50" shape="224.70,-369.55 221.82,-367.64 218.78,-366.02 216.10,-364.96 213.32,-364.23 211.04,-363.93 208.74,-363.92 206.46,-364.19 204.23,-364.76 201.57,-365.84 199.07,-367.27 196.76,-368.98 194.21,-371.30 191.52,-374.30 191.16,-374.75"/>
    </edge>
    <edge id=":53_3" function="internal">
        <lane id=":53_3_0" index="0" disallow="pedestrian tram rail_urban rail rail_electric rail_fast ship" speed="12.83" length="38.93" width="3.50" shape="193.89,-376.93 195.99,-374.08 197.81,-371.04 199.04,-368.36 199.93,-365.55 200.33,-363.22 200.43,-360.87 200.20,-358.52 199.63,-356.23 198.75,-354.04 197.61,-351.97 195.90,-349.58 193.92,-347.38 191.31,-344.99 189.46,-343.53"/>
    </edge>
    <edge id=":53_4" function="internal">
        <lane id=":53_4_0" index="0" disallow="pedestrian tram rail_urban rail rail_electric rail_fast ship" speed="11.37" length="30.29" width="3.50" shape="185.25,-349.12 188.41,-351.72 190.86,-354.21 192.64,-356.51 193.81,-358.52 194.69,-360.68 195.11,-362.38 195.29,-364.11 195.22,-365.86 194.92,-367.58 194.19,-369.79 193.14,-371.87 191.52,-374.29 191.16,-374.75"/>
    </edge>
    <edge id=":53_5" function="internal">
        <lane id=":53_5_0" index="0" disallow="pedestrian tram rail_urban rail rail_electric rail_fast ship" speed="36.11" length="43.87" width="3.50" shape="187.36,-346.33 212.01,-364.62 222.65,-372.39"/>
    </edge>
    <edge id=":54_0" function="internal">
        <lane id=":54_0_0" index="0" disallow="pedestrian tram rail_urban rail rail_electric rail_fast ship" speed="36.11" length="28.67" width="3.49" shape="163.75,-319.86 152.32,-311.22 140.88,-302.57"/>
        <lane id=":54_0_1" index="1" disallow="pedestrian tram rail_urban rail rail_electric rail_fast ship" speed="36.11" length="28.74" width="3.50" shape="161.66,-322.67 150.20,-314.00 138.74,-305.33"/>
    </edge>
    <edge id=":54_2" function="internal">
        <lane id=":54_2_0" index="0" disallow="pedestrian tram rail_urban rail rail_electric rail_fast ship" speed="9.84" length="23.19" width="3.50" shape="161.66,-322.67 158.72,-320.68 156.11,-319.29 153.36,-318.24 151.06,-317.70 148.70,-317.51 146.35,-317.71 144.06,-318.29 141.90,-319.23 140.25,-320.24"/>
    </edge>
    <edge id=":54_3" function="internal">
        <lane id=":54_3_0" index="0" disallow="pedestrian tram rail_urban rail rail_electric rail_fast ship" speed="6.40" length="8.05" width="3.50" shape="134.45,-310.87 135.66,-312.06 136.28,-313.00 136.86,-314.58 137.05,-316.25 136.95,-317.94 136.91,-318.11"/>
    </edge>
    <edge id=":54_4" function="internal">
        <lane id=":54_4_0" index="0" disallow="pedestrian tram rail_urban rail rail_electric rail_fast ship" speed="36.11" length="28.83" width="3.50" shape="134.45,-310.87 145.96,-319.58 157.45,-328.26"/>
        <lane id=":54_4_1" index="1" disallow="pedestrian tram rail_urban rail rail_electric rail_fast ship" speed="36.11" length="28.79" width="3.50" shape="136.60,-308.10 148.08,-316.79 159.56,-325.47"/>
    </edge>
    <edge id=":55_0" function="internal">
        <lane id=":55_0_0" index="0" disallow="pedestrian tram rail_urban rail rail_electric rail_fast ship" speed="12.90" length="28.69" width="3.50" shape="145.42,-289.11 143.15,-290.68 141.19,-291.70 139.11,-292.45 136.96,-292.93 134.76,-293.12 132.00,-292.99 129.29,-292.50 126.13,-291.52 123.09,-290.20 119.69,-288.36 118.76,-287.78"/>
    </edge>
    <edge id=":55_1" function="internal">
        <lane id=":55_1_0" index="0" disallow="pedestrian tram rail_urban rail rail_electric rail_fast ship" speed="9.66" length="24.76" width="3.50" shape="145.42,-289.11 141.42,-292.52 138.52,-295.41 136.66,-297.66 135.38,-299.61 134.62,-301.19 134.17,-302.88 134.13,-304.04 134.34,-305.19 134.83,-306.25 135.54,-307.17 137.06,-308.47"/>
    </edge>
    <edge id=":55_2" function="internal">
        <lane id=":55_2_0" index="0" disallow="pedestrian tram rail_urban rail rail_electric rail_fast ship" speed="7.56" length="14.72" width="3.50" shape="141.36,-302.94 140.28,-302.01 140.02,-301.50 139.92,-300.93 139.99,-300.35 140.39,-299.27 141.33,-297.82 143.26,-295.66 146.26,-292.94 147.60,-291.84"/>
    </edge>
    <edge id=":55_3" function="internal">
        <lane id=":55_3_0" index="0" disallow="pedestrian tram rail_urban rail rail_electric rail_fast ship" speed="36.11" length="27.22" width="3.50" shape="141.36,-302.94 136.36,-299.28 131.99,-296.31 118.76,-287.78"/>
        <lane id=":55_3_1" index="1" disallow="pedestrian tram rail_urban rail rail_electric rail_fast ship" speed="36.11" length="26.88" width="3.50" shape="139.21,-305.70 134.29,-302.10 129.97,-299.17 116.89,-290.74"/>
    </edge>
    <edge id=":55_5" function="internal">
        <lane id=":55_5_0" index="0" disallow="pedestrian tram rail_urban rail rail_electric rail_fast ship" speed="36.11" length="26.18" width="3.50" shape="113.16,-296.67 125.99,-304.92 130.17,-307.76 134.91,-311.22"/>
        <lane id=":55_5_1" index="1" disallow="pedestrian tram rail_urban rail rail_electric rail_fast ship" speed="36.11" length="26.53" width="3.50" shape="115.03,-293.71 127.99,-302.05 132.24,-304.94 137.06,-308.47"/>
    </edge>
    <edge id=":55_7" function="internal">
        <lane id=":55_7_0" index="0" disallow="pedestrian tram rail_urban rail rail_electric rail_fast ship" speed="14.25" length="35.18" width="3.50" shape="115.03,-293.71 118.38,-295.59 121.40,-296.91 124.55,-297.89 127.25,-298.40 130.00,-298.60 132.74,-298.48 135.45,-298.03 138.10,-297.27 141.14,-296.00 144.02,-294.39 147.17,-292.18 147.60,-291.84"/>
    </edge>
    <edge id=":56_0" function="internal">
        <lane id=":56_0_0" index="0" disallow="pedestrian tram rail_urban rail rail_electric rail_fast ship" speed="12.06" length="42.84" width="3.50" shape="113.71,-260.24 110.18,-263.10 107.39,-265.82 105.33,-268.33 103.93,-270.52 103.09,-272.27 102.48,-274.12 102.16,-276.04 102.15,-277.99 102.47,-279.91 103.10,-281.75 103.97,-283.49 105.44,-285.64 107.15,-287.59 109.54,-289.78 112.65,-292.14 114.81,-293.57"/>
    </edge>
    <edge id=":56_1" function="internal">
        <lane id=":56_1_0" index="0" disallow="pedestrian tram rail_urban rail rail_electric rail_fast ship" speed="10.43" length="31.75" width="3.50" shape="118.54,-287.65 115.34,-285.44 112.85,-283.36 111.06,-281.49 109.90,-279.93 108.96,-278.23 108.34,-276.39 108.12,-274.46 108.34,-272.53 108.96,-270.69 109.89,-268.99 111.47,-266.93 113.30,-265.10 115.81,-263.04"/>
    </edge>
    <edge id=":56_2" function="internal">
        <lane id=":56_2_0" index="0" disallow="pedestrian tram rail_urban rail rail_electric rail_fast ship" speed="36.11" length="44.79" width="3.50" shape="116.68,-290.61 109.02,-285.96 101.20,-281.59 97.23,-279.53 93.20,-277.56 89.13,-275.71 84.99,-273.99 80.80,-272.42 76.54,-271.02"/>
    </edge>
    <edge id=":56_3" function="internal">
        <lane id=":56_3_0" index="0" disallow="pedestrian tram rail_urban rail rail_electric rail_fast ship" speed="36.11" length="42.91" width="3.50" shape="74.52,-277.72 78.60,-279.06 82.62,-280.58 86.57,-282.23 90.48,-284.01 94.33,-285.90 98.13,-287.88 105.62,-292.08 112.95,-296.53"/>
        <lane id=":56_3_1" index="1" disallow="pedestrian tram rail_urban rail rail_electric rail_fast ship" speed="36.11" length="43.84" width="3.50" shape="75.53,-274.37 79.74,-275.75 83.84,-277.29 87.88,-278.98 91.86,-280.80 95.80,-282.72 99.69,-284.75 107.35,-289.04 114.81,-293.57"/>
    </edge>

    <edge id="14219" from="56" to="39" priority="3" type="highway.residential" spreadType="center" length="69.99" shape="102.63,-273.79 9.53,-250.80">
        <lane id="14219_0" index="0" disallow="pedestrian tram rail_urban rail rail_electric rail_fast ship" speed="36.11" length="69.99" width="3.50" customShape="1" shape="76.54,-271.02 9.53,-250.80"/>
    </edge>
    <edge id="14221" from="49" to="56" priority="3" type="highway.residential" spreadType="center" length="70.01" shape="8.02,-255.83 101.47,-278.90">
        <lane id="14221_0" index="0" disallow="pedestrian tram rail_urban rail rail_electric rail_fast ship" speed="36.11" length="70.01" width="3.50" customShape="1" shape="7.51,-257.50 74.53,-277.73"/>
        <lane id="14221_1" index="1" disallow="pedestrian tram rail_urban rail rail_electric rail_fast ship" speed="36.11" length="70.01" width="3.50" customShape="1" shape="8.52,-254.15 75.54,-274.38"/>
    </edge>
    <edge id="14223" from="55" to="56" priority="3" type="highway.residential" spreadType="center" length="0.25" shape="135.27,-293.52 103.86,-272.40">
        <lane id="14223_0" index="0" disallow="pedestrian tram rail_urban rail rail_electric rail_fast ship" speed="36.11" length="0.26" width="3.50" customShape="1" shape="118.76,-287.78 118.65,-287.71 118.54,-287.64"/>
        <lane id="14223_1" index="1" disallow="pedestrian tram rail_urban rail rail_electric rail_fast ship" speed="36.11" length="0.25" width="3.50" customShape="1" shape="116.89,-290.75 116.78,-290.68 116.68,-290.61"/>
    </edge>
    <edge id="14226" from="56" to="55" priority="3" type="highway.residential" spreadType="center" length="0.25" shape="99.97,-278.19 131.36,-299.33">
        <lane id="14226_0" index="0" disallow="pedestrian tram rail_urban rail rail_electric rail_fast ship" speed="36.11" length="0.25" width="3.50" customShape="1" shape="112.95,-296.53 113.06,-296.60 113.16,-296.67"/>
        <lane id="14226_1" index="1" disallow="pedestrian tram rail_urban rail rail_electric rail_fast ship" speed="36.11" length="0.26" width="3.50" customShape="1" shape="114.81,-293.57 114.92,-293.64 115.03,-293.71"/>
    </edge>
    <edge id="14228" from="54" to="55" priority="3" type="highway.residential" spreadType="center" length="0.20" shape="148.37,-317.06 136.14,-294.36">
        <lane id="14228_0" index="0" disallow="pedestrian tram rail_urban rail rail_electric rail_fast ship" speed="36.11" length="0.20" width="3.49" customShape="1" shape="141.52,-303.06 141.36,-302.94"/>
        <lane id="14228_1" index="1" disallow="pedestrian tram rail_urban rail rail_electric rail_fast ship" speed="36.11" length="0.20" width="3.50" customShape="1" shape="139.37,-305.82 139.21,-305.70"/>
    </edge>
    <edge id="14231" from="55" to="54" priority="3" type="highway.residential" spreadType="center" length="0.19" shape="130.03,-297.64 142.21,-320.37">
        <lane id="14231_0" index="0" disallow="pedestrian tram rail_urban rail rail_electric rail_fast ship" speed="36.11" length="0.20" width="3.50" customShape="1" shape="134.91,-311.22 135.07,-311.34"/>
        <lane id="14231_1" index="1" disallow="pedestrian tram rail_urban rail rail_electric rail_fast ship" speed="36.11" length="0.19" width="3.50" customShape="1" shape="137.06,-308.47 137.21,-308.59"/>
    </edge>
    <edge id="14233" from="53" to="54" priority="3" type="highway.residential" spreadType="center" length="34.77" shape="203.73,-361.18 147.35,-315.88">
        <lane id="14233_0" index="0" disallow="pedestrian tram rail_urban rail rail_electric rail_fast ship" speed="36.11" length="34.77" width="3.50" customShape="1" shape="191.56,-340.73 177.66,-330.30 163.75,-319.86"/>
        <lane id="14233_1" index="1" disallow="pedestrian tram rail_urban rail rail_electric rail_fast ship" speed="36.11" length="34.77" width="3.50" customShape="1" shape="189.46,-343.53 175.56,-333.10 161.65,-322.66"/>
    </edge>
    <edge id="14236" from="54" to="53" priority="3" type="highway.residential" spreadType="center" length="34.77" shape="142.97,-321.33 199.34,-366.64">
        <lane id="14236_0" index="0" disallow="pedestrian tram rail_urban rail rail_electric rail_fast ship" speed="36.11" length="34.77" width="3.50" customShape="1" shape="157.45,-328.26 171.36,-338.70 185.26,-349.13"/>
        <lane id="14236_1" index="1" disallow="pedestrian tram rail_urban rail rail_electric rail_fast ship" speed="36.11" length="34.77" width="3.50" customShape="1" shape="159.55,-325.46 173.46,-335.90 187.36,-346.33"/>
    </edge>
    <edge id="14238" from="48" to="53" priority="3" type="highway.residential" spreadType="center" length="30.10" shape="250.08,-385.82 202.98,-360.72">
        <lane id="14238_0" index="0" disallow="pedestrian tram rail_urban rail rail_electric rail_fast ship" speed="36.11" length="30.11" width="3.50" customShape="1" shape="251.11,-384.41 238.93,-375.56 226.75,-366.72"/>
        <lane id="14238_1" index="1" disallow="pedestrian tram rail_urban rail rail_electric rail_fast ship" speed="36.11" length="30.10" width="3.50" customShape="1" shape="249.05,-387.24 236.87,-378.39 224.70,-369.55"/>
    </edge>
    <edge id="14240" from="53" to="43" priority="3" type="highway.residential" spreadType="center" length="30.09" shape="200.66,-365.43 247.00,-390.07">
        <lane id="14240_0" index="0" disallow="pedestrian tram rail_urban rail rail_electric rail_fast ship" speed="36.11" length="30.09" width="3.50" customShape="1" shape="222.65,-372.39 234.82,-381.22 247.00,-390.07"/>
    </edge>
    <edge id="14362" from="50" to="56" priority="3" type="highway.residential" spreadType="center" length="7.27" shape="119.54,-255.89 100.87,-274.32">
        <lane id="14362_0" index="0" disallow="pedestrian tram rail_urban rail rail_electric rail_fast ship" speed="36.11" length="7.27" width="3.50" customShape="1" shape="119.54,-255.89 116.62,-258.06 113.71,-260.24"/>
    </edge>
    <edge id="14363" from="56" to="42" priority="3" type="highway.residential" spreadType="center" length="7.26" shape="103.32,-276.80 121.63,-258.70">
        <lane id="14363_0" index="0" disallow="pedestrian tram rail_urban rail rail_electric rail_fast ship" speed="36.11" length="7.26" width="3.50" customShape="1" shape="115.81,-263.04 118.72,-260.87 121.63,-258.70"/>
    </edge>
    <edge id="14456" from="54" to="52" priority="3" type="highway.residential" spreadType="center" length="60.53">
        <lane id="14456_0" index="0" disallow="pedestrian tram rail_urban rail rail_electric rail_fast ship" speed="36.11" length="60.53" width="3.50" customShape="1" shape="138.48,-319.11 122.41,-344.33 105.96,-370.16"/>
    </edge>
    <edge id="14458" from="52" to="3" priority="3" type="highway.residential" spreadType="center" length="46.92">
        <lane id="14458_0" index="0" disallow="pedestrian tram rail_urban rail rail_electric rail_fast ship" speed="36.11" length="46.92" width="3.50" customShape="1" shape="101.16,-379.01 83.99,-404.35 75.06,-418.00"/>
    </edge>
    <edge id="14536" from="51" to="21" priority="3" type="highway.residential" spreadType="center" length="32.39" shape="157.74,-415.85 123.28,-455.52">
        <lane id="14536_0" index="0" disallow="pedestrian tram rail_urban rail rail_electric rail_fast ship" speed="36.11" length="32.39" width="3.50" customShape="1" shape="144.68,-431.20 133.98,-443.35 123.28,-455.52"/>
    </edge>
    <edge id="14537" from="46" to="51" priority="3" type="highway.residential" spreadType="center" length="32.42" shape="125.90,-457.83 160.38,-418.15">
        <lane id="14537_0" index="0" disallow="pedestrian tram rail_urban rail rail_electric rail_fast ship" speed="36.11" length="32.42" width="3.50" customShape="1" shape="125.90,-457.83 136.61,-445.67 147.32,-433.50"/>
    </edge>
    <edge id="14539" from="53" to="51" priority="3" type="highway.residential" spreadType="center" length="33.52" shape="200.20,-362.78 157.65,-415.95">
        <lane id="14539_0" index="0" disallow="pedestrian tram rail_urban rail rail_electric rail_fast ship" speed="36.11" length="33.52" width="3.50" customShape="1" shape="191.16,-374.75 180.70,-387.85 170.24,-400.94"/>
    </edge>
    <edge id="14540" from="51" to="53" priority="3" type="highway.residential" spreadType="center" length="33.53" shape="160.38,-418.14 202.93,-364.97">
        <lane id="14540_0" index="0" disallow="pedestrian tram rail_urban rail rail_electric rail_fast ship" speed="36.11" length="33.53" width="3.50" customShape="1" shape="172.97,-403.13 183.43,-390.03 193.90,-376.93"/>
    </edge>
    <edge id="14611" from="51" to="52" priority="3" type="highway.residential" spreadType="center" length="31.59" shape="160.08,-415.65 111.80,-378.98">
        <lane id="14611_0" index="0" disallow="pedestrian tram rail_urban rail rail_electric rail_fast ship" speed="36.11" length="31.59" width="3.50" customShape="1" shape="144.69,-403.55 132.12,-393.98 119.56,-384.41"/>
    </edge>
    <edge id="14612" from="52" to="51" priority="3" type="highway.residential" spreadType="center" length="31.58" shape="109.68,-381.76 157.96,-418.44">
        <lane id="14612_0" index="0" disallow="pedestrian tram rail_urban rail rail_electric rail_fast ship" speed="36.11" length="31.58" width="3.50" customShape="1" shape="117.44,-387.20 130.00,-396.76 142.57,-406.33"/>
    </edge>
    <edge id="14614" from="47" to="51" priority="3" type="highway.residential" spreadType="center" length="36.04" shape="204.44,-449.48 160.03,-415.62">
        <lane id="14614_0" index="0" disallow="pedestrian tram rail_urban rail rail_electric rail_fast ship" speed="36.11" length="36.04" width="3.50" customShape="1" shape="204.44,-449.48 190.17,-438.48 175.90,-427.47"/>
    </edge>
    <edge id="14615" from="51" to="23" priority="3" type="highway.residential" spreadType="center" length="36.06" shape="157.91,-418.40 202.32,-452.27">