<routes>
	<vehicle depart="0.1" departLane="0" departPos="5.743553382320757" departSpeed="6.838346" id="325" type="passenger">
		<route edges=":52_1 14612"/>
	</vehicle>
</routes>
