<routes>
	<vehicle depart="0.1" departLane="0" departPos="7.838775612590002" departSpeed="7.264918" id="340" type="bicycle">
		<route edges="51847 51850 51853"/>
	</vehicle>
	<vehicle depart="0.1" departLane="0" departPos="62.47564304891938" departSpeed="0.1794367" id="317" type="passenger">
		<route edges="51740 51743"/>
	</vehicle>
	<vehicle depart="0.1" departLane="0" departPos="54.80781161643587" departSpeed="0.24785182" id="319" type="passenger">
		<route edges="51740 51743"/>
	</vehicle>
	<vehicle depart="0.1" departLane="0" departPos="2.5" departSpeed="1.5765531" id="322" type="passenger">
		<route edges=":29_2 51743"/>
	</vehicle>
	<vehicle depart="0.1" departLane="0" departPos="47.813395424476646" departSpeed="0.024735901" id="326" type="passenger">
		<route edges="51740 51743"/>
	</vehicle>
	<vehicle depart="0.1" departLane="0" departPos="17.19586617326037" departSpeed="9.0204652" id="348" type="passenger">
		<route edges=":29_0 51847 52086"/>
	</vehicle>
	<vehicle depart="0.1" departLane="0" departPos="7.011986247415985" departSpeed="9.268451" id="351" type="passenger">
		<route edges=":29_0 51847 52086"/>
	</vehicle>
	<vehicle depart="0.1" departLane="0" departPos="18.61673995421842" departSpeed="3.4376374" id="356" type="passenger">
		<route edges="51742 51739"/>
	</vehicle>
	<vehicle depart="0.1" departLane="0" departPos="33.74576409386421" departSpeed="5.3205729" id="355" type="motorcycle">
		<route edges="51742 51739"/>
	</vehicle>
</routes>
