<routes>
	<vehicle depart="0.1" departLane="0" departPos="20.032004529661013" departSpeed="6.3329366" id="1" type="passenger">
		<route edges="50201 50213 50197"/>
	</vehicle>
	<vehicle depart="0.1" departLane="0" departPos="89.19200206179899" departSpeed="3.3090071" id="2" type="passenger">
		<route edges="50195 50211 50199"/>
	</vehicle>
	<vehicle depart="0.1" departLane="0" departPos="146.54745683485132" departSpeed="2.4352131" id="4" type="passenger">
		<route edges="50205 50217 50199"/>
	</vehicle>
	<vehicle depart="0.1" departLane="0" departPos="154.547571615147" departSpeed="4.7053957" id="5" type="passenger">
		<route edges="50205 50217 50199"/>
	</vehicle>
	<vehicle depart="0.1" departLane="0" departPos="12.029683032889627" departSpeed="3.3255934" id="7" type="passenger">
		<route edges="50201 50213 50197"/>
	</vehicle>
</routes>
