<routes>
	<vehicle depart="0.1" departLane="0" departPos="11.87770636303291" departSpeed="12.04727" id="353" type="bus">
		<route edges="5930 5486"/>
	</vehicle>
	<vehicle depart="0.1" departLane="0" departPos="9.795188783234089" departSpeed="5.782379" id="31" type="passenger">
		<route edges=":29_5 5930"/>
	</vehicle>
	<vehicle depart="0.1" departLane="0" departPos="15.100857138479602" departSpeed="4.4935118" id="32" type="passenger">
		<route edges=":31_0 5929 6027"/>
	</vehicle>
	<vehicle depart="0.1" departLane="0" departPos="22.66022781841635" departSpeed="0.0045639516" id="310" type="passenger">
		<route edges=":30_4 6028"/>
	</vehicle>
	<vehicle depart="0.1" departLane="0" departPos="11.9189117548322" departSpeed="7.1379794" id="315" type="passenger">
		<route edges="5929 6027"/>
	</vehicle>
	<vehicle depart="0.1" departLane="0" departPos="9.420447467180317" departSpeed="6.1212668" id="319" type="passenger">
		<route edges=":29_0 6027 5831"/>
	</vehicle>
	<vehicle depart="0.1" departLane="0" departPos="10.703312437926852" departSpeed="8.4167676" id="354" type="passenger">
		<route edges=":29_2 5930 5486"/>
	</vehicle>
	<vehicle depart="0.1" departLane="0" departPos="60.1780113194515" departSpeed="10.324951" id="355" type="passenger">
		<route edges="6030 5930"/>
	</vehicle>
	<vehicle depart="0.1" departLane="0" departPos="21.344748796959575" departSpeed="0.8442946" id="329" type="motorcycle">
		<route edges=":31_1 5929"/>
	</vehicle>
	<vehicle depart="0.1" departLane="0" departPos="18.90476509783057" departSpeed="6.3924617" id="30" type="truck">
		<route edges=":29_0 6027 5831"/>
	</vehicle>
</routes>
