<routes>
	<vehicle depart="0.1" departLane="0" departPos="29.535399884232362" departSpeed="12.398845" id="333" type="passenger">
		<route edges=":66_4 54916 54919"/>
	</vehicle>
	<vehicle depart="0.1" departLane="0" departPos="17.199805179957046" departSpeed="17.126631" id="345" type="passenger">
		<route edges=":64_3 54915 54940"/>
	</vehicle>
	<vehicle depart="0.1" departLane="0" departPos="9.872956300230866" departSpeed="8.6607754" id="319" type="motorcycle">
		<route edges=":64_4 54919"/>
	</vehicle>
	<vehicle depart="0.1" departLane="0" departPos="4.336005913961685" departSpeed="11.855019" id="331" type="motorcycle">
		<route edges="54915 54940"/>
	</vehicle>
</routes>
