<!-- generated on Tue Feb  9 22:20:55 2021 by Eclipse SUMO netconvert Version 1.8.0
<configuration xmlns:xsi="http://www.w3.org/2001/XMLSchema-instance" xsi:noNamespaceSchemaLocation="http://sumo.dlr.de/xsd/netconvertConfiguration.xsd">

    <input>
        <node-files value="./converted_scenarios/scenario-factory/ESP_PriegodeCordoba-2_2_I-1-1/ESP_PriegodeCordoba-2_2_I-1-1.nod.xml"/>
        <edge-files value="./converted_scenarios/scenario-factory/ESP_PriegodeCordoba-2_2_I-1-1/ESP_PriegodeCordoba-2_2_I-1-1.edg.xml"/>
        <connection-files value="./converted_scenarios/scenario-factory/ESP_PriegodeCordoba-2_2_I-1-1/ESP_PriegodeCordoba-2_2_I-1-1.con.xml"/>
        <tllogic-files value="./converted_scenarios/scenario-factory/ESP_PriegodeCordoba-2_2_I-1-1/ESP_PriegodeCordoba-2_2_I-1-1.tll.xml"/>
        <type-files value="/home/zen/commonroad-interactive-benchmarks/install/commonroad-map-tool/crmapconverter/sumo_map/templates/DEU.typ.xml"/>
    </input>

    <output>
        <output-file value="./converted_scenarios/scenario-factory/ESP_PriegodeCordoba-2_2_I-1-1/ESP_PriegodeCordoba-2_2_I-1-1.net.xml"/>
    </output>

    <processing>
        <geometry.remove.keep-edges.explicit value="true"/>
        <geometry.avoid-overlap value="true"/>
        <offset.disable-normalization value="true"/>
    </processing>

    <junctions>
        <no-turnarounds value="true"/>
        <junctions.internal-link-detail value="20"/>
    </junctions>

    <report>
        <aggregate-warnings value="5"/>
    </report>

    <random_number>
        <seed value="1234"/>
    </random_number>

</configuration>
--><net xmlns:xsi="http://www.w3.org/2001/XMLSchema-instance" version="1.6" junctionCornerDetail="5" junctionLinkDetail="20" limitTurnSpeed="5.50" xsi:noNamespaceSchemaLocation="http://sumo.dlr.de/xsd/net_file.xsd">

    <location netOffset="0.00,0.00" convBoundary="-925.24,550.00,-600.29,955.32" origBoundary="-925.24,550.00,-600.29,955.32" projParameter="!"/>

    <type id="highway.bridleway" priority="1" speed="2.78" allow="pedestrian" oneway="1" width="2.00"/>
    <type id="highway.bus_guideway" priority="1" speed="27.78" allow="bus" oneway="1"/>
    <type id="highway.cycleway" priority="1" speed="8.33" allow="bicycle" oneway="0" width="1.00"/>
    <type id="highway.footway" priority="1" speed="2.78" allow="pedestrian" oneway="1" width="2.00"/>
    <type id="highway.ford" priority="1" speed="2.78" allow="army" oneway="0"/>
    <type id="highway.living_street" priority="2" speed="2.78" disallow="tram rail_urban rail rail_electric rail_fast ship" oneway="0"/>
    <type id="highway.motorway" priority="14" speed="39.44" allow="private emergency authority army vip passenger hov taxi bus coach delivery truck trailer motorcycle evehicle custom1 custom2" oneway="1"/>
    <type id="highway.motorway_link" priority="9" speed="22.22" allow="private emergency authority army vip passenger hov taxi bus coach delivery truck trailer motorcycle evehicle custom1 custom2" oneway="1"/>
    <type id="highway.path" priority="1" speed="2.78" allow="pedestrian bicycle" oneway="0" width="2.00"/>
    <type id="highway.pedestrian" priority="1" speed="2.78" allow="pedestrian" oneway="1" width="2.00"/>
    <type id="highway.primary" priority="12" speed="27.78" disallow="pedestrian tram rail_urban rail rail_electric rail_fast ship" oneway="0"/>
    <type id="highway.primary_link" priority="7" speed="22.22" disallow="pedestrian tram rail_urban rail rail_electric rail_fast ship" oneway="0"/>
    <type id="highway.raceway" priority="15" speed="83.33" allow="vip" oneway="0"/>
    <type id="highway.residential" priority="3" speed="13.89" disallow="pedestrian tram rail_urban rail rail_electric rail_fast ship" oneway="0"/>
    <type id="highway.secondary" priority="11" speed="27.78" disallow="pedestrian tram rail_urban rail rail_electric rail_fast ship" oneway="0"/>
    <type id="highway.secondary_link" priority="6" speed="22.22" disallow="pedestrian tram rail_urban rail rail_electric rail_fast ship" oneway="0"/>
    <type id="highway.service" priority="1" speed="5.56" allow="pedestrian delivery bicycle" oneway="0"/>
    <type id="highway.stairs" priority="1" speed="1.39" allow="pedestrian" oneway="1" width="2.00"/>
    <type id="highway.step" priority="1" speed="1.39" allow="pedestrian" oneway="1" width="2.00"/>
    <type id="highway.steps" priority="1" speed="1.39" allow="pedestrian" oneway="1" width="2.00"/>
    <type id="highway.tertiary" priority="10" speed="22.22" disallow="pedestrian tram rail_urban rail rail_electric rail_fast ship" oneway="0"/>
    <type id="highway.tertiary_link" priority="5" speed="22.22" disallow="pedestrian tram rail_urban rail rail_electric rail_fast ship" oneway="0"/>
    <type id="highway.track" priority="1" speed="5.56" allow="pedestrian motorcycle moped bicycle" oneway="0"/>
    <type id="highway.trunk" priority="13" speed="27.78" disallow="pedestrian bicycle tram rail_urban rail rail_electric rail_fast ship" oneway="0"/>
    <type id="highway.trunk_link" priority="8" speed="22.22" disallow="pedestrian bicycle tram rail_urban rail rail_electric rail_fast ship" oneway="0"/>
    <type id="highway.unclassified" priority="4" speed="13.89" disallow="pedestrian tram rail_urban rail rail_electric rail_fast ship" oneway="0"/>
    <type id="highway.unsurfaced" priority="1" speed="8.33" disallow="tram rail_urban rail rail_electric rail_fast ship" oneway="0"/>
    <type id="railway.highspeed" priority="21" speed="69.44" allow="rail_fast" oneway="1"/>
    <type id="railway.light_rail" priority="19" speed="27.78" allow="rail_urban" oneway="1"/>
    <type id="railway.preserved" priority="16" speed="27.78" allow="rail" oneway="1"/>
    <type id="railway.rail" priority="20" speed="44.44" allow="rail" oneway="1"/>
    <type id="railway.subway" priority="18" speed="27.78" allow="rail_urban" oneway="1"/>
    <type id="railway.tram" priority="17" speed="13.89" allow="tram" oneway="1"/>

    <edge id=":168_0" function="internal">
        <lane id=":168_0_0" index="0" disallow="pedestrian tram rail_urban rail rail_electric rail_fast ship" speed="36.11" length="5.39" width="3.50" shape="-611.03,665.77 -611.87,671.09"/>
    </edge>
    <edge id=":169_0" function="internal">
        <lane id=":169_0_0" index="0" disallow="pedestrian tram rail_urban rail rail_electric rail_fast ship" speed="36.11" length="5.84" width="3.50" shape="-615.36,670.74 -615.29,670.31 -615.22,669.93 -615.15,669.58 -615.09,669.26 -615.03,668.97 -614.98,668.70 -614.93,668.45 -614.88,668.22 -614.84,667.99 -614.80,667.76 -614.76,667.53 -614.72,667.29 -614.68,667.04 -614.65,666.77 -614.61,666.48 -614.58,666.16 -614.55,665.80 -614.52,665.41 -614.48,664.97"/>
    </edge>
    <edge id=":170_0" function="internal">
        <lane id=":170_0_0" index="0" disallow="pedestrian tram rail_urban rail rail_electric rail_fast ship" speed="36.11" length="4.83" width="3.50" shape="-626.62,735.83 -625.70,731.09"/>
    </edge>
    <edge id=":171_0" function="internal">
        <lane id=":171_0_0" index="0" disallow="pedestrian tram rail_urban rail rail_electric rail_fast ship" speed="36.11" length="4.56" width="3.50" shape="-622.27,731.82 -623.14,736.30"/>
    </edge>
    <edge id=":173_0" function="internal">
        <lane id=":173_0_0" index="0" disallow="pedestrian tram rail_urban rail rail_electric rail_fast ship" speed="10.10" length="24.64" width="3.50" shape="-724.58,796.93 -726.55,795.87 -728.61,794.98 -730.76,794.35 -731.86,794.15 -732.98,794.04 -734.10,794.05 -735.21,794.17 -736.31,794.41 -737.37,794.78 -738.38,795.27 -739.33,795.86 -740.21,796.55 -741.04,797.31 -742.50,799.01 -743.74,800.88 -744.78,802.84"/>
    </edge>
    <edge id=":173_1" function="internal">
        <lane id=":173_1_0" index="0" disallow="pedestrian tram rail_urban rail rail_electric rail_fast ship" speed="36.11" length="37.06" width="3.50" shape="-724.58,796.93 -732.64,792.37 -741.78,787.61 -752.01,782.75 -757.65,780.24"/>
    </edge>
    <edge id=":173_2" function="internal">
        <lane id=":173_2_0" index="0" disallow="pedestrian tram rail_urban rail rail_electric rail_fast ship" speed="11.33" length="27.64" width="3.50" shape="-724.58,796.93 -725.65,796.27 -728.71,794.17 -730.66,792.54 -732.48,790.71 -734.06,788.67 -734.78,787.51 -735.38,786.30 -735.86,785.02 -736.22,783.69 -736.43,782.33 -736.48,780.95 -736.39,779.57 -736.16,778.23 -735.80,776.90 -734.81,774.46"/>
    </edge>
    <edge id=":173_3" function="internal">
        <lane id=":173_3_0" index="0" disallow="pedestrian tram rail_urban rail rail_electric rail_fast ship" speed="10.20" length="22.35" width="3.50" shape="-731.67,776.00 -732.47,777.99 -732.74,779.02 -732.90,780.08 -732.94,781.14 -732.87,782.20 -732.67,783.25 -732.36,784.27 -731.95,785.25 -731.45,786.19 -730.86,787.08 -729.52,788.73 -727.99,790.22 -726.34,791.56 -723.70,793.36 -722.82,793.90"/>
    </edge>
    <edge id=":173_4" function="internal">
        <lane id=":173_4_0" index="0" disallow="pedestrian tram rail_urban rail rail_electric rail_fast ship" speed="36.11" length="29.87" width="3.50" shape="-731.67,776.00 -738.24,789.44 -744.78,802.84"/>
    </edge>
    <edge id=":173_5" function="internal">
        <lane id=":173_5_0" index="0" disallow="pedestrian tram rail_urban rail rail_electric rail_fast ship" speed="11.57" length="29.54" width="3.50" shape="-731.67,776.00 -732.99,778.23 -733.77,779.24 -734.65,780.18 -735.62,781.02 -736.68,781.75 -737.80,782.36 -738.99,782.85 -740.22,783.22 -741.48,783.47 -744.04,783.65 -746.60,783.50 -749.14,783.07 -752.85,782.07 -756.47,780.74 -757.65,780.24"/>
    </edge>
    <edge id=":173_6" function="internal">
        <lane id=":173_6_0" index="0" disallow="pedestrian tram rail_urban rail rail_electric rail_fast ship" speed="10.49" length="24.16" width="3.50" shape="-756.26,777.03 -755.24,777.46 -752.06,778.64 -748.83,779.54 -746.70,779.93 -744.57,780.11 -742.46,780.01 -741.49,779.85 -740.52,779.60 -739.60,779.26 -738.73,778.83 -737.92,778.30 -737.17,777.69 -736.48,776.99 -735.88,776.25 -734.81,774.46"/>
    </edge>
    <edge id=":173_7" function="internal">
        <lane id=":173_7_0" index="0" disallow="pedestrian tram rail_urban rail rail_electric rail_fast ship" speed="36.11" length="37.48" width="3.50" shape="-756.26,777.03 -750.55,779.57 -740.21,784.49 -730.96,789.29 -722.82,793.90"/>
    </edge>
    <edge id=":173_8" function="internal">
        <lane id=":173_8_0" index="0" disallow="pedestrian tram rail_urban rail rail_electric rail_fast ship" speed="11.74" length="32.57" width="3.50" shape="-756.26,777.03 -752.77,778.74 -750.52,780.11 -748.38,781.71 -746.44,783.56 -745.53,784.63 -744.72,785.76 -744.01,786.98 -743.42,788.26 -742.96,789.60 -742.64,790.98 -742.46,792.38 -742.41,793.78 -742.49,795.20 -742.95,797.85 -743.75,800.42 -744.78,802.84"/>
    </edge>
    <edge id=":173_9" function="internal">
        <lane id=":173_9_0" index="0" disallow="pedestrian tram rail_urban rail rail_electric rail_fast ship" speed="10.68" length="26.84" width="3.50" shape="-747.94,801.32 -747.06,799.28 -746.40,797.14 -746.04,794.93 -745.99,793.81 -746.04,792.70 -746.19,791.59 -746.46,790.50 -746.84,789.45 -747.32,788.44 -747.90,787.48 -748.56,786.58 -749.29,785.73 -750.92,784.20 -752.72,782.87 -754.64,781.71 -757.65,780.24"/>
    </edge>
    <edge id=":173_10" function="internal">
        <lane id=":173_10_0" index="0" disallow="pedestrian tram rail_urban rail rail_electric rail_fast ship" speed="36.11" length="29.90" width="3.50" shape="-747.94,801.32 -741.38,787.90 -734.81,774.46"/>
    </edge>
    <edge id=":173_11" function="internal">
        <lane id=":173_11_0" index="0" disallow="pedestrian tram rail_urban rail rail_electric rail_fast ship" speed="11.22" length="30.53" width="3.50" shape="-747.94,801.32 -746.68,798.98 -745.19,796.72 -743.42,794.66 -742.37,793.68 -741.24,792.81 -740.02,792.04 -738.71,791.41 -737.34,790.93 -735.91,790.61 -734.47,790.45 -733.04,790.44 -731.63,790.57 -730.22,790.83 -727.62,791.60 -725.14,792.65 -722.82,793.90"/>
    </edge>
    <edge id=":174_0" function="internal">
        <lane id=":174_0_0" index="0" disallow="pedestrian tram rail_urban rail rail_electric rail_fast ship" speed="36.11" length="30.60" width="3.49" shape="-717.58,748.59 -727.78,768.26 -731.57,775.80"/>
    </edge>
    <edge id=":174_1" function="internal">
        <lane id=":174_1_0" index="0" disallow="pedestrian tram rail_urban rail rail_electric rail_fast ship" speed="12.37" length="33.26" width="3.50" shape="-717.58,748.59 -718.88,750.82 -720.37,752.89 -722.09,754.78 -724.04,756.42 -725.11,757.13 -726.23,757.75 -727.39,758.27 -728.59,758.70 -731.08,759.27 -733.63,759.46 -736.18,759.33 -738.71,758.92 -741.18,758.29 -744.80,757.02 -746.00,756.51"/>
    </edge>
    <edge id=":174_2" function="internal">
        <lane id=":174_2_0" index="0" disallow="pedestrian tram rail_urban rail rail_electric rail_fast ship" speed="11.37" length="27.96" width="3.50" shape="-744.59,753.30 -743.56,753.74 -740.36,754.88 -738.23,755.42 -736.08,755.78 -733.94,755.91 -731.83,755.77 -729.77,755.32 -728.82,754.99 -727.88,754.57 -726.97,754.08 -726.13,753.54 -724.49,752.18 -723.05,750.62 -721.79,748.86 -720.67,746.95"/>
    </edge>
    <edge id=":174_3" function="internal">
        <lane id=":174_3_0" index="0" disallow="pedestrian tram rail_urban rail rail_electric rail_fast ship" speed="11.22" length="29.89" width="3.49" shape="-744.59,753.30 -740.91,755.08 -738.55,756.44 -736.32,757.98 -734.24,759.73 -733.30,760.70 -732.42,761.74 -731.65,762.86 -730.99,764.04 -730.46,765.29 -730.09,766.60 -729.87,767.93 -729.82,769.29 -729.92,770.64 -730.16,771.98 -730.53,773.29 -731.57,775.80"/>
    </edge>
    <edge id=":174_4" function="internal">
        <lane id=":174_4_0" index="0" disallow="pedestrian tram rail_urban rail rail_electric rail_fast ship" speed="10.15" length="24.18" width="3.50" shape="-734.72,774.28 -733.87,772.20 -733.61,771.21 -733.44,770.19 -733.38,769.17 -733.45,768.16 -733.65,767.17 -733.96,766.20 -734.40,765.27 -734.94,764.37 -735.58,763.51 -736.30,762.70 -737.07,761.93 -738.84,760.48 -740.76,759.20 -742.78,758.05 -746.00,756.51"/>
    </edge>
    <edge id=":174_5" function="internal">
        <lane id=":174_5_0" index="0" disallow="pedestrian tram rail_urban rail rail_electric rail_fast ship" speed="36.11" length="30.73" width="3.50" shape="-734.72,774.28 -730.90,766.67 -720.67,746.95"/>
    </edge>
    <edge id=":175_0" function="internal">
        <lane id=":175_0_0" index="0" disallow="pedestrian tram rail_urban rail rail_electric rail_fast ship" speed="11.47" length="25.60" width="3.50" shape="-698.00,735.37 -698.98,735.11 -701.08,734.83 -702.05,734.82 -703.05,734.91 -704.05,735.09 -705.02,735.35 -705.97,735.71 -706.87,736.13 -708.68,737.23 -710.33,738.57 -711.85,740.09 -713.95,742.67 -715.80,745.45 -717.48,748.41"/>
    </edge>
    <edge id=":175_1" function="internal">
        <lane id=":175_1_0" index="0" disallow="pedestrian tram rail_urban rail rail_electric rail_fast ship" speed="36.11" length="34.82" width="3.50" shape="-698.00,735.37 -730.32,725.70 -731.35,725.36"/>
    </edge>
    <edge id=":175_2" function="internal">
        <lane id=":175_2_0" index="0" disallow="pedestrian tram rail_urban rail rail_electric rail_fast ship" speed="36.11" length="34.44" width="3.50" shape="-730.02,722.12 -729.20,722.39 -697.03,732.01"/>
    </edge>
    <edge id=":175_3" function="internal">
        <lane id=":175_3_0" index="0" disallow="pedestrian tram rail_urban rail rail_electric rail_fast ship" speed="11.84" length="34.52" width="3.50" shape="-730.02,722.13 -726.29,723.67 -723.83,724.94 -721.48,726.42 -719.32,728.15 -718.34,729.12 -717.43,730.17 -716.63,731.29 -715.94,732.50 -715.38,733.76 -714.97,735.08 -714.70,736.44 -714.58,737.82 -714.60,739.21 -714.74,740.58 -715.34,743.28 -716.28,745.89 -717.48,748.41"/>
    </edge>
    <edge id=":175_4" function="internal">
        <lane id=":175_4_0" index="0" disallow="pedestrian tram rail_urban rail rail_electric rail_fast ship" speed="10.80" length="28.55" width="3.50" shape="-720.58,746.78 -719.55,744.63 -718.77,742.45 -718.29,740.20 -718.19,739.13 -718.19,738.04 -718.30,736.97 -718.52,735.92 -718.85,734.91 -719.30,733.94 -719.85,733.01 -720.50,732.13 -721.24,731.29 -722.03,730.52 -723.86,729.08 -725.85,727.84 -727.97,726.76 -731.35,725.36"/>
    </edge>
    <edge id=":175_5" function="internal">
        <lane id=":175_5_0" index="0" disallow="pedestrian tram rail_urban rail rail_electric rail_fast ship" speed="12.47" length="30.41" width="3.50" shape="-720.58,746.78 -718.68,743.45 -716.56,740.31 -714.13,737.39 -712.31,735.63 -710.31,734.07 -708.13,732.80 -706.97,732.29 -705.77,731.88 -704.54,731.58 -703.29,731.39 -702.03,731.30 -700.76,731.33 -698.26,731.69 -697.03,732.01"/>
    </edge>
    <edge id=":176_0" function="internal">
        <lane id=":176_0_0" index="0" disallow="pedestrian tram rail_urban rail rail_electric rail_fast ship" speed="10.10" length="24.38" width="3.50" shape="-651.36,646.50 -652.42,646.38 -653.48,646.36 -654.54,646.45 -655.57,646.67 -656.57,647.02 -657.51,647.51 -658.38,648.12 -659.16,648.82 -659.87,649.62 -660.49,650.48 -661.03,651.38 -661.94,653.30 -662.63,655.30 -663.17,657.35 -663.74,660.48 -664.10,663.64"/>
    </edge>
    <edge id=":176_1" function="internal">
        <lane id=":176_1_0" index="0" disallow="pedestrian tram rail_urban rail rail_electric rail_fast ship" speed="36.11" length="31.42" width="3.50" shape="-651.36,646.50 -657.56,645.64 -667.96,644.53 -682.62,643.37"/>
    </edge>
    <edge id=":176_2" function="internal">
        <lane id=":176_2_0" index="0" disallow="pedestrian tram rail_urban rail rail_electric rail_fast ship" speed="36.11" length="31.69" width="3.50" shape="-682.38,639.88 -667.61,641.05 -657.11,642.17 -650.85,643.03"/>
    </edge>
    <edge id=":176_3" function="internal">
        <lane id=":176_3_0" index="0" disallow="pedestrian tram rail_urban rail rail_electric rail_fast ship" speed="12.16" length="34.52" width="3.50" shape="-682.38,639.88 -679.71,640.17 -677.11,640.69 -674.58,641.49 -672.19,642.62 -671.06,643.32 -670.00,644.12 -669.01,645.01 -668.11,645.98 -667.30,647.03 -666.59,648.15 -665.97,649.33 -665.02,651.80 -664.39,654.38 -664.05,657.01 -663.93,659.66 -664.10,663.64"/>
    </edge>
    <edge id=":176_4" function="internal">
        <lane id=":176_4_0" index="0" disallow="pedestrian tram rail_urban rail rail_electric rail_fast ship" speed="11.15" length="28.87" width="3.50" shape="-667.59,663.34 -667.44,659.84 -667.53,657.56 -667.82,655.31 -668.33,653.14 -669.12,651.07 -669.60,650.14 -670.16,649.24 -670.80,648.39 -671.51,647.61 -672.29,646.90 -673.14,646.25 -674.01,645.70 -676.00,644.74 -678.11,644.06 -680.32,643.62 -682.62,643.37"/>
    </edge>
    <edge id=":176_5" function="internal">
        <lane id=":176_5_0" index="0" disallow="pedestrian tram rail_urban rail rail_electric rail_fast ship" speed="11.20" length="30.14" width="3.50" shape="-667.59,663.34 -667.16,659.68 -666.46,656.04 -665.78,653.61 -664.88,651.23 -663.71,648.94 -662.95,647.81 -662.11,646.76 -661.14,645.78 -660.05,644.91 -658.86,644.17 -657.58,643.59 -656.24,643.18 -654.87,642.94 -653.50,642.84 -652.16,642.89 -650.85,643.03"/>
    </edge>
    <edge id=":177_0" function="internal">
        <lane id=":177_0_0" index="0" disallow="pedestrian tram rail_urban rail rail_electric rail_fast ship" speed="5.37" length="10.53" width="3.49" shape="-742.29,719.01 -743.38,717.91 -744.21,716.96 -746.42,714.30 -747.86,712.73 -748.48,712.14 -749.08,711.65 -749.56,711.52"/>
    </edge>
    <edge id=":177_1" function="internal">
        <lane id=":177_1_0" index="0" disallow="pedestrian tram rail_urban rail rail_electric rail_fast ship" speed="11.46" length="18.63" width="3.44" shape="-742.29,719.01 -743.74,717.61 -744.98,716.23 -746.08,714.74 -746.97,713.11 -747.46,711.32 -747.28,709.49 -746.37,707.89 -744.99,706.65 -744.60,703.01"/>
    </edge>
    <edge id=":177_2" function="internal">
        <lane id=":177_2_0" index="0" disallow="pedestrian tram rail_urban rail rail_electric rail_fast ship" speed="6.11" length="10.30" width="3.50" shape="-741.32,708.60 -742.71,709.31 -743.40,709.86 -743.78,710.60 -743.71,711.48 -743.31,712.42 -742.69,713.42 -741.90,714.42 -741.00,715.40 -740.04,716.33"/>
    </edge>
    <edge id=":177_3" function="internal">
        <lane id=":177_3_0" index="0" disallow="pedestrian tram rail_urban rail rail_electric rail_fast ship" speed="5.15" length="8.76" width="3.49" shape="-741.32,708.60 -744.27,709.88 -748.01,711.14 -749.56,711.52"/>
    </edge>
    <edge id=":177_4" function="internal">
        <lane id=":177_4_0" index="0" disallow="pedestrian tram rail_urban rail rail_electric rail_fast ship" speed="7.31" length="6.65" width="3.44" shape="-749.62,707.91 -749.07,707.81 -745.57,706.63 -743.36,705.69"/>
    </edge>
    <edge id=":177_5" function="internal">
        <lane id=":177_5_0" index="0" disallow="pedestrian tram rail_urban rail rail_electric rail_fast ship" speed="9.63" length="12.78" width="3.50" shape="-749.62,707.91 -749.04,708.66 -747.97,709.42 -746.93,710.24 -744.92,711.93 -741.97,714.56 -741.00,715.45 -740.04,716.33"/>
    </edge>
    <edge id=":178_0" function="internal">
        <lane id=":178_0_0" index="0" disallow="pedestrian tram rail_urban rail rail_electric rail_fast ship" speed="10.81" length="24.84" width="3.50" shape="-672.12,743.77 -673.13,743.47 -674.16,743.32 -675.19,743.31 -676.21,743.46 -677.21,743.74 -678.16,744.15 -679.06,744.65 -679.92,745.22 -681.50,746.56 -682.93,748.06 -684.23,749.66 -686.00,752.21 -687.59,754.88 -689.52,758.53"/>
    </edge>
    <edge id=":178_1" function="internal">
        <lane id=":178_1_0" index="0" disallow="pedestrian tram rail_urban rail rail_electric rail_fast ship" speed="36.11" length="27.02" width="3.50" shape="-672.12,743.78 -681.94,740.36 -694.81,736.32 -697.81,735.43"/>
    </edge>
    <edge id=":178_2" function="internal">
        <lane id=":178_2_0" index="0" disallow="pedestrian tram rail_urban rail rail_electric rail_fast ship" speed="11.54" length="28.17" width="3.50" shape="-672.12,743.78 -673.32,743.27 -674.44,742.65 -675.48,741.91 -676.43,741.06 -677.27,740.09 -677.98,739.03 -678.57,737.90 -679.04,736.71 -679.40,735.48 -679.83,732.96 -679.95,730.41 -679.69,726.58 -679.07,722.80 -678.17,719.05"/>
    </edge>
    <edge id=":178_3" function="internal">
        <lane id=":178_3_0" index="0" disallow="pedestrian tram rail_urban rail rail_electric rail_fast ship" speed="10.42" length="22.94" width="3.50" shape="-674.79,719.93 -675.59,723.27 -676.16,726.57 -676.43,729.87 -676.38,732.00 -676.10,734.10 -675.86,735.06 -675.53,735.99 -675.13,736.87 -674.63,737.68 -674.06,738.42 -673.39,739.06 -672.65,739.62 -671.82,740.10 -670.94,740.48"/>
    </edge>
    <edge id=":178_4" function="internal">
        <lane id=":178_4_0" index="0" disallow="pedestrian tram rail_urban rail rail_electric rail_fast ship" speed="36.11" length="41.38" width="3.50" shape="-674.79,719.93 -676.51,725.95 -679.08,733.80 -681.97,741.55 -685.57,750.12 -689.52,758.53"/>
    </edge>
    <edge id=":178_5" function="internal">
        <lane id=":178_5_0" index="0" disallow="pedestrian tram rail_urban rail rail_electric rail_fast ship" speed="11.65" length="31.98" width="3.50" shape="-674.78,719.93 -676.00,723.78 -677.03,726.23 -678.26,728.59 -679.76,730.78 -680.62,731.80 -681.55,732.74 -682.57,733.60 -683.66,734.37 -684.81,735.02 -686.03,735.55 -687.30,735.96 -688.59,736.24 -689.91,736.41 -691.24,736.47 -693.89,736.28 -696.50,735.78 -697.81,735.43"/>
    </edge>
    <edge id=":178_6" function="internal">
        <lane id=":178_6_0" index="0" disallow="pedestrian tram rail_urban rail rail_electric rail_fast ship" speed="10.59" length="26.27" width="3.50" shape="-696.82,732.07 -695.73,732.37 -693.53,732.79 -691.33,732.93 -690.29,732.87 -689.25,732.73 -688.23,732.49 -687.25,732.16 -686.31,731.74 -685.42,731.21 -684.57,730.60 -683.78,729.91 -683.04,729.14 -682.36,728.33 -681.12,726.47 -680.09,724.48 -679.22,722.38 -678.17,719.05"/>
    </edge>
    <edge id=":178_7" function="internal">
        <lane id=":178_7_0" index="0" disallow="pedestrian tram rail_urban rail rail_electric rail_fast ship" speed="36.11" length="27.22" width="3.50" shape="-696.82,732.07 -693.78,732.98 -680.82,737.04 -670.94,740.48"/>
    </edge>
    <edge id=":178_8" function="internal">
        <lane id=":178_8_0" index="0" disallow="pedestrian tram rail_urban rail rail_electric rail_fast ship" speed="11.30" length="32.73" width="3.50" shape="-696.82,732.07 -694.11,733.03 -692.82,733.63 -691.58,734.33 -690.41,735.13 -689.32,736.04 -688.34,737.07 -687.49,738.21 -686.80,739.45 -686.27,740.77 -685.91,742.15 -685.70,743.55 -685.64,744.97 -685.69,746.40 -686.11,749.21 -686.83,751.96 -687.78,754.64 -689.52,758.53"/>
    </edge>
    <edge id=":178_9" function="internal">
        <lane id=":178_9_0" index="0" disallow="pedestrian tram rail_urban rail rail_electric rail_fast ship" speed="10.21" length="26.52" width="3.50" shape="-692.67,757.02 -691.14,753.59 -690.31,751.30 -689.68,748.98 -689.30,746.63 -689.24,745.51 -689.27,744.38 -689.40,743.28 -689.65,742.23 -690.01,741.23 -690.50,740.30 -691.10,739.43 -691.82,738.64 -692.63,737.93 -693.54,737.29 -694.52,736.72 -695.54,736.24 -697.81,735.43"/>
    </edge>
    <edge id=":178_10" function="internal">
        <lane id=":178_10_0" index="0" disallow="pedestrian tram rail_urban rail rail_electric rail_fast ship" speed="36.11" length="40.71" width="3.50" shape="-692.67,757.02 -688.77,748.71 -685.23,740.28 -682.39,732.66 -679.86,724.93 -678.17,719.05"/>
    </edge>
    <edge id=":178_11" function="internal">
        <lane id=":178_11_0" index="0" disallow="pedestrian tram rail_urban rail rail_electric rail_fast ship" speed="11.89" length="29.95" width="3.50" shape="-692.67,757.02 -690.46,752.86 -688.61,749.84 -686.52,746.95 -684.94,745.10 -683.17,743.38 -681.20,741.88 -680.06,741.21 -678.88,740.65 -677.62,740.21 -676.30,739.92 -674.94,739.80 -673.57,739.86 -672.23,740.09 -670.94,740.48"/>
    </edge>
    <edge id=":179_0" function="internal">
        <lane id=":179_0_0" index="0" disallow="pedestrian tram rail_urban rail rail_electric rail_fast ship" speed="12.63" length="29.57" width="3.50" shape="-644.05,751.51 -646.13,751.20 -648.25,751.11 -650.35,751.27 -652.42,751.69 -654.42,752.38 -656.31,753.31 -658.09,754.46 -659.73,755.79 -661.24,757.27 -663.27,759.70 -665.06,762.31 -666.64,765.06 -667.13,766.00"/>
    </edge>
    <edge id=":179_1" function="internal">
        <lane id=":179_1_0" index="0" disallow="pedestrian tram rail_urban rail rail_electric rail_fast ship" speed="36.11" length="28.90" width="3.50" shape="-644.05,751.51 -652.42,749.68 -660.71,747.51 -667.87,745.28 -671.89,743.86"/>
    </edge>
    <edge id=":179_2" function="internal">
        <lane id=":179_2_0" index="0" disallow="pedestrian tram rail_urban rail rail_electric rail_fast ship" speed="11.77" length="30.96" width="3.50" shape="-644.05,751.52 -646.54,750.85 -648.92,749.83 -650.11,749.14 -651.21,748.35 -652.22,747.44 -653.13,746.44 -653.94,745.35 -654.62,744.19 -655.20,742.99 -655.67,741.72 -656.29,739.24 -656.60,736.72 -656.67,734.20 -656.42,730.52 -655.87,726.91"/>
    </edge>
    <edge id=":179_3" function="internal">
        <lane id=":179_3_0" index="0" disallow="pedestrian tram rail_urban rail rail_electric rail_fast ship" speed="10.68" length="25.50" width="3.50" shape="-652.42,727.49 -652.92,730.70 -653.15,733.87 -653.12,735.99 -652.90,738.10 -652.43,740.16 -652.09,741.17 -651.66,742.14 -651.15,743.07 -650.55,743.94 -649.86,744.75 -649.09,745.47 -648.25,746.12 -647.34,746.67 -645.41,747.53 -643.37,748.08"/>
    </edge>
    <edge id=":179_4" function="internal">
        <lane id=":179_4_0" index="0" disallow="pedestrian tram rail_urban rail rail_electric rail_fast ship" speed="36.11" length="41.35" width="3.50" shape="-652.41,727.49 -653.61,732.71 -655.43,738.80 -657.95,745.76 -661.22,753.57 -665.24,762.21 -667.13,766.00"/>
    </edge>
    <edge id=":179_5" function="internal">
        <lane id=":179_5_0" index="0" disallow="pedestrian tram rail_urban rail rail_electric rail_fast ship" speed="10.77" length="30.01" width="3.50" shape="-652.41,727.49 -652.70,728.88 -653.69,732.73 -654.59,735.30 -655.74,737.77 -656.46,739.01 -657.27,740.18 -658.21,741.30 -659.27,742.33 -660.48,743.23 -661.82,743.96 -663.25,744.50 -664.75,744.82 -666.25,744.94 -667.73,744.87 -669.20,744.64 -671.89,743.86"/>
    </edge>
    <edge id=":179_6" function="internal">
        <lane id=":179_6_0" index="0" disallow="pedestrian tram rail_urban rail rail_electric rail_fast ship" speed="9.61" length="23.77" width="3.50" shape="-670.71,740.57 -668.51,741.19 -667.39,741.35 -666.26,741.37 -665.14,741.25 -664.04,740.96 -663.01,740.51 -662.05,739.91 -661.18,739.19 -660.40,738.36 -659.71,737.47 -659.10,736.51 -658.56,735.52 -657.65,733.45 -656.92,731.30 -656.09,728.01 -655.87,726.91"/>
    </edge>
    <edge id=":179_7" function="internal">
        <lane id=":179_7_0" index="0" disallow="pedestrian tram rail_urban rail rail_electric rail_fast ship" speed="36.11" length="28.38" width="3.50" shape="-670.71,740.56 -666.74,741.97 -659.72,744.15 -651.58,746.28 -643.37,748.08"/>
    </edge>
    <edge id=":179_8" function="internal">
        <lane id=":179_8_0" index="0" disallow="pedestrian tram rail_urban rail rail_electric rail_fast ship" speed="10.98" length="29.80" width="3.50" shape="-670.71,740.56 -669.44,741.09 -668.23,741.71 -667.10,742.45 -666.05,743.30 -665.12,744.29 -664.33,745.39 -663.70,746.58 -663.24,747.86 -662.94,749.18 -662.79,750.52 -662.77,751.87 -663.03,754.57 -663.62,757.21 -664.90,761.06 -666.53,764.78 -667.13,766.00"/>
    </edge>
    <edge id=":179_9" function="internal">