<routes>
	<vehicle depart="0.1" departLane="0" departPos="14.846456694289564" departSpeed="3.6377481" id="316" type="passenger">
		<route edges=":174_3 8114 8111 8299"/>
	</vehicle>
	<vehicle depart="0.1" departLane="0" departPos="11.348375821132274" departSpeed="9.5232343" id="318" type="passenger">
		<route edges=":175_2 8259 8175"/>
	</vehicle>
	<vehicle depart="0.1" departLane="0" departPos="26.70886881875797" departSpeed="0.0" id="322" type="passenger">
		<route edges="8302 8299"/>
	</vehicle>
	<vehicle depart="0.1" departLane="0" departPos="5.776203000029421" departSpeed="0.44006078" id="346" type="passenger">
		<route edges="8121 8114"/>
	</vehicle>
	<vehicle depart="0.1" departLane="0" departPos="30.82331605573086" departSpeed="0.0" id="353" type="passenger">
		<route edges=":174_5 8118"/>
	</vehicle>
	<vehicle depart="0.1" departLane="0" departPos="20.502475734507474" departSpeed="0.12490629" id="381" type="passenger">
		<route edges=":173_8 8111"/>
	</vehicle>
</routes>
