<?xml version="1.0" encoding="UTF-8"?>

<!-- generated on Fri Dec 18 15:54:14 2020 by Eclipse SUMO netconvert Version 1.8.0
<configuration xmlns:xsi="http://www.w3.org/2001/XMLSchema-instance" xsi:noNamespaceSchemaLocation="http://sumo.dlr.de/xsd/netconvertConfiguration.xsd">

    <input>
        <node-files value="./converted_scenarios/NGSIM/US101/USA_US101-4_3_I-1-1/nodes.net.xml"/>
        <edge-files value="./converted_scenarios/NGSIM/US101/USA_US101-4_3_I-1-1/edges.net.xml"/>
        <connection-files value="./converted_scenarios/NGSIM/US101/USA_US101-4_3_I-1-1/_connections.net.xml"/>
        <tllogic-files value="./converted_scenarios/NGSIM/US101/USA_US101-4_3_I-1-1/_tll.net.xml"/>
    </input>

    <output>
        <output-file value="./converted_scenarios/NGSIM/US101/USA_US101-4_3_I-1-1/USA_US101-4_3_I-1-1.net.xml"/>
    </output>

    <processing>
        <plain.extend-edge-shape value="true"/>
        <geometry.remove.keep-edges.explicit value="true"/>
        <geometry.avoid-overlap value="true"/>
        <offset.disable-normalization value="true"/>
    </processing>

    <junctions>
        <no-turnarounds value="true"/>
        <junctions.internal-link-detail value="20"/>
    </junctions>

    <report>
        <aggregate-warnings value="5"/>
    </report>

    <random_number>
        <seed value="1234"/>
    </random_number>

</configuration>
-->

<net version="1.6" junctionCornerDetail="5" junctionLinkDetail="20" limitTurnSpeed="5.50" xmlns:xsi="http://www.w3.org/2001/XMLSchema-instance" xsi:noNamespaceSchemaLocation="http://sumo.dlr.de/xsd/net_file.xsd">

    <location netOffset="0.00,0.00" convBoundary="-49.33,-42.71,35.14,26.92" origBoundary="-49.33,-49.17,40.99,31.90" projParameter="!"/>

    <edge id=":2_0" function="internal">
        <lane id=":2_0_0" index="0" disallow="rail_fast" speed="36.11" length="31.04" width="3.78" shape="-8.43,-16.84 15.20,-36.97"/>
    </edge>
    <edge id=":2_1" function="internal">
        <lane id=":2_1_0" index="0" disallow="bus truck rail_fast" speed="36.11" length="3.00" width="3.50" shape="15.39,-32.18 17.66,-34.15"/>
        <lane id=":2_1_1" index="1" disallow="bus truck rail_fast" speed="36.11" length="3.00" width="3.22" shape="17.68,-29.55 19.90,-31.56"/>
        <lane id=":2_1_2" index="2" disallow="rail_fast" speed="36.11" length="3.00" width="3.21" shape="19.87,-27.02 22.09,-29.04"/>
        <lane id=":2_1_3" index="3" disallow="bus truck rail_fast" speed="36.11" length="3.00" width="3.32" shape="22.06,-24.51 24.33,-26.47"/>
        <lane id=":2_1_4" index="4" disallow="bus truck rail_fast" speed="36.11" length="3.00" width="3.48" shape="24.28,-21.95 26.57,-23.89"/>
    </edge>

    <edge id="12" from="1" to="2" priority="1" spreadType="center" length="81.38">
        <lane id="12_0" index="0" disallow="bus truck rail_fast" speed="36.11" length="81.38" width="3.47" customShape="1" shape="-44.16,22.09 -37.38,15.75 -34.54,12.99 -30.00,8.74 -26.48,5.50 -23.58,2.81 -15.77,-4.31 -15.18,-4.85 -12.82,-7.02 -5.52,-13.64 -4.72,-14.37 -1.80,-17.08 1.26,-19.83 6.08,-24.00 9.03,-26.65 10.57,-27.99 15.39,-32.18"/>
        <lane id="12_1" index="1" disallow="bus rail_fast" speed="36.11" length="81.38" width="3.25" customShape="1" shape="-41.72,24.54 -37.04,20.19 -34.98,18.21 -34.24,17.47 -32.25,15.57 -26.24,10.06 -24.10,8.07 -23.34,7.37 -21.21,5.40 -15.56,0.28 -13.36,-1.75 -12.67,-2.39 -10.49,-4.38 -4.36,-9.89 -2.28,-11.79 -1.46,-12.56 0.58,-14.42 6.40,-19.53 8.44,-21.37 9.29,-22.16 11.29,-23.97 17.40,-29.30 17.68,-29.55"/>
        <lane id="12_2" index="2" disallow="rail_fast" speed="36.11" length="81.38" width="3.19" customShape="1" shape="-39.35,26.92 -37.79,25.41 -34.80,22.63 -31.98,19.92 -29.73,17.85 -26.87,15.11 -24.00,12.52 -21.10,9.86 -18.48,7.49 -15.57,4.80 -13.33,2.76 -10.42,0.08 -7.70,-2.37 -4.77,-5.04 -2.13,-7.41 0.78,-10.07 3.34,-12.36 6.27,-15.03 8.53,-16.99 11.46,-19.59 14.22,-21.98 17.16,-24.63 19.60,-26.78 19.87,-27.02"/>
        <lane id="12_3" index="3" disallow="bus truck rail_fast" speed="36.11" length="81.38" width="3.21" customShape="1" shape="-36.97,29.29 -35.47,27.80 -35.27,27.60 -27.45,20.32 -24.65,17.61 -24.47,17.44 -16.48,10.19 -16.21,9.95 -13.60,7.51 -13.33,7.27 -5.63,0.23 -5.46,0.08 -2.74,-2.45 -2.61,-2.57 5.40,-9.74 5.58,-9.90 8.27,-12.42 8.40,-12.53 16.43,-19.45 16.52,-19.53 19.37,-22.19 19.49,-22.29 22.06,-24.51"/>
        <lane id="12_4" index="4" disallow="bus rail_fast" speed="36.11" length="81.38" width="3.48" customShape="1" shape="-34.52,31.75 -32.87,30.10 -32.63,29.87 -25.00,22.72 -24.72,22.45 -22.11,20.02 -21.80,19.74 -14.16,12.74 -13.87,12.47 -11.25,10.03 -10.95,9.75 -3.32,2.76 -3.03,2.49 -0.41,0.05 -0.09,-0.24 7.68,-7.18 7.98,-7.45 10.61,-9.91 10.95,-10.21 18.80,-17.07 19.09,-17.34 21.75,-19.81 22.11,-20.12 24.28,-21.95"/>
    </edge>
    <edge id="15" from="4" to="2" priority="1" spreadType="center" length="82.16">
        <lane id="15_0" index="0" disallow="rail_fast" speed="36.11" length="82.16" width="3.64" customShape="1" shape="-49.33,16.27 -42.85,11.30 -36.42,6.16 -31.29,1.99 -23.57,-4.30 -21.91,-5.66 -13.36,-12.77 -8.43,-16.84"/>
    </edge>
    <edge id="16" from="2" to="3" priority="1" spreadType="center" length="20.02">
        <lane id="16_0" index="0" disallow="rail_fast" speed="36.11" length="20.02" width="3.78" acceleration="1" customShape="1" shape="15.20,-36.97 16.22,-37.84 16.94,-38.49 19.61,-40.80 20.34,-41.45 23.04,-43.82 23.76,-44.47 26.48,-46.86 27.20,-47.50 29.36,-49.38"/>
        <lane id="16_1" index="1" disallow="bus truck rail_fast" speed="36.11" length="20.02" width="3.50" customShape="1" shape="17.66,-34.15 18.71,-35.08 19.42,-35.74 20.06,-36.31 21.90,-37.83 22.56,-38.39 22.67,-38.48 23.26,-38.98 23.45,-39.14 25.54,-41.04 26.26,-41.70 26.35,-41.78 28.92,-44.04 29.60,-44.65 31.80,-46.56"/>
        <lane id="16_2" index="2" disallow="bus truck rail_fast" speed="36.11" length="20.02" width="3.22" customShape="1" shape="19.90,-31.56 20.29,-31.92 22.16,-33.59 22.32,-33.72 25.70,-36.49 28.22,-38.73 28.33,-38.83 28.70,-39.17 31.32,-41.54 34.09,-43.93"/>
        <lane id="16_3" index="3" disallow="rail_fast" speed="36.11" length="20.02" width="3.21" customShape="1" shape="22.09,-29.04 22.46,-29.37 22.56,-29.46 25.44,-31.94 28.40,-34.57 30.54,-36.38 33.37,-38.90 33.49,-39.00 36.34,-41.42"/>
        <lane id="16_4" index="4" disallow="bus truck rail_fast" speed="36.11" length="20.02" width="3.32" customShape="1" shape="24.33,-26.47 27.52,-29.21 27.71,-29.39 30.38,-31.88 30.57,-32.04 38.51,-38.82"/>
        <lane id="16_5" index="5" disallow="bus truck rail_fast" speed="36.11" length="20.02" width="3.48" customShape="1" shape="26.57,-23.89 29.78,-26.59 30.01,-26.79 30.13,-26.91 32.75,-29.34 33.10,-29.65 40.76,-36.23"/>
    </edge>

    <junction id="1" type="dead_end" x="-39.34" y="26.92" incLanes="" intLanes="" shape="-33.29,32.98 -45.39,20.87"/>
    <junction id="2" type="priority" x="20.99" y="-28.04" incLanes="15_0 12_0 12_1 12_2 12_3 12_4" intLanes=":2_0_0 :2_1_0 :2_1_1 :2_1_2 :2_1_3 :2_1_4" shape="27.71,-22.57 13.96,-38.40 -9.62,-18.22 -7.23,-15.47 14.25,-33.48 25.42,-20.64">
        <request index="0" response="000000" foes="000000" cont="0"/>
        <request index="1" response="000000" foes="000000" cont="0"/>
        <request index="2" response="000000" foes="000000" cont="0"/>
        <request index="3" response="000000" foes="000000" cont="0"/>
        <request index="4" response="000000" foes="000000" cont="0"/>
        <request index="5" response="000000" foes="000000" cont="0"/>
    </junction>
    <junction id="3" type="dead_end" x="35.14" y="-42.71" incLanes="16_0 16_1 16_2 16_3 16_4 16_5" intLanes="" shape="28.12,-50.81 41.90,-34.91"/>
    <junction id="4" type="dead_end" x="-49.33" y="16.27" incLanes="" intLanes="" shape="-48.23,17.71 -50.44,14.83"/>

    <connection from="12" to="16" fromLane="0" toLane="1" contPos="-4.00" via=":2_1_0" dir="s" state="M"/>
    <connection from="12" to="16" fromLane="1" toLane="2" contPos="-4.00" via=":2_1_1" dir="s" state="M"/>
    <connection from="12" to="16" fromLane="2" toLane="3" contPos="-4.00" via=":2_1_2" dir="s" state="M"/>
    <connection from="12" to="16" fromLane="3" toLane="4" contPos="-4.00" via=":2_1_3" dir="s" state="M"/>
    <connection from="12" to="16" fromLane="4" toLane="5" contPos="-4.00" via=":2_1_4" dir="s" state="M"/>
    <connection from="15" to="16" fromLane="0" toLane="0" contPos="-4.00" via=":2_0_0" dir="s" state="M"/>

    <connection from=":2_0" to="16" fromLane="0" toLane="0" dir="s" state="M"/>
    <connection from=":2_1" to="16" fromLane="0" toLane="1" dir="s" state="M"/>
    <connection from=":2_1" to="16" fromLane="1" toLane="2" dir="s" state="M"/>
    <connection from=":2_1" to="16" fromLane="2" toLane="3" dir="s" state="M"/>
    <connection from=":2_1" to="16" fromLane="3" toLane="4" dir="s" state="M"/>
    <connection from=":2_1" to="16" fromLane="4" toLane="5" dir="s" state="M"/>

</net>
