<!-- generated on Tue Feb  9 22:14:31 2021 by Eclipse SUMO netconvert Version 1.8.0
<configuration xmlns:xsi="http://www.w3.org/2001/XMLSchema-instance" xsi:noNamespaceSchemaLocation="http://sumo.dlr.de/xsd/netconvertConfiguration.xsd">

    <input>
        <node-files value="./converted_scenarios/scenario-factory/HRV_Pula-12_4_I-1-1/HRV_Pula-12_4_I-1-1.nod.xml"/>
        <edge-files value="./converted_scenarios/scenario-factory/HRV_Pula-12_4_I-1-1/HRV_Pula-12_4_I-1-1.edg.xml"/>
        <connection-files value="./converted_scenarios/scenario-factory/HRV_Pula-12_4_I-1-1/HRV_Pula-12_4_I-1-1.con.xml"/>
        <tllogic-files value="./converted_scenarios/scenario-factory/HRV_Pula-12_4_I-1-1/HRV_Pula-12_4_I-1-1.tll.xml"/>
        <type-files value="/home/zen/commonroad-interactive-benchmarks/install/commonroad-map-tool/crmapconverter/sumo_map/templates/DEU.typ.xml"/>
    </input>

    <output>
        <output-file value="./converted_scenarios/scenario-factory/HRV_Pula-12_4_I-1-1/HRV_Pula-12_4_I-1-1.net.xml"/>
    </output>

    <processing>
        <geometry.remove.keep-edges.explicit value="true"/>
        <geometry.avoid-overlap value="true"/>
        <offset.disable-normalization value="true"/>
    </processing>

    <junctions>
        <no-turnarounds value="true"/>
        <junctions.internal-link-detail value="20"/>
    </junctions>

    <report>
        <aggregate-warnings value="5"/>
    </report>

    <random_number>
        <seed value="1234"/>
    </random_number>

</configuration>
--><net xmlns:xsi="http://www.w3.org/2001/XMLSchema-instance" version="1.6" junctionCornerDetail="5" junctionLinkDetail="20" limitTurnSpeed="5.50" xsi:noNamespaceSchemaLocation="http://sumo.dlr.de/xsd/net_file.xsd">

    <location netOffset="0.00,0.00" convBoundary="-819.77,-1020.00,-553.47,-839.00" origBoundary="-819.77,-1020.00,-553.47,-839.00" projParameter="!"/>

    <type id="highway.bridleway" priority="1" speed="2.78" allow="pedestrian" oneway="1" width="2.00"/>
    <type id="highway.bus_guideway" priority="1" speed="27.78" allow="bus" oneway="1"/>
    <type id="highway.cycleway" priority="1" speed="8.33" allow="bicycle" oneway="0" width="1.00"/>
    <type id="highway.footway" priority="1" speed="2.78" allow="pedestrian" oneway="1" width="2.00"/>
    <type id="highway.ford" priority="1" speed="2.78" allow="army" oneway="0"/>
    <type id="highway.living_street" priority="2" speed="2.78" disallow="tram rail_urban rail rail_electric rail_fast ship" oneway="0"/>
    <type id="highway.motorway" priority="14" speed="39.44" allow="private emergency authority army vip passenger hov taxi bus coach delivery truck trailer motorcycle evehicle custom1 custom2" oneway="1"/>
    <type id="highway.motorway_link" priority="9" speed="22.22" allow="private emergency authority army vip passenger hov taxi bus coach delivery truck trailer motorcycle evehicle custom1 custom2" oneway="1"/>
    <type id="highway.path" priority="1" speed="2.78" allow="pedestrian bicycle" oneway="0" width="2.00"/>
    <type id="highway.pedestrian" priority="1" speed="2.78" allow="pedestrian" oneway="1" width="2.00"/>
    <type id="highway.primary" priority="12" speed="27.78" disallow="pedestrian tram rail_urban rail rail_electric rail_fast ship" oneway="0"/>
    <type id="highway.primary_link" priority="7" speed="22.22" disallow="pedestrian tram rail_urban rail rail_electric rail_fast ship" oneway="0"/>
    <type id="highway.raceway" priority="15" speed="83.33" allow="vip" oneway="0"/>
    <type id="highway.residential" priority="3" speed="13.89" disallow="pedestrian tram rail_urban rail rail_electric rail_fast ship" oneway="0"/>
    <type id="highway.secondary" priority="11" speed="27.78" disallow="pedestrian tram rail_urban rail rail_electric rail_fast ship" oneway="0"/>
    <type id="highway.secondary_link" priority="6" speed="22.22" disallow="pedestrian tram rail_urban rail rail_electric rail_fast ship" oneway="0"/>
    <type id="highway.service" priority="1" speed="5.56" allow="pedestrian delivery bicycle" oneway="0"/>
    <type id="highway.stairs" priority="1" speed="1.39" allow="pedestrian" oneway="1" width="2.00"/>
    <type id="highway.step" priority="1" speed="1.39" allow="pedestrian" oneway="1" width="2.00"/>
    <type id="highway.steps" priority="1" speed="1.39" allow="pedestrian" oneway="1" width="2.00"/>
    <type id="highway.tertiary" priority="10" speed="22.22" disallow="pedestrian tram rail_urban rail rail_electric rail_fast ship" oneway="0"/>
    <type id="highway.tertiary_link" priority="5" speed="22.22" disallow="pedestrian tram rail_urban rail rail_electric rail_fast ship" oneway="0"/>
    <type id="highway.track" priority="1" speed="5.56" allow="pedestrian motorcycle moped bicycle" oneway="0"/>
    <type id="highway.trunk" priority="13" speed="27.78" disallow="pedestrian bicycle tram rail_urban rail rail_electric rail_fast ship" oneway="0"/>
    <type id="highway.trunk_link" priority="8" speed="22.22" disallow="pedestrian bicycle tram rail_urban rail rail_electric rail_fast ship" oneway="0"/>
    <type id="highway.unclassified" priority="4" speed="13.89" disallow="pedestrian tram rail_urban rail rail_electric rail_fast ship" oneway="0"/>
    <type id="highway.unsurfaced" priority="1" speed="8.33" disallow="tram rail_urban rail rail_electric rail_fast ship" oneway="0"/>
    <type id="railway.highspeed" priority="21" speed="69.44" allow="rail_fast" oneway="1"/>
    <type id="railway.light_rail" priority="19" speed="27.78" allow="rail_urban" oneway="1"/>
    <type id="railway.preserved" priority="16" speed="27.78" allow="rail" oneway="1"/>
    <type id="railway.rail" priority="20" speed="44.44" allow="rail" oneway="1"/>
    <type id="railway.subway" priority="18" speed="27.78" allow="rail_urban" oneway="1"/>
    <type id="railway.tram" priority="17" speed="13.89" allow="tram" oneway="1"/>

    <edge id=":41_0" function="internal">
        <lane id=":41_0_0" index="0" disallow="pedestrian tram rail_urban rail rail_electric rail_fast ship" speed="36.11" length="38.52" width="3.50" shape="-700.80,-887.65 -701.80,-887.31 -712.69,-883.80 -724.70,-880.33 -737.80,-876.97"/>
    </edge>
    <edge id=":41_1" function="internal">
        <lane id=":41_1_0" index="0" disallow="pedestrian tram rail_urban rail rail_electric rail_fast ship" speed="11.91" length="33.48" width="3.50" shape="-700.80,-887.65 -702.05,-887.25 -704.58,-886.62 -707.20,-886.24 -709.87,-886.19 -711.26,-886.32 -712.62,-886.56 -713.96,-886.92 -715.26,-887.41 -716.51,-888.02 -717.70,-888.74 -718.81,-889.57 -719.84,-890.47 -720.80,-891.47 -722.44,-893.56 -723.81,-895.81 -724.95,-898.17 -726.31,-901.78"/>
    </edge>
    <edge id=":41_2" function="internal">
        <lane id=":41_2_0" index="0" disallow="pedestrian tram rail_urban rail rail_electric rail_fast ship" speed="10.89" length="27.82" width="3.50" shape="-722.98,-902.84 -721.81,-899.72 -720.84,-897.71 -719.69,-895.81 -718.32,-894.05 -717.55,-893.24 -716.72,-892.50 -715.83,-891.83 -714.89,-891.25 -713.89,-890.75 -712.85,-890.35 -711.78,-890.05 -710.69,-889.85 -709.58,-889.74 -707.35,-889.77 -705.15,-890.08 -702.99,-890.62 -701.93,-890.96"/>
    </edge>
    <edge id=":41_3" function="internal">
        <lane id=":41_3_0" index="0" disallow="pedestrian tram rail_urban rail rail_electric rail_fast ship" speed="12.04" length="34.84" width="3.50" shape="-722.98,-902.84 -721.95,-898.96 -721.53,-896.31 -721.40,-893.63 -721.63,-890.96 -721.90,-889.65 -722.29,-888.37 -722.79,-887.13 -723.41,-885.94 -724.14,-884.81 -724.97,-883.76 -725.90,-882.79 -726.90,-881.90 -729.09,-880.36 -731.46,-879.11 -733.95,-878.10 -737.80,-876.97"/>
    </edge>
    <edge id=":41_4" function="internal">
        <lane id=":41_4_0" index="0" disallow="pedestrian tram rail_urban rail rail_electric rail_fast ship" speed="11.02" length="29.01" width="3.50" shape="-738.65,-880.36 -735.26,-881.36 -733.15,-882.21 -731.16,-883.26 -729.33,-884.55 -728.54,-885.25 -727.80,-886.02 -727.14,-886.86 -726.56,-887.74 -726.07,-888.68 -725.67,-889.66 -725.36,-890.68 -725.15,-891.70 -724.95,-893.92 -725.06,-896.16 -725.41,-898.40 -726.31,-901.78"/>
    </edge>
    <edge id=":41_5" function="internal">
        <lane id=":41_5_0" index="0" disallow="pedestrian tram rail_urban rail rail_electric rail_fast ship" speed="36.11" length="38.23" width="3.50" shape="-738.65,-880.36 -725.62,-883.71 -713.72,-887.15 -702.91,-890.63 -701.93,-890.96"/>
    </edge>
    <edge id=":42_0" function="internal">
        <lane id=":42_0_0" index="0" disallow="pedestrian tram rail_urban rail rail_electric rail_fast ship" speed="12.49" length="31.98" width="3.50" shape="-632.87,-890.30 -633.39,-891.29 -635.08,-894.13 -637.04,-896.75 -638.47,-898.31 -640.05,-899.72 -641.75,-900.94 -643.57,-901.94 -645.50,-902.69 -647.52,-903.19 -649.59,-903.44 -651.70,-903.45 -653.81,-903.24 -655.91,-902.85 -659.06,-901.94"/>
    </edge>
    <edge id=":42_1" function="internal">
        <lane id=":42_1_0" index="0" disallow="pedestrian tram rail_urban rail rail_electric rail_fast ship" speed="36.11" length="41.28" width="3.50" shape="-632.87,-890.30 -638.31,-901.46 -645.14,-916.48 -650.08,-927.82"/>
    </edge>
    <edge id=":42_2" function="internal">
        <lane id=":42_2_0" index="0" disallow="pedestrian tram rail_urban rail rail_electric rail_fast ship" speed="11.75" length="35.91" width="3.50" shape="-632.87,-890.29 -634.58,-894.12 -635.45,-896.73 -636.05,-899.42 -636.22,-900.79 -636.29,-902.17 -636.24,-903.54 -636.06,-904.91 -635.74,-906.25 -635.29,-907.55 -634.70,-908.80 -633.97,-909.97 -633.13,-911.06 -632.19,-912.07 -631.17,-912.99 -628.93,-914.60 -626.51,-915.93 -623.98,-917.02 -621.36,-917.93"/>
    </edge>
    <edge id=":42_3" function="internal">
        <lane id=":42_3_0" index="0" disallow="pedestrian tram rail_urban rail rail_electric rail_fast ship" speed="10.71" length="29.64" width="3.50" shape="-620.32,-914.59 -622.60,-913.80 -624.77,-912.86 -626.80,-911.75 -628.67,-910.40 -629.48,-909.67 -630.22,-908.87 -630.88,-908.01 -631.45,-907.10 -631.90,-906.14 -632.26,-905.13 -632.50,-904.09 -632.64,-903.01 -632.68,-901.91 -632.62,-900.80 -632.49,-899.70 -631.98,-897.42 -631.24,-895.20 -629.76,-891.90"/>
    </edge>
    <edge id=":42_4" function="internal">
        <lane id=":42_4_0" index="0" disallow="pedestrian tram rail_urban rail rail_electric rail_fast ship" speed="36.11" length="40.75" width="3.50" shape="-620.32,-914.59 -637.26,-909.21 -659.06,-901.94"/>
    </edge>
    <edge id=":42_5" function="internal">
        <lane id=":42_5_0" index="0" disallow="pedestrian tram rail_urban rail rail_electric rail_fast ship" speed="13.11" length="36.53" width="3.50" shape="-620.32,-914.59 -623.99,-913.62 -627.73,-913.05 -630.24,-912.94 -632.76,-913.08 -635.24,-913.52 -637.64,-914.28 -639.91,-915.36 -642.02,-916.74 -643.92,-918.39 -645.62,-920.25 -647.12,-922.28 -648.43,-924.43 -650.08,-927.82"/>
    </edge>
    <edge id=":42_6" function="internal">
        <lane id=":42_6_0" index="0" disallow="pedestrian tram rail_urban rail rail_electric rail_fast ship" speed="12.17" length="31.35" width="3.50" shape="-646.87,-929.21 -645.40,-926.20 -644.27,-924.34 -642.98,-922.60 -641.54,-921.02 -639.93,-919.63 -638.17,-918.48 -636.28,-917.59 -634.27,-916.96 -632.18,-916.59 -630.04,-916.47 -627.89,-916.57 -624.61,-917.07 -621.36,-917.93"/>
    </edge>
    <edge id=":42_7" function="internal">
        <lane id=":42_7_0" index="0" disallow="pedestrian tram rail_urban rail rail_electric rail_fast ship" speed="36.11" length="41.05" width="3.50" shape="-646.87,-929.21 -641.95,-917.91 -635.15,-902.97 -629.76,-891.90"/>
    </edge>
    <edge id=":42_8" function="internal">
        <lane id=":42_8_0" index="0" disallow="pedestrian tram rail_urban rail rail_electric rail_fast ship" speed="11.95" length="34.78" width="3.50" shape="-646.87,-929.21 -645.53,-925.58 -644.88,-923.03 -644.49,-920.40 -644.45,-917.73 -644.59,-916.33 -644.85,-914.97 -645.23,-913.64 -645.74,-912.34 -646.38,-911.10 -647.12,-909.93 -647.97,-908.83 -648.92,-907.80 -650.93,-906.06 -653.15,-904.60 -655.48,-903.38 -659.06,-901.94"/>
    </edge>
    <edge id=":42_9" function="internal">
        <lane id=":42_9_0" index="0" disallow="pedestrian tram rail_urban rail rail_electric rail_fast ship" speed="10.93" length="28.90" width="3.50" shape="-660.20,-905.25 -657.10,-906.49 -655.13,-907.52 -653.27,-908.75 -651.59,-910.20 -650.84,-911.02 -650.16,-911.90 -649.56,-912.83 -649.06,-913.82 -648.65,-914.86 -648.34,-915.92 -648.13,-917.02 -648.02,-918.12 -648.05,-920.34 -648.38,-922.54 -648.93,-924.69 -650.08,-927.82"/>
    </edge>
    <edge id=":42_10" function="internal">
        <lane id=":42_10_0" index="0" disallow="pedestrian tram rail_urban rail rail_electric rail_fast ship" speed="36.11" length="40.86" width="3.50" shape="-660.20,-905.25 -638.34,-912.54 -621.36,-917.93"/>
    </edge>
    <edge id=":42_11" function="internal">
        <lane id=":42_11_0" index="0" disallow="pedestrian tram rail_urban rail rail_electric rail_fast ship" speed="13.41" length="37.03" width="3.50" shape="-660.20,-905.25 -656.64,-906.28 -654.22,-906.74 -651.76,-906.98 -649.29,-906.97 -646.85,-906.69 -644.45,-906.10 -642.15,-905.21 -639.98,-904.04 -637.97,-902.61 -636.13,-900.97 -634.46,-899.15 -632.24,-896.19 -630.34,-893.02 -629.76,-891.90"/>
    </edge>
    <edge id=":43_0" function="internal">
        <lane id=":43_0_0" index="0" disallow="pedestrian tram rail_urban rail rail_electric rail_fast ship" speed="36.11" length="38.09" width="3.50" shape="-664.48,-900.09 -682.53,-893.90 -700.52,-887.75"/>
    </edge>
    <edge id=":43_1" function="internal">
        <lane id=":43_1_0" index="0" disallow="pedestrian tram rail_urban rail rail_electric rail_fast ship" speed="11.43" length="37.13" width="3.50" shape="-664.48,-900.08 -668.61,-898.85 -671.40,-898.26 -674.23,-897.91 -677.08,-897.88 -678.50,-898.02 -679.90,-898.28 -681.27,-898.68 -682.59,-899.23 -683.82,-899.94 -684.96,-900.80 -685.98,-901.80 -686.87,-902.91 -687.64,-904.11 -688.28,-905.39 -688.81,-906.71 -689.59,-909.45 -690.06,-912.27 -690.30,-915.13"/>
    </edge>
    <edge id=":43_2" function="internal">
        <lane id=":43_2_0" index="0" disallow="pedestrian tram rail_urban rail rail_electric rail_fast ship" speed="10.37" length="30.29" width="3.50" shape="-686.79,-915.18 -686.60,-912.84 -686.20,-910.46 -685.54,-908.16 -685.11,-907.13 -684.59,-906.12 -683.99,-905.19 -683.30,-904.35 -682.52,-903.61 -681.66,-902.98 -680.72,-902.46 -679.70,-902.05 -678.64,-901.75 -677.52,-901.55 -676.40,-901.45 -674.01,-901.49 -671.61,-901.80 -669.22,-902.32 -665.62,-903.40"/>
    </edge>
    <edge id=":43_3" function="internal">
        <lane id=":43_3_0" index="0" disallow="pedestrian tram rail_urban rail rail_electric rail_fast ship" speed="13.75" length="33.12" width="3.50" shape="-686.80,-915.18 -686.74,-912.90 -686.82,-909.34 -687.18,-905.76 -687.88,-902.21 -688.60,-899.85 -689.55,-897.56 -690.76,-895.37 -692.26,-893.33 -694.02,-891.51 -696.03,-889.95 -698.23,-888.70 -700.52,-887.75"/>
    </edge>
    <edge id=":43_4" function="internal">
        <lane id=":43_4_0" index="0" disallow="pedestrian tram rail_urban rail rail_electric rail_fast ship" speed="12.80" length="28.76" width="3.50" shape="-701.69,-891.04 -699.73,-891.86 -697.89,-892.93 -696.22,-894.26 -694.77,-895.81 -693.55,-897.56 -692.56,-899.44 -691.78,-901.42 -691.19,-903.47 -690.60,-906.61 -690.30,-909.79 -690.24,-912.98 -690.30,-915.13"/>
    </edge>
    <edge id=":43_5" function="internal">
        <lane id=":43_5_0" index="0" disallow="pedestrian tram rail_urban rail rail_electric rail_fast ship" speed="36.11" length="38.13" width="3.50" shape="-701.69,-891.04 -683.67,-897.22 -665.62,-903.40"/>
    </edge>
    <edge id=":44_0" function="internal">
        <lane id=":44_0_0" index="0" disallow="pedestrian tram rail_urban rail rail_electric rail_fast ship" speed="11.33" length="28.60" width="3.50" shape="-730.58,-916.83 -731.50,-920.05 -732.30,-922.10 -733.29,-924.06 -734.50,-925.89 -735.19,-926.74 -735.95,-927.54 -736.77,-928.27 -737.65,-928.92 -738.59,-929.50 -739.57,-929.99 -740.59,-930.39 -741.64,-930.70 -743.81,-931.08 -746.00,-931.16 -748.19,-930.99 -750.36,-930.63 -751.42,-930.39"/>
    </edge>
    <edge id=":44_1" function="internal">
        <lane id=":44_1_0" index="0" disallow="pedestrian tram rail_urban rail rail_electric rail_fast ship" speed="36.11" length="37.92" width="3.50" shape="-730.58,-916.83 -731.62,-922.05 -732.33,-927.26 -732.85,-933.55 -733.08,-940.91 -732.96,-949.33 -732.72,-954.57"/>
    </edge>
    <edge id=":44_2" function="internal">
        <lane id=":44_2_0" index="0" disallow="pedestrian tram rail_urban rail rail_electric rail_fast ship" speed="36.11" length="36.93" width="3.50" shape="-729.22,-954.46 -729.46,-949.25 -729.58,-941.01 -729.36,-933.83 -728.86,-927.71 -728.17,-922.67 -727.19,-917.70"/>
    </edge>
    <edge id=":44_3" function="internal">
        <lane id=":44_3_0" index="0" disallow="pedestrian tram rail_urban rail rail_electric rail_fast ship" speed="13.73" length="35.45" width="3.50" shape="-729.22,-954.46 -729.46,-951.97 -729.89,-949.57 -730.55,-947.20 -731.45,-944.90 -732.60,-942.70 -733.99,-940.65 -735.60,-938.76 -737.40,-937.06 -739.34,-935.57 -741.42,-934.26 -744.64,-932.65 -748.00,-931.37 -751.42,-930.39"/>
    </edge>
    <edge id=":44_4" function="internal">
        <lane id=":44_4_0" index="0" disallow="pedestrian tram rail_urban rail rail_electric rail_fast ship" speed="12.84" length="30.87" width="3.50" shape="-752.25,-933.79 -749.19,-934.66 -746.20,-935.79 -743.34,-937.21 -741.53,-938.34 -739.83,-939.63 -738.27,-941.08 -736.88,-942.69 -735.67,-944.45 -734.67,-946.34 -733.89,-948.32 -733.31,-950.37 -732.92,-952.47 -732.72,-954.57"/>
    </edge>
    <edge id=":44_5" function="internal">
        <lane id=":44_5_0" index="0" disallow="pedestrian tram rail_urban rail rail_electric rail_fast ship" speed="12.35" length="34.15" width="3.50" shape="-752.25,-933.79 -751.01,-934.07 -748.50,-934.49 -745.92,-934.69 -743.29,-934.60 -740.69,-934.15 -739.36,-933.77 -738.09,-933.28 -736.87,-932.67 -735.70,-931.96 -734.61,-931.15 -733.59,-930.26 -732.66,-929.28 -731.79,-928.23 -730.35,-926.05 -729.17,-923.73 -728.23,-921.33 -727.19,-917.70"/>
    </edge>

    <edge id="12410" from="41" to="17" priority="3" type="highway.residential" spreadType="center" length="52.64" shape="-720.91,-888.42 -789.83,-869.45">
        <lane id="12410_0" index="0" disallow="pedestrian tram rail_urban rail rail_electric rail_fast ship" speed="36.11" length="52.64" width="3.50" customShape="1" shape="-737.80,-876.97 -739.28,-876.61 -749.65,-874.30 -758.12,-872.77 -766.65,-871.63 -789.83,-869.45"/>
    </edge>
    <edge id="12411" from="36" to="41" priority="3" type="highway.residential" spreadType="center" length="52.17" shape="-790.18,-872.93 -721.84,-891.79">
        <lane id="12411_0" index="0" disallow="pedestrian tram rail_urban rail rail_electric rail_fast ship" speed="36.11" length="52.17" width="3.50" customShape="1" shape="-790.18,-872.93 -767.13,-875.10 -758.72,-876.22 -750.36,-877.73 -740.08,-880.02 -738.61,-880.37"/>
    </edge>
    <edge id="12413" from="43" to="41" priority="3" type="highway.residential" spreadType="center" length="0.31" shape="-684.28,-900.48 -720.87,-888.43">
        <lane id="12413_0" index="0" disallow="pedestrian tram rail_urban rail rail_electric rail_fast ship" speed="36.11" length="0.31" width="3.50" customShape="1" shape="-700.52,-887.75 -700.68,-887.69 -700.81,-887.65"/>
    </edge>
    <edge id="12414" from="41" to="43" priority="3" type="highway.residential" spreadType="center" length="0.27" shape="-721.96,-891.76 -685.38,-903.80">
        <lane id="12414_0" index="0" disallow="pedestrian tram rail_urban rail rail_electric rail_fast ship" speed="36.11" length="0.27" width="3.50" customShape="1" shape="-701.93,-890.96 -701.81,-891.00 -701.68,-891.05"/>
    </edge>
    <edge id="12416" from="42" to="43" priority="3" type="highway.residential" spreadType="center" length="5.76" shape="-639.77,-908.15 -684.68,-900.38">
        <lane id="12416_0" index="0" disallow="pedestrian tram rail_urban rail rail_electric rail_fast ship" speed="36.11" length="5.76" width="3.50" customShape="1" shape="-659.06,-901.94 -661.78,-901.01 -664.51,-900.08"/>
    </edge>
    <edge id="12417" from="43" to="42" priority="3" type="highway.residential" spreadType="center" length="5.73" shape="-685.27,-903.82 -640.36,-911.59">
        <lane id="12417_0" index="0" disallow="pedestrian tram rail_urban rail rail_electric rail_fast ship" speed="36.11" length="5.73" width="3.50" customShape="1" shape="-665.62,-903.40 -662.92,-904.32 -660.20,-905.25"/>
    </edge>
    <edge id="12529" from="40" to="42" priority="3" type="highway.residential" spreadType="center" length="70.00" shape="-553.47,-935.35 -639.57,-908.19">
        <lane id="12529_0" index="0" disallow="pedestrian tram rail_urban rail rail_electric rail_fast ship" speed="36.11" length="70.00" width="3.50" customShape="1" shape="-553.47,-935.35 -570.08,-930.19 -620.32,-914.59"/>
    </edge>
    <edge id="12530" from="42" to="24" priority="3" type="highway.residential" spreadType="center" length="70.00" shape="-640.63,-911.53 -554.51,-938.69">
        <lane id="12530_0" index="0" disallow="pedestrian tram rail_urban rail rail_electric rail_fast ship" speed="36.11" length="70.00" width="3.50" customShape="1" shape="-621.36,-917.93 -571.12,-933.53 -554.51,-938.69"/>
    </edge>
    <edge id="12739" from="42" to="23" priority="3" type="highway.residential" spreadType="center" length="70.01" shape="-638.72,-910.99 -582.60,-840.70">
        <lane id="12739_0" index="0" disallow="pedestrian tram rail_urban rail rail_electric rail_fast ship" speed="36.11" length="70.01" width="3.50" customShape="1" shape="-629.76,-891.90 -629.08,-890.58 -626.38,-885.77 -623.63,-881.58 -620.57,-877.60 -616.93,-873.46 -612.32,-868.84 -598.66,-856.28 -592.62,-850.26 -582.60,-840.70"/>
    </edge>
    <edge id="12740" from="38" to="42" priority="3" type="highway.residential" spreadType="center" length="70.00" shape="-585.89,-839.00 -641.46,-908.81">
        <lane id="12740_0" index="0" disallow="pedestrian tram rail_urban rail rail_electric rail_fast ship" speed="36.11" length="70.00" width="3.50" customShape="1" shape="-585.89,-839.00 -595.22,-847.91 -601.29,-853.95 -615.04,-866.60 -619.73,-871.33 -623.45,-875.60 -626.59,-879.71 -629.42,-884.03 -632.18,-888.96 -632.89,-890.33"/>
    </edge>
    <edge id="12742" from="35" to="42" priority="3" type="highway.residential" spreadType="center" length="70.00" shape="-676.11,-992.77 -638.46,-910.57">
        <lane id="12742_0" index="0" disallow="pedestrian tram rail_urban rail rail_electric rail_fast ship" speed="36.11" length="70.00" width="3.50" customShape="1" shape="-676.11,-992.77 -671.64,-984.26 -665.67,-972.05 -659.20,-957.86 -646.87,-929.20"/>
    </edge>
    <edge id="12743" from="42" to="22" priority="3" type="highway.residential" spreadType="center" length="70.01" shape="-641.64,-909.11 -679.34,-991.39">
        <lane id="12743_0" index="0" disallow="pedestrian tram rail_urban rail rail_electric rail_fast ship" speed="36.11" length="70.01" width="3.50" customShape="1" shape="-650.08,-927.82 -662.39,-956.41 -668.83,-970.54 -674.76,-982.68 -679.34,-991.39"/>
    </edge>
    <edge id="13049" from="44" to="41" priority="3" type="highway.residential" spreadType="center" length="15.49" shape="-735.61,-935.26 -719.77,-890.68">
        <lane id="13049_0" index="0" disallow="pedestrian tram rail_urban rail rail_electric rail_fast ship" speed="36.11" length="15.49" width="3.50" customShape="1" shape="-727.19,-917.70 -725.65,-911.71 -722.96,-902.80"/>
    </edge>
    <edge id="13050" from="41" to="44" priority="3" type="highway.residential" spreadType="center" length="15.70" shape="-723.06,-889.51 -738.90,-934.09">
        <lane id="13050_0" index="0" disallow="pedestrian tram rail_urban rail rail_electric rail_fast ship" speed="36.11" length="15.70" width="3.50" customShape="1" shape="-726.31,-901.78 -729.03,-910.78 -730.59,-916.88"/>
    </edge>
    <edge id="13052" from="37" to="44" priority="3" type="highway.residential" spreadType="center" length="70.01" shape="-747.97,-1020.00 -735.50,-934.83">
        <lane id="13052_0" index="0" disallow="pedestrian tram rail_urban rail rail_electric rail_fast ship" speed="36.11" length="70.01" width="3.50" customShape="1" shape="-747.97,-1020.00 -744.33,-1014.94 -740.75,-1009.35 -737.75,-1004.02 -735.98,-1000.35 -734.95,-997.46 -733.16,-991.08 -731.62,-986.75 -730.54,-983.35 -730.03,-980.85 -729.42,-976.30 -729.07,-970.70 -729.00,-961.01 -729.23,-954.37"/>
    </edge>
    <edge id="13053" from="44" to="34" priority="3" type="highway.residential" spreadType="center" length="70.01" shape="-738.96,-934.31 -752.23,-1019.87">
        <lane id="13053_0" index="0" disallow="pedestrian tram rail_urban rail rail_electric rail_fast ship" speed="36.11" length="70.01" width="3.50" customShape="1" shape="-732.72,-954.57 -732.50,-961.09 -732.57,-970.63 -732.92,-976.08 -733.51,-980.46 -734.01,-982.79 -735.10,-986.06 -736.60,-990.39 -738.38,-996.70 -739.38,-999.41 -741.13,-1002.91 -744.08,-1008.10 -747.62,-1013.55 -752.04,-1019.63 -752.23,-1019.87"/>
    </edge>
    <edge id="13158" from="39" to="44" priority="3" type="highway.residential" spreadType="center" length="70.10" shape="-819.77,-916.16 -737.61,-936.32">
        <lane id="13158_0" index="0" disallow="pedestrian tram rail_urban rail rail_electric rail_fast ship" speed="36.11" length="70.10" width="3.50" customShape="1" shape="-819.77,-916.16 -805.87,-920.91 -793.38,-925.15 -784.16,-927.95 -775.81,-930.12 -771.34,-931.02 -755.74,-933.03 -752.16,-933.81"/>
    </edge>
    <edge id="13159" from="44" to="33" priority="3" type="highway.residential" spreadType="center" length="70.00" shape="-736.78,-932.92 -818.93,-912.75">
        <lane id="13159_0" index="0" disallow="pedestrian tram rail_urban rail rail_electric rail_fast ship" speed="36.11" length="70.00" width="3.50" customShape="1" shape="-751.42,-930.39 -755.01,-929.61 -770.60,-927.59 -774.96,-926.72 -783.22,-924.58 -792.36,-921.80 -804.80,-917.58 -818.93,-912.75"/>
    </edge>
    <edge id="13361" from="10" to="43" priority="3" type="highway.residential" spreadType="center" length="32.55" shape="-683.32,-947.41 -683.16,-902.05">
        <lane id="13361_0" index="0" disallow="pedestrian tram rail_urban rail rail_electric rail_fast ship" speed="36.11" length="32.55" width="3.50" customShape="1" shape="-683.32,-947.41 -685.17,-939.64 -685.87,-935.70 -686.62,-927.75 -686.90,-921.27 -686.80,-915.18"/>
    </edge>
    <edge id="13362" from="43" to="3" priority="3" type="highway.residential" spreadType="center" length="33.39" shape="-686.66,-902.04 -686.73,-948.19">
        <lane id="13362_0" index="0" disallow="pedestrian tram rail_urban rail rail_electric rail_fast ship" speed="36.11" length="33.39" width="3.50" customShape="1" shape="-690.30,-915.13 -690.40,-921.29 -690.11,-927.97 -689.34,-936.15 -688.61,-940.26 -686.73,-948.19"/>
    </edge>

    <junction id="10" type="dead_end" x="-683.32" y="-947.41" incLanes="" intLanes="" shape="-685.02,-947.81 -681.62,-947.01" rightOfWay="edgePriority"/>
    <junction id="17" type="dead_end" x="-789.83" y="-869.45" incLanes="12410_0" intLanes="" shape="-789.67,-867.70 -789.99,-871.19" rightOfWay="edgePriority"/>
    <junction id="22" type="dead_end" x="-679.34" y="-991.39" incLanes="12743_0" intLanes="" shape="-680.89,-990.57 -677.79,-992.20" rightOfWay="edgePriority"/>
    <junction id="23" type="dead_end" x="-582.60" y="-840.70" incLanes="12739_0" intLanes="" shape="-581.39,-841.97 -583.81,-839.43" rightOfWay="edgePriority"/>
    <junction id="24" type="dead_end" x="-554.51" y="-938.69" incLanes="12530_0" intLanes="" shape="-555.03,-940.36 -553.99,-937.02" rightOfWay="edgePriority"/>
    <junction id="3" type="dead_end" x="-686.73" y="-948.19" incLanes="13362_0" intLanes="" shape="-688.43,-948.59 -685.03,-947.78" rightOfWay="edgePriority"/>
    <junction id="33" type="dead_end" x="-818.93" y="-912.75" incLanes="13159_0" intLanes="" shape="-818.37,-911.09 -819.50,-914.40" rightOfWay="edgePriority"/>
    <junction id="34" type="dead_end" x="-752.23" y="-1019.87" incLanes="13053_0" intLanes="" shape="-753.60,-1018.78 -750.86,-1020.96" rightOfWay="edgePriority"/>
    <junction id="35" type="dead_end" x="-676.11" y="-992.77" incLanes="" intLanes="" shape="-677.66,-991.96 -674.57,-993.59" rightOfWay="edgePriority"/>
    <junction id="36" type="dead_end" x="-790.18" y="-872.93" incLanes="" intLanes="" shape="-790.02,-871.19 -790.34,-874.67" rightOfWay="edgePriority"/>
    <junction id="37" type="dead_end" x="-747.97" y="-1020.00" incLanes="" intLanes="" shape="-749.39,-1018.97 -746.55,-1021.02" rightOfWay="edgePriority"/>
    <junction id="38" type="dead_end" x="-585.89" y="-839.00" incLanes="" intLanes="" shape="-584.68,-840.27 -587.10,-837.74" rightOfWay="edgePriority"/>
    <junction id="39" type="dead_end" x="-819.77" y="-916.16" incLanes="" intLanes="" shape="-819.21,-914.50 -820.34,-917.81" rightOfWay="edgePriority"/>
    <junction id="40" type="dead_end" x="-553.47" y="-935.35" incLanes="" intLanes="" shape="-553.99,-937.02 -552.95,-933.68" rightOfWay="edgePriority"/>
    <junction id="41" type="priority" x="-721.41" y="-890.09" incLanes="12413_0 13049_0 12411_0" intLanes=":41_0_0 :41_1_0 :41_2_0 :41_3_0 :41_4_0 :41_5_0" shape="-700.23,-885.99 -702.50,-892.62 -706.94,-891.57 -710.85,-891.66 -714.25,-892.87 -717.12,-895.22 -719.46,-898.70 -721.29,-903.30 -727.98,-901.28 -727.00,-896.46 -727.14,-892.28 -728.41,-888.76 -730.82,-885.88 -734.35,-883.65 -739.02,-882.07 -737.39,-875.27 -729.38,-877.20 -723.46,-878.67 -718.62,-879.98 -713.82,-881.44 -708.03,-883.34">
        <request index="0" response="000000" foes="001000" cont="0"/>
        <request index="1" response="110000" foes="111000" cont="0"/>