<routes>
	<vehicle depart="0.1" departLane="0" departPos="4.506268446633072" departSpeed="8.956193" id="312" type="bicycle">
		<route edges=":47_5 94819"/>
	</vehicle>
	<vehicle depart="0.1" departLane="0" departPos="9.426747765084404" departSpeed="0.0" id="31" type="passenger">
		<route edges=":44_2 94697"/>
	</vehicle>
	<vehicle depart="0.1" departLane="0" departPos="62.39741073448254" departSpeed="0.0" id="32" type="passenger">
		<route edges="94820 94704"/>
	</vehicle>
	<vehicle depart="0.1" departLane="0" departPos="69.89806721372825" departSpeed="0.0" id="313" type="passenger">
		<route edges="94820 94704"/>
	</vehicle>
	<vehicle depart="0.1" departLane="0" departPos="8.436757802035283" departSpeed="7.6084401" id="332" type="passenger">
		<route edges=":48_2 94703 94700"/>
	</vehicle>
	<vehicle depart="0.1" departLane="0" departPos="65.7858795809904" departSpeed="6.6966553" id="336" type="passenger">
		<route edges="94706 94703 94700"/>
	</vehicle>
	<vehicle depart="0.1" departLane="0" departPos="48.74782651361571" departSpeed="6.0793316" id="341" type="passenger">
		<route edges="94706 94703"/>
	</vehicle>
	<vehicle depart="0.1" departLane="0" departPos="2.5" departSpeed="8.1088165" id="347" type="passenger">
		<route edges="94706 94711"/>
	</vehicle>
	<vehicle depart="0.1" departLane="0" departPos="24.200707635890883" departSpeed="9.1395373" id="343" type="motorcycle">
		<route edges="94706 94711"/>
	</vehicle>
</routes>
