<routes>
	<vehicle depart="0.1" departLane="0" departPos="5.02527586177858" departSpeed="4.5086379" id="315" type="bicycle">
		<route edges=":28_2 54894 52152"/>
	</vehicle>
	<vehicle depart="0.1" departLane="0" departPos="2.5" departSpeed="9.8441315" id="317" type="passenger">
		<route edges="54245 52540 54251"/>
	</vehicle>
	<vehicle depart="0.1" departLane="0" departPos="8.13423089746278" departSpeed="8.3913113" id="318" type="passenger">
		<route edges=":28_2 54894 52152 54918"/>
	</vehicle>
	<vehicle depart="0.1" departLane="1" departPos="19.513960878882852" departSpeed="0.25962212" id="320" type="passenger">
		<route edges="52542 52550 54405"/>
	</vehicle>
	<vehicle depart="0.1" departLane="0" departPos="5.905289748279549" departSpeed="4.8011524" id="323" type="passenger">
		<route edges="52550 54894"/>
	</vehicle>
	<vehicle depart="0.1" departLane="1" departPos="8.861775530940209" departSpeed="0.58613282" id="324" type="passenger">
		<route edges="52542 52550"/>
	</vehicle>
	<vehicle depart="0.1" departLane="0" departPos="21.26729524883031" departSpeed="1.1927664" id="325" type="passenger">
		<route edges="54534 52542 52550"/>
	</vehicle>
	<vehicle depart="0.1" departLane="0" departPos="15.288046319397132" departSpeed="4.3753157" id="329" type="passenger">
		<route edges="52542 52550 54894"/>
	</vehicle>
	<vehicle depart="0.1" departLane="0" departPos="1.25" departSpeed="2.4283256" id="331" type="motorcycle">
		<route edges="52542 52550"/>
	</vehicle>
	<vehicle depart="0.1" departLane="0" departPos="9.914194006923694" departSpeed="0.0" id="30" type="truck">
		<route edges="52098 54245"/>
	</vehicle>
</routes>
