<routes>
	<vehicle depart="0.1" departLane="0" departPos="6.439098259898817" departSpeed="4.0722365" id="313" type="passenger">
		<route edges="126223 125121"/>
	</vehicle>
	<vehicle depart="0.1" departLane="0" departPos="19.329159328101866" departSpeed="1.4865124" id="326" type="passenger">
		<route edges="126223 125121"/>
	</vehicle>
	<vehicle depart="0.1" departLane="0" departPos="24.53273550173131" departSpeed="6.6148046" id="333" type="motorcycle">
		<route edges=":70_5 126499 126087"/>
	</vehicle>
	<vehicle depart="0.1" departLane="0" departPos="28.815466555298954" departSpeed="11.366339" id="328" type="truck">
		<route edges=":62_2 126501 126498"/>
	</vehicle>
</routes>
