<?xml version="1.0" encoding="UTF-8"?>

<!-- generated on Fri Dec 18 15:41:17 2020 by Eclipse SUMO netconvert Version 1.8.0
<configuration xmlns:xsi="http://www.w3.org/2001/XMLSchema-instance" xsi:noNamespaceSchemaLocation="http://sumo.dlr.de/xsd/netconvertConfiguration.xsd">

    <input>
        <node-files value="./converted_scenarios/hand-crafted/DEU_Muc-2_2_I-1-1/nodes.net.xml"/>
        <edge-files value="./converted_scenarios/hand-crafted/DEU_Muc-2_2_I-1-1/edges.net.xml"/>
        <connection-files value="./converted_scenarios/hand-crafted/DEU_Muc-2_2_I-1-1/_connections.net.xml"/>
        <tllogic-files value="./converted_scenarios/hand-crafted/DEU_Muc-2_2_I-1-1/_tll.net.xml"/>
    </input>

    <output>
        <output-file value="./converted_scenarios/hand-crafted/DEU_Muc-2_2_I-1-1/DEU_Muc-2_2_I-1-1.net.xml"/>
    </output>

    <processing>
        <plain.extend-edge-shape value="true"/>
        <geometry.remove.keep-edges.explicit value="true"/>
        <geometry.avoid-overlap value="true"/>
        <offset.disable-normalization value="true"/>
    </processing>

    <junctions>
        <no-turnarounds value="true"/>
        <junctions.internal-link-detail value="20"/>
    </junctions>

    <report>
        <aggregate-warnings value="5"/>
    </report>

    <random_number>
        <seed value="1234"/>
    </random_number>

</configuration>
-->

<net version="1.6" junctionCornerDetail="5" junctionLinkDetail="20" limitTurnSpeed="5.50" xmlns:xsi="http://www.w3.org/2001/XMLSchema-instance" xsi:noNamespaceSchemaLocation="http://sumo.dlr.de/xsd/net_file.xsd">

    <location netOffset="0.00,0.00" convBoundary="-366.29,-25.43,123.46,61.61" origBoundary="-366.29,-25.43,123.46,61.61" projParameter="!"/>

    <edge id="34782" from="1" to="2" priority="1" spreadType="center" length="496.73">
        <lane id="34782_0" index="0" disallow="bus truck rail_fast" speed="36.11" length="496.73" width="2.84" customShape="1" shape="122.85,-25.43 97.23,-20.34 71.59,-14.95 38.81,-7.97 0.05,-0.24 -27.24,4.80 -27.35,4.82 -62.75,11.23 -85.60,15.25 -85.73,15.27 -121.06,21.20 -155.08,26.59 -171.21,29.23 -180.95,30.85 -186.46,32.16 -186.70,32.22 -198.61,35.67 -198.74,35.71 -204.03,37.05 -210.68,38.45 -217.10,39.42 -217.33,39.46 -256.84,45.10 -257.13,45.14 -269.10,45.68 -280.80,46.32 -281.10,46.36 -293.86,48.02 -293.98,48.03 -316.36,51.08 -351.91,56.20 -352.18,56.25 -366.29,58.65"/>
    </edge>
    <edge id="34784" from="3" to="4" priority="1" spreadType="center" length="496.87">
        <lane id="34784_0" index="0" disallow="bus truck rail_fast" speed="36.11" length="496.87" width="2.86" customShape="1" shape="123.46,-22.42 97.83,-17.32 72.19,-11.97 39.40,-5.10 0.64,2.79 -26.75,8.03 -62.25,14.38 -85.20,18.37 -120.53,24.37 -154.59,29.86 -170.67,32.50 -170.89,32.53 -180.33,34.16 -180.62,34.23 -185.93,35.39 -186.19,35.47 -197.47,38.72 -197.83,38.83 -203.17,40.32 -203.37,40.35 -210.24,41.61 -216.62,42.50 -256.83,48.39 -268.96,48.88 -269.07,48.89 -280.75,49.65 -281.10,49.69 -293.64,51.01 -315.94,53.91 -351.66,59.36 -365.83,61.61"/>
    </edge>

    <junction id="1" type="dead_end" x="122.85" y="-25.43" incLanes="" intLanes="" shape="122.57,-26.82 123.13,-24.04"/>
    <junction id="2" type="dead_end" x="-366.29" y="58.65" incLanes="34782_0" intLanes="" shape="-366.06,60.05 -366.53,57.24"/>
    <junction id="3" type="dead_end" x="123.46" y="-22.42" incLanes="" intLanes="" shape="123.18,-23.82 123.73,-21.02"/>
    <junction id="4" type="dead_end" x="-365.83" y="61.61" incLanes="34784_0" intLanes="" shape="-365.61,63.02 -366.05,60.19"/>

</net>
