<routes>
	<vehicle depart="0.1" departLane="0" departPos="142.35090391692765" departSpeed="14.0" id="202" type="passenger">
		<route edges="34784"/>
	</vehicle>
	<vehicle depart="0.1" departLane="0" departPos="116.40526305298735" departSpeed="13.0" id="203" type="passenger">
		<route edges="34784"/>
	</vehicle>
	<vehicle depart="0.1" departLane="0" departPos="124.29216129441102" departSpeed="14.0" id="204" type="passenger">
		<route edges="34784"/>
	</vehicle>
	<vehicle depart="0.1" departLane="0" departPos="107.58203026971071" departSpeed="14.0" id="205" type="passenger">
		<route edges="34782"/>
	</vehicle>
	<vehicle depart="0.1" departLane="0" departPos="159.26604321114846" departSpeed="0" id="200" type="passenger_static">
		<route edges="34782"/>
	</vehicle>
</routes>
