<!-- generated on 2020-12-18 15:41:17.383187 by ipykernel_launcher.py v1_2_0+5214-53edc58fcd
-->
<nodes>
	<node id="1" type="from" x="122.8493" y="-25.4304"/>
	<node id="2" type="to" x="-366.2943" y="58.64575"/>
	<node id="3" type="from" x="123.45575" y="-22.41805"/>
	<node id="4" type="to" x="-365.8291" y="61.6065"/>
</nodes>
