<!-- generated on 2020-12-18 16:19:42.766597 by ipykernel_launcher.py v1_2_0+5214-53edc58fcd
-->
<nodes>
	<node id="1" type="from" x="-109.19225" y="57.34505"/>
	<node id="2" type="to" x="87.831975" y="-53.851524999999995"/>
	<node id="3" type="from" x="91.27629999999999" y="-47.757525"/>
	<node id="4" type="to" x="-105.75479999999999" y="63.442925"/>
</nodes>
