<routes>
	<vehicle depart="0.1" departLane="0" departPos="69.93654682908856" departSpeed="0.0" id="35" type="passenger">
		<route edges="12188 12191"/>
	</vehicle>
	<vehicle depart="0.1" departLane="0" departPos="62.43354672789143" departSpeed="0.0" id="319" type="passenger">
		<route edges="12188 12191"/>
	</vehicle>
	<vehicle depart="0.1" departLane="0" departPos="21.964188163479346" departSpeed="2.3742234" id="332" type="passenger">
		<route edges=":53_5 12187"/>
	</vehicle>
	<vehicle depart="0.1" departLane="0" departPos="57.63973594086468" departSpeed="3.1837326" id="339" type="passenger">
		<route edges="12441 12187"/>
	</vehicle>
	<vehicle depart="0.1" departLane="0" departPos="45.18837088600538" departSpeed="1.7148391" id="348" type="passenger">
		<route edges="12441 12187"/>
	</vehicle>
	<vehicle depart="0.1" departLane="0" departPos="24.498578476328962" departSpeed="2.3084226" id="356" type="passenger">
		<route edges="12441 12187"/>
	</vehicle>
</routes>
