<routes>
	<vehicle depart="0.1" departLane="0" departPos="3.8453174638137844" departSpeed="0.0" id="37" type="bicycle">
		<route edges="542 74"/>
	</vehicle>
	<vehicle depart="0.1" departLane="0" departPos="69.86912036533272" departSpeed="0.0" id="336" type="bus">
		<route edges="569 67"/>
	</vehicle>
	<vehicle depart="0.1" departLane="0" departPos="13.095582886951634" departSpeed="0.0" id="357" type="bus">
		<route edges="566 563"/>
	</vehicle>
	<vehicle depart="0.1" departLane="0" departPos="16.3059689791977" departSpeed="1.9352071" id="362" type="bus">
		<route edges="71 74 546"/>
	</vehicle>
	<vehicle depart="0.1" departLane="0" departPos="20.892030536664183" departSpeed="0.046238747" id="366" type="bus">
		<route edges="569 67"/>
	</vehicle>
	<vehicle depart="0.1" departLane="0" departPos="26.828584859757825" departSpeed="0.0" id="32" type="passenger">
		<route edges="76 546"/>
	</vehicle>
	<vehicle depart="0.1" departLane="0" departPos="46.50562408655145" departSpeed="0.0" id="33" type="passenger">
		<route edges="564 567"/>
	</vehicle>
	<vehicle depart="0.1" departLane="0" departPos="20.126837526110698" departSpeed="0.0" id="35" type="passenger">
		<route edges="76 546"/>
	</vehicle>
	<vehicle depart="0.1" departLane="0" departPos="60.17726358108352" departSpeed="0.0" id="39" type="passenger">
		<route edges="561 73"/>
	</vehicle>
	<vehicle depart="0.1" departLane="0" departPos="35.769656004363185" departSpeed="4.4886502" id="313" type="passenger">
		<route edges="73 70 570"/>
	</vehicle>
	<vehicle depart="0.1" departLane="0" departPos="10.141108948501" departSpeed="5.5841073" id="318" type="passenger">
		<route edges=":53_5 543 563"/>
	</vehicle>
	<vehicle depart="0.1" departLane="0" departPos="39.51320452316049" departSpeed="0.0" id="320" type="passenger">
		<route edges="564 567"/>
	</vehicle>
	<vehicle depart="0.1" departLane="0" departPos="52.92983959203418" departSpeed="0.0" id="322" type="passenger">
		<route edges="561 73"/>
	</vehicle>
	<vehicle depart="0.1" departLane="0" departPos="32.46485835639541" departSpeed="0.0" id="324" type="passenger">
		<route edges="564 567"/>
	</vehicle>
	<vehicle depart="0.1" departLane="0" departPos="13.025095929076242" departSpeed="0.0" id="326" type="passenger">
		<route edges="76 546"/>
	</vehicle>
	<vehicle depart="0.1" departLane="0" departPos="29.562416321939214" departSpeed="12.635756" id="327" type="passenger">
		<route edges="563"/>
	</vehicle>
	<vehicle depart="0.1" departLane="0" departPos="25.51852035202386" departSpeed="0.0" id="330" type="passenger">
		<route edges="564 567"/>
	</vehicle>
	<vehicle depart="0.1" departLane="0" departPos="33.71299457286961" departSpeed="0.0" id="332" type="passenger">
		<route edges="566 563"/>
	</vehicle>
	<vehicle depart="0.1" departLane="0" departPos="25.784174243269433" departSpeed="3.1129167" id="335" type="passenger">
		<route edges="73 70 67 64"/>
	</vehicle>
	<vehicle depart="0.1" departLane="0" departPos="26.75760535406838" departSpeed="0.0" id="339" type="passenger">
		<route edges="566 563"/>
	</vehicle>
	<vehicle depart="0.1" departLane="0" departPos="18.389653089103575" departSpeed="0.0" id="340" type="passenger">
		<route edges="564 567"/>
	</vehicle>
	<vehicle depart="0.1" departLane="0" departPos="55.07332281621246" departSpeed="0.0" id="342" type="passenger">
		<route edges="569 67"/>
	</vehicle>
	<vehicle depart="0.1" departLane="0" departPos="30.4556560914613" departSpeed="0.0" id="343" type="passenger">
		<route edges="561 73"/>
	</vehicle>
	<vehicle depart="0.1" departLane="0" departPos="10.788759070609316" departSpeed="1.1182503" id="344" type="passenger">
		<route edges="73 543"/>
	</vehicle>
	<vehicle depart="0.1" departLane="0" departPos="47.95341176858246" departSpeed="0.00011796686" id="345" type="passenger">
		<route edges="569 67"/>
	</vehicle>
	<vehicle depart="0.1" departLane="0" departPos="19.801819653847705" departSpeed="0.0" id="346" type="passenger">
		<route edges="566 563"/>
	</vehicle>
	<vehicle depart="0.1" departLane="0" departPos="5.822627309272622" departSpeed="0.0" id="348" type="passenger">
		<route edges="76 546"/>
	</vehicle>
	<vehicle depart="0.1" departLane="0" departPos="23.044179759469746" departSpeed="2.623095e-05" id="349" type="passenger">
		<route edges="561 73"/>
	</vehicle>
	<vehicle depart="0.1" departLane="0" departPos="11.2877730454394" departSpeed="0.0" id="350" type="passenger">
		<route edges="564 567"/>
	</vehicle>
	<vehicle depart="0.1" departLane="0" departPos="41.11055446373731" departSpeed="0.00084973017" id="351" type="passenger">
		<route edges="569 67"/>
	</vehicle>
	<vehicle depart="0.1" departLane="0" departPos="34.40393360644231" departSpeed="0.0042038244" id="354" type="passenger">
		<route edges="569 67"/>
	</vehicle>
	<vehicle depart="0.1" departLane="0" departPos="16.03245334473697" departSpeed="0.00014930164" id="355" type="passenger">
		<route edges="561 73"/>
	</vehicle>
	<vehicle depart="0.1" departLane="0" departPos="27.68849410565299" departSpeed="0.01598061" id="358" type="passenger">
		<route edges="569 67"/>
	</vehicle>
	<vehicle depart="0.1" departLane="0" departPos="7.955465348396732" departSpeed="10.964663" id="359" type="passenger">
		<route edges="563"/>
	</vehicle>
	<vehicle depart="0.1" departLane="0" departPos="9.330496701899962" departSpeed="0.00061234053" id="360" type="passenger">
		<route edges="561 73"/>
	</vehicle>
	<vehicle depart="0.1" departLane="0" departPos="2.5" departSpeed="9.9401276" id="364" type="passenger">
		<route edges=":52_5 71 74 546"/>
	</vehicle>
	<vehicle depart="0.1" departLane="0" departPos="7.2542764662782835" departSpeed="10.612635" id="368" type="passenger">
		<route edges="68 71"/>
	</vehicle>
	<vehicle depart="0.1" departLane="0" departPos="2.5" departSpeed="9.7456604" id="369" type="passenger">
		<route edges=":50_2 68 71"/>
	</vehicle>
	<vehicle depart="0.1" departLane="0" departPos="17.72406803565976" departSpeed="6.0143875" id="370" type="passenger">
		<route edges="65 68 71"/>
	</vehicle>
	<vehicle depart="0.1" departLane="0" departPos="7.4104844632131845" departSpeed="2.6295268" id="371" type="passenger">
		<route edges="65 68 71"/>
	</vehicle>
	<vehicle depart="0.1" departLane="0" departPos="35.44111359191691" departSpeed="0.0" id="334" type="motorcycle">
		<route edges="561 73"/>
	</vehicle>
	<vehicle depart="0.1" departLane="0" departPos="16.744952613482763" departSpeed="1.9107101" id="337" type="motorcycle">
		<route edges="73 543"/>
	</vehicle>
	<vehicle depart="0.1" departLane="0" departPos="1.25" departSpeed="0.52238525" id="347" type="motorcycle">
		<route edges="73 543"/>
	</vehicle>
	<vehicle depart="0.1" departLane="0" departPos="69.92521590083923" departSpeed="0.0" id="316" type="truck">
		<route edges="561 73 543"/>
	</vehicle>
	<vehicle depart="0.1" departLane="0" departPos="45.42776336251864" departSpeed="0.0" id="328" type="truck">
		<route edges="561 73"/>
	</vehicle>
	<vehicle depart="0.1" departLane="0" departPos="26.500819005419437" departSpeed="11.13068" id="367" type="truck">
		<route edges="68 71"/>
	</vehicle>
</routes>
