<routes>
	<vehicle depart="0.1" departLane="0" departPos="1.0" departSpeed="6.3505156" id="349" type="bicycle">
		<route edges=":17_3 22010"/>
	</vehicle>
	<vehicle depart="0.1" departLane="0" departPos="6.016840486969431" departSpeed="1.6086156" id="34" type="passenger">
		<route edges=":17_11 22010"/>
	</vehicle>
	<vehicle depart="0.1" departLane="0" departPos="69.51772451491146" departSpeed="0.0" id="313" type="passenger">
		<route edges="22123 21751"/>
	</vehicle>
	<vehicle depart="0.1" departLane="1" departPos="38.872898712136696" departSpeed="2.2883689" id="321" type="passenger">
		<route edges="21893 22010"/>
	</vehicle>
	<vehicle depart="0.1" departLane="1" departPos="13.685773698261668" departSpeed="1.4961719" id="351" type="passenger">
		<route edges="21893 22010"/>
	</vehicle>
	<vehicle depart="0.1" departLane="0" departPos="19.819790190420854" departSpeed="6.0110626" id="353" type="passenger">
		<route edges="21893 22124"/>
	</vehicle>
	<vehicle depart="0.1" departLane="0" departPos="20.59443213758669" departSpeed="12.574353" id="348" type="motorcycle">
		<route edges=":17_10 21751"/>
	</vehicle>
	<vehicle depart="0.1" departLane="1" departPos="24.483013130408793" departSpeed="2.1150343" id="328" type="truck">
		<route edges="21893 22010"/>
	</vehicle>
	<vehicle depart="0.1" departLane="0" departPos="35.11594602530309" departSpeed="6.970961" id="350" type="truck">
		<route edges="21893 21751"/>
	</vehicle>
</routes>
