<!-- generated on 2020-12-18 15:45:25.541610 by ipykernel_launcher.py v1_2_0+5214-53edc58fcd
-->
<nodes>
	<node id="1" type="from" x="-27.05056" y="37.12568"/>
	<node id="2" type="to" x="-4.96119" y="17.49642"/>
	<node id="3" type="to" x="110.18737500000002" y="-85.64794166666667"/>
	<node id="4" type="from" x="-34.49445" y="28.78465"/>
</nodes>
