<routes>
	<vehicle depart="0.1" departLane="5" departPos="77.91716632831294" departSpeed="0.8868" id="322" type="passenger">
		<route edges="16"/>
	</vehicle>
	<vehicle depart="0.1" departLane="1" departPos="61.54825269816067" departSpeed="13.3593" id="339" type="passenger">
		<route edges="16"/>
	</vehicle>
	<vehicle depart="0.1" departLane="0" departPos="56.55418634996842" departSpeed="15.9357" id="340" type="passenger">
		<route edges="16"/>
	</vehicle>
	<vehicle depart="0.1" departLane="3" departPos="45.54684398482923" departSpeed="12.2222" id="342" type="passenger">
		<route edges="16"/>
	</vehicle>
	<vehicle depart="0.1" departLane="4" departPos="46.28256908983058" departSpeed="10.9135" id="344" type="passenger">
		<route edges="16"/>
	</vehicle>
	<vehicle depart="0.1" departLane="0" departPos="23.520179383258842" departSpeed="15.3126" id="345" type="passenger">
		<route edges="16"/>
	</vehicle>
	<vehicle depart="0.1" departLane="2" departPos="43.72038295065506" departSpeed="12.0935" id="346" type="passenger">
		<route edges="16"/>
	</vehicle>
	<vehicle depart="0.1" departLane="3" departPos="16.175744839998302" departSpeed="11.6294" id="347" type="passenger">
		<route edges="16"/>
	</vehicle>
	<vehicle depart="0.1" departLane="4" departPos="28.736998334338335" departSpeed="10.7207" id="351" type="passenger">
		<route edges="16"/>
	</vehicle>
	<vehicle depart="0.1" departLane="2" departPos="13.926515542631178" departSpeed="14.3838" id="356" type="passenger">
		<route edges="16"/>
	</vehicle>
	<vehicle depart="0.1" departLane="1" departPos="18.085571914450316" departSpeed="14.0112" id="357" type="passenger">
		<route edges="16"/>
	</vehicle>
	<vehicle depart="0.1" departLane="5" departPos="65.34166749238555" departSpeed="2.4791" id="363" type="passenger">
		<route edges="16"/>
	</vehicle>
	<vehicle depart="0.1" departLane="4" departPos="12.907947102502707" departSpeed="10.9732" id="364" type="passenger">
		<route edges="16"/>
	</vehicle>
	<vehicle depart="0.1" departLane="3" departPos="30.603956998787154" departSpeed="10.4481" id="365" type="passenger">
		<route edges="16"/>
	</vehicle>
	<vehicle depart="0.1" departLane="5" departPos="56.75403503939016" departSpeed="2.405" id="376" type="passenger">
		<route edges="16"/>
	</vehicle>
	<vehicle depart="0.1" departLane="5" departPos="45.567116580669904" departSpeed="2.8302" id="396" type="passenger">
		<route edges="16"/>
	</vehicle>
	<vehicle depart="0.1" departLane="5" departPos="33.84688693853249" departSpeed="2.6527" id="397" type="passenger">
		<route edges="16"/>
	</vehicle>
</routes>
