<!-- generated on Tue Feb  9 22:15:34 2021 by Eclipse SUMO netconvert Version 1.8.0
<configuration xmlns:xsi="http://www.w3.org/2001/XMLSchema-instance" xsi:noNamespaceSchemaLocation="http://sumo.dlr.de/xsd/netconvertConfiguration.xsd">

    <input>
        <node-files value="./converted_scenarios/scenario-factory/DEU_Muehlhausen-2_2_I-1-1/DEU_Muehlhausen-2_2_I-1-1.nod.xml"/>
        <edge-files value="./converted_scenarios/scenario-factory/DEU_Muehlhausen-2_2_I-1-1/DEU_Muehlhausen-2_2_I-1-1.edg.xml"/>
        <connection-files value="./converted_scenarios/scenario-factory/DEU_Muehlhausen-2_2_I-1-1/DEU_Muehlhausen-2_2_I-1-1.con.xml"/>
        <tllogic-files value="./converted_scenarios/scenario-factory/DEU_Muehlhausen-2_2_I-1-1/DEU_Muehlhausen-2_2_I-1-1.tll.xml"/>
        <type-files value="/home/zen/commonroad-interactive-benchmarks/install/commonroad-map-tool/crmapconverter/sumo_map/templates/DEU.typ.xml"/>
    </input>

    <output>
        <output-file value="./converted_scenarios/scenario-factory/DEU_Muehlhausen-2_2_I-1-1/DEU_Muehlhausen-2_2_I-1-1.net.xml"/>
    </output>

    <processing>
        <geometry.remove.keep-edges.explicit value="true"/>
        <geometry.avoid-overlap value="true"/>
        <offset.disable-normalization value="true"/>
    </processing>

    <junctions>
        <no-turnarounds value="true"/>
        <junctions.internal-link-detail value="20"/>
    </junctions>

    <report>
        <aggregate-warnings value="5"/>
    </report>

    <random_number>
        <seed value="1234"/>
    </random_number>

</configuration>
--><net xmlns:xsi="http://www.w3.org/2001/XMLSchema-instance" version="1.6" junctionCornerDetail="5" junctionLinkDetail="20" limitTurnSpeed="5.50" xsi:noNamespaceSchemaLocation="http://sumo.dlr.de/xsd/net_file.xsd">

    <location netOffset="0.00,0.00" convBoundary="-186.51,239.47,142.60,467.12" origBoundary="-186.51,239.47,142.60,467.12" projParameter="!"/>

    <type id="highway.bridleway" priority="1" speed="2.78" allow="pedestrian" oneway="1" width="2.00"/>
    <type id="highway.bus_guideway" priority="1" speed="27.78" allow="bus" oneway="1"/>
    <type id="highway.cycleway" priority="1" speed="8.33" allow="bicycle" oneway="0" width="1.00"/>
    <type id="highway.footway" priority="1" speed="2.78" allow="pedestrian" oneway="1" width="2.00"/>
    <type id="highway.ford" priority="1" speed="2.78" allow="army" oneway="0"/>
    <type id="highway.living_street" priority="2" speed="2.78" disallow="tram rail_urban rail rail_electric rail_fast ship" oneway="0"/>
    <type id="highway.motorway" priority="14" speed="39.44" allow="private emergency authority army vip passenger hov taxi bus coach delivery truck trailer motorcycle evehicle custom1 custom2" oneway="1"/>
    <type id="highway.motorway_link" priority="9" speed="22.22" allow="private emergency authority army vip passenger hov taxi bus coach delivery truck trailer motorcycle evehicle custom1 custom2" oneway="1"/>
    <type id="highway.path" priority="1" speed="2.78" allow="pedestrian bicycle" oneway="0" width="2.00"/>
    <type id="highway.pedestrian" priority="1" speed="2.78" allow="pedestrian" oneway="1" width="2.00"/>
    <type id="highway.primary" priority="12" speed="27.78" disallow="pedestrian tram rail_urban rail rail_electric rail_fast ship" oneway="0"/>
    <type id="highway.primary_link" priority="7" speed="22.22" disallow="pedestrian tram rail_urban rail rail_electric rail_fast ship" oneway="0"/>
    <type id="highway.raceway" priority="15" speed="83.33" allow="vip" oneway="0"/>
    <type id="highway.residential" priority="3" speed="13.89" disallow="pedestrian tram rail_urban rail rail_electric rail_fast ship" oneway="0"/>
    <type id="highway.secondary" priority="11" speed="27.78" disallow="pedestrian tram rail_urban rail rail_electric rail_fast ship" oneway="0"/>
    <type id="highway.secondary_link" priority="6" speed="22.22" disallow="pedestrian tram rail_urban rail rail_electric rail_fast ship" oneway="0"/>
    <type id="highway.service" priority="1" speed="5.56" allow="pedestrian delivery bicycle" oneway="0"/>
    <type id="highway.stairs" priority="1" speed="1.39" allow="pedestrian" oneway="1" width="2.00"/>
    <type id="highway.step" priority="1" speed="1.39" allow="pedestrian" oneway="1" width="2.00"/>
    <type id="highway.steps" priority="1" speed="1.39" allow="pedestrian" oneway="1" width="2.00"/>
    <type id="highway.tertiary" priority="10" speed="22.22" disallow="pedestrian tram rail_urban rail rail_electric rail_fast ship" oneway="0"/>
    <type id="highway.tertiary_link" priority="5" speed="22.22" disallow="pedestrian tram rail_urban rail rail_electric rail_fast ship" oneway="0"/>
    <type id="highway.track" priority="1" speed="5.56" allow="pedestrian motorcycle moped bicycle" oneway="0"/>
    <type id="highway.trunk" priority="13" speed="27.78" disallow="pedestrian bicycle tram rail_urban rail rail_electric rail_fast ship" oneway="0"/>
    <type id="highway.trunk_link" priority="8" speed="22.22" disallow="pedestrian bicycle tram rail_urban rail rail_electric rail_fast ship" oneway="0"/>
    <type id="highway.unclassified" priority="4" speed="13.89" disallow="pedestrian tram rail_urban rail rail_electric rail_fast ship" oneway="0"/>
    <type id="highway.unsurfaced" priority="1" speed="8.33" disallow="tram rail_urban rail rail_electric rail_fast ship" oneway="0"/>
    <type id="railway.highspeed" priority="21" speed="69.44" allow="rail_fast" oneway="1"/>
    <type id="railway.light_rail" priority="19" speed="27.78" allow="rail_urban" oneway="1"/>
    <type id="railway.preserved" priority="16" speed="27.78" allow="rail" oneway="1"/>
    <type id="railway.rail" priority="20" speed="44.44" allow="rail" oneway="1"/>
    <type id="railway.subway" priority="18" speed="27.78" allow="rail_urban" oneway="1"/>
    <type id="railway.tram" priority="17" speed="13.89" allow="tram" oneway="1"/>

    <edge id=":23_0" function="internal">
        <lane id=":23_0_0" index="0" disallow="pedestrian tram rail_urban rail rail_electric rail_fast ship" speed="36.11" length="3.00" width="3.50" shape="-92.72,357.64 -89.74,358.01"/>
    </edge>
    <edge id=":29_0" function="internal">
        <lane id=":29_0_0" index="0" disallow="pedestrian tram rail_urban rail rail_electric rail_fast ship" speed="36.11" length="2.96" width="3.50" shape="17.90,374.53 20.86,374.37"/>
    </edge>
    <edge id=":32_0" function="internal">
        <lane id=":32_0_0" index="0" disallow="pedestrian tram rail_urban rail rail_electric rail_fast ship" speed="36.11" length="2.99" width="3.50" shape="45.04,371.06 47.96,370.42"/>
    </edge>
    <edge id=":35_0" function="internal">
        <lane id=":35_0_0" index="0" disallow="pedestrian tram rail_urban rail rail_electric rail_fast ship" speed="36.11" length="2.96" width="3.50" shape="21.03,377.86 18.07,378.03"/>
    </edge>
    <edge id=":37_0" function="internal">
        <lane id=":37_0_0" index="0" disallow="pedestrian tram rail_urban rail rail_electric rail_fast ship" speed="36.11" length="7.72" width="3.50" shape="-75.84,284.87 -68.26,286.32"/>
    </edge>
    <edge id=":38_0" function="internal">
        <lane id=":38_0_0" index="0" disallow="pedestrian tram rail_urban rail rail_electric rail_fast ship" speed="36.11" length="0.23" width="3.50" shape="74.97,364.17 75.19,364.12"/>
    </edge>
    <edge id=":41_0" function="internal">
        <lane id=":41_0_0" index="0" disallow="pedestrian tram rail_urban rail rail_electric rail_fast ship" speed="36.11" length="2.98" width="3.50" shape="48.73,373.83 45.82,374.48"/>
    </edge>
    <edge id=":49_0" function="internal">
        <lane id=":49_0_0" index="0" disallow="pedestrian tram rail_urban rail rail_electric rail_fast ship" speed="36.11" length="2.97" width="3.50" shape="102.22,367.86 104.80,369.33"/>
    </edge>
    <edge id=":50_0" function="internal">
        <lane id=":50_0_0" index="0" disallow="pedestrian tram rail_urban rail rail_electric rail_fast ship" speed="36.11" length="2.92" width="3.50" shape="77.27,367.28 74.41,367.89"/>
    </edge>
    <edge id=":51_0" function="internal">
        <lane id=":51_0_0" index="0" disallow="pedestrian tram rail_urban rail rail_electric rail_fast ship" speed="36.11" length="7.79" width="3.50" shape="-71.41,255.41 -70.83,255.43 -70.30,255.45 -69.83,255.47 -69.40,255.49 -69.01,255.52 -68.65,255.55 -68.31,255.58 -67.99,255.61 -67.68,255.65 -67.37,255.69 -67.07,255.74 -66.75,255.79 -66.41,255.84 -66.05,255.90 -65.66,255.96 -65.24,256.02 -64.77,256.09 -64.25,256.17 -63.67,256.25"/>
    </edge>
    <edge id=":57_0" function="internal">
        <lane id=":57_0_0" index="0" disallow="pedestrian tram rail_urban rail rail_electric rail_fast ship" speed="36.11" length="2.97" width="3.50" shape="103.05,372.36 100.47,370.89"/>
    </edge>
    <edge id=":59_0" function="internal">
        <lane id=":59_0_0" index="0" disallow="pedestrian tram rail_urban rail rail_electric rail_fast ship" speed="36.11" length="3.00" width="3.50" shape="-104.96,359.48 -107.93,359.04"/>
    </edge>
    <edge id=":64_0" function="internal">
        <lane id=":64_0_0" index="0" disallow="pedestrian tram rail_urban rail rail_electric rail_fast ship" speed="36.11" length="3.00" width="3.50" shape="-107.42,355.58 -104.45,356.02"/>
    </edge>
    <edge id=":66_0" function="internal">
        <lane id=":66_0_0" index="0" disallow="pedestrian tram rail_urban rail rail_electric rail_fast ship" speed="36.11" length="7.79" width="3.50" shape="-64.12,259.72 -64.69,259.64 -65.21,259.57 -65.68,259.50 -66.11,259.43 -66.50,259.37 -66.86,259.32 -67.19,259.27 -67.51,259.22 -67.82,259.18 -68.13,259.14 -68.44,259.10 -68.76,259.07 -69.09,259.04 -69.45,259.01 -69.85,258.98 -70.28,258.96 -70.75,258.94 -71.27,258.92 -71.86,258.90"/>
    </edge>
    <edge id=":67_0" function="internal">
        <lane id=":67_0_0" index="0" disallow="pedestrian tram rail_urban rail rail_electric rail_fast ship" speed="36.11" length="7.70" width="3.50" shape="-68.85,289.77 -76.41,288.33"/>
    </edge>
    <edge id=":68_0" function="internal">
        <lane id=":68_0_0" index="0" disallow="pedestrian tram rail_urban rail rail_electric rail_fast ship" speed="36.11" length="3.00" width="3.50" shape="-90.16,361.48 -93.14,361.11"/>
    </edge>
    <edge id=":73_0" function="internal">
        <lane id=":73_0_0" index="0" disallow="pedestrian tram rail_urban rail rail_electric rail_fast ship" speed="36.11" length="35.63" width="3.50" shape="11.09,286.13 6.44,303.37 1.80,320.53"/>
    </edge>
    <edge id=":73_1" function="internal">
        <lane id=":73_1_0" index="0" disallow="pedestrian tram rail_urban rail rail_electric rail_fast ship" speed="12.31" length="32.20" width="3.50" shape="11.10,286.13 10.27,288.62 9.17,290.95 8.50,292.04 7.74,293.08 6.90,294.06 5.98,294.96 4.99,295.77 3.92,296.50 2.81,297.13 0.44,298.13 -2.05,298.80 -4.59,299.17 -7.16,299.31 -11.01,299.16 -14.84,298.67"/>
    </edge>
    <edge id=":73_2" function="internal">
        <lane id=":73_2_0" index="0" disallow="pedestrian tram rail_urban rail rail_electric rail_fast ship" speed="11.28" length="26.99" width="3.50" shape="-14.27,295.22 -10.89,295.66 -7.50,295.80 -5.30,295.70 -3.13,295.41 -1.05,294.88 0.94,294.08 1.82,293.60 2.68,293.03 3.49,292.40 4.24,291.69 4.92,290.93 5.54,290.10 6.08,289.24 7.02,287.31 7.71,285.23"/>
    </edge>
    <edge id=":73_3" function="internal">
        <lane id=":73_3_0" index="0" disallow="pedestrian tram rail_urban rail rail_electric rail_fast ship" speed="11.91" length="35.12" width="3.50" shape="-14.27,295.22 -11.72,295.73 -9.19,296.44 -6.70,297.40 -4.33,298.66 -3.17,299.45 -2.09,300.32 -1.08,301.30 -0.17,302.37 0.64,303.53 1.33,304.77 1.89,306.06 2.32,307.38 2.64,308.76 2.95,311.43 2.92,314.11 2.62,316.75 1.80,320.53"/>
    </edge>
    <edge id=":73_4" function="internal">
        <lane id=":73_4_0" index="0" disallow="pedestrian tram rail_urban rail rail_electric rail_fast ship" speed="10.90" length="29.17" width="3.50" shape="-1.59,319.64 -0.87,316.35 -0.62,314.12 -0.59,311.88 -0.84,309.65 -1.10,308.56 -1.45,307.49 -1.89,306.46 -2.43,305.48 -3.07,304.56 -3.80,303.70 -4.61,302.92 -5.48,302.22 -6.41,301.58 -8.39,300.53 -10.48,299.72 -12.64,299.11 -14.84,298.67"/>
    </edge>
    <edge id=":73_5" function="internal">
        <lane id=":73_5_0" index="0" disallow="pedestrian tram rail_urban rail rail_electric rail_fast ship" speed="36.11" length="35.64" width="3.50" shape="-1.59,319.64 3.06,302.45 7.71,285.23"/>
    </edge>
    <edge id=":74_0" function="internal">
        <lane id=":74_0_0" index="0" disallow="pedestrian tram rail_urban rail rail_electric rail_fast ship" speed="7.89" length="12.72" width="3.50" shape="-14.53,357.99 -17.55,357.52 -21.80,357.09 -27.18,356.74"/>
    </edge>
    <edge id=":74_1" function="internal">
        <lane id=":74_1_0" index="0" disallow="pedestrian tram rail_urban rail rail_electric rail_fast ship" speed="36.11" length="21.85" width="3.50" shape="-11.14,359.83 -11.11,357.25 -10.74,355.04 -9.58,349.82 -6.66,338.51"/>
    </edge>
    <edge id=":74_2" function="internal">
        <lane id=":74_2_0" index="0" disallow="pedestrian tram rail_urban rail rail_electric rail_fast ship" speed="36.11" length="20.69" width="3.44" shape="-3.28,339.42 -6.12,350.38 -7.26,355.39 -7.61,357.42 -7.65,359.59"/>
    </edge>
    <edge id=":74_3" function="internal">
        <lane id=":74_3_0" index="0" disallow="pedestrian tram rail_urban rail rail_electric rail_fast ship" speed="12.90" length="32.45" width="3.50" shape="-3.28,339.42 -4.45,343.00 -5.46,345.28 -6.68,347.45 -8.13,349.48 -9.82,351.31 -11.74,352.90 -13.85,354.22 -16.12,355.25 -18.50,356.00 -20.94,356.48 -23.42,356.74 -27.18,356.74"/>
    </edge>
    <edge id=":74_4" function="internal">
        <lane id=":74_4_0" index="0" disallow="pedestrian tram rail_urban rail rail_electric rail_fast ship" speed="11.94" length="27.67" width="3.50" shape="-27.02,353.25 -23.71,353.24 -21.58,353.03 -19.49,352.61 -17.48,351.99 -15.58,351.13 -13.82,350.03 -12.23,348.70 -10.82,347.17 -9.59,345.46 -8.55,343.61 -7.69,341.65 -6.66,338.51"/>
    </edge>
    <edge id=":74_5" function="internal">
        <lane id=":74_5_0" index="0" disallow="pedestrian tram rail_urban rail rail_electric rail_fast ship" speed="10.23" length="21.97" width="3.44" shape="-27.02,353.25 -20.87,353.68 -16.01,354.31 -12.41,355.08 -10.10,355.89 -9.03,356.49 -8.12,357.31 -7.65,359.59"/>
    </edge>
    <edge id=":75_0" function="internal">
        <lane id=":75_0_0" index="0" disallow="pedestrian tram rail_urban rail rail_electric rail_fast ship" speed="36.11" length="35.84" width="3.50" shape="20.35,251.27 15.75,268.60 11.15,285.91"/>
    </edge>
    <edge id=":75_1" function="internal">
        <lane id=":75_1_0" index="0" disallow="pedestrian tram rail_urban rail rail_electric rail_fast ship" speed="12.95" length="35.20" width="3.50" shape="20.35,251.27 19.64,253.64 18.71,255.96 17.55,258.20 16.12,260.32 14.42,262.24 12.46,263.92 10.27,265.30 7.94,266.36 5.51,267.11 3.04,267.59 0.55,267.83 -3.12,267.83 -6.73,267.49"/>
    </edge>
    <edge id=":75_2" function="internal">
        <lane id=":75_2_0" index="0" disallow="pedestrian tram rail_urban rail rail_electric rail_fast ship" speed="12.00" length="30.08" width="3.50" shape="-6.26,264.02 -3.08,264.33 0.15,264.33 2.29,264.14 4.40,263.74 6.46,263.11 8.43,262.24 10.25,261.11 11.90,259.73 13.34,258.13 14.55,256.35 15.55,254.44 16.34,252.45 16.97,250.39"/>
    </edge>
    <edge id=":75_3" function="internal">
        <lane id=":75_3_0" index="0" disallow="pedestrian tram rail_urban rail rail_electric rail_fast ship" speed="11.45" length="32.93" width="3.50" shape="-6.26,264.02 -2.45,264.71 0.11,265.40 2.63,266.32 5.04,267.54 6.23,268.31 7.34,269.17 8.38,270.15 9.32,271.24 10.13,272.44 10.80,273.72 11.33,275.06 11.70,276.45 11.93,277.85 12.03,279.24 12.02,280.65 11.72,283.32 11.15,285.91"/>
    </edge>
    <edge id=":75_4" function="internal">
        <lane id=":75_4_0" index="0" disallow="pedestrian tram rail_urban rail rail_electric rail_fast ship" speed="10.39" length="26.87" width="3.50" shape="7.77,285.02 8.25,282.83 8.48,280.60 8.48,279.48 8.39,278.36 8.20,277.26 7.89,276.18 7.46,275.15 6.92,274.17 6.27,273.25 5.52,272.42 4.69,271.66 3.79,270.99 2.84,270.40 0.83,269.41 -1.28,268.65 -3.45,268.08 -6.73,267.49"/>
    </edge>
    <edge id=":75_5" function="internal">
        <lane id=":75_5_0" index="0" disallow="pedestrian tram rail_urban rail rail_electric rail_fast ship" speed="36.11" length="35.83" width="3.50" shape="7.77,285.02 12.37,267.70 16.97,250.39"/>
    </edge>
    <edge id=":76_0" function="internal">
        <lane id=":76_0_0" index="0" disallow="pedestrian tram rail_urban rail rail_electric rail_fast ship" speed="7.85" length="12.94" width="3.50" shape="-10.66,369.07 -10.64,368.91 -11.30,368.63 -12.13,368.34 -13.09,368.09 -15.24,367.69 -18.61,367.36 -23.22,367.19"/>
    </edge>
    <edge id=":76_1" function="internal">
        <lane id=":76_1_0" index="0" disallow="pedestrian tram rail_urban rail rail_electric rail_fast ship" speed="36.11" length="5.23" width="3.27" shape="-10.66,369.07 -10.86,366.29 -10.96,363.85"/>
    </edge>
    <edge id=":76_2" function="internal">
        <lane id=":76_2_0" index="0" disallow="pedestrian tram rail_urban rail rail_electric rail_fast ship" speed="11.80" length="30.83" width="3.50" shape="-10.66,369.07 -10.48,367.57 -9.66,366.55 -8.56,365.82 -7.36,365.29 -4.82,364.59 -0.91,364.00 17.84,362.71"/>
    </edge>
    <edge id=":76_3" function="internal">
        <lane id=":76_3_0" index="0" disallow="pedestrian tram rail_urban rail rail_electric rail_fast ship" speed="6.84" length="9.96" width="3.29" shape="1.98,367.31 0.04,367.41 -3.19,367.78 -5.24,368.19 -6.15,368.46 -6.95,368.82 -7.30,369.12 -7.21,369.50"/>
    </edge>
    <edge id=":76_4" function="internal">
        <lane id=":76_4_0" index="0" disallow="pedestrian tram rail_urban rail rail_electric rail_fast ship" speed="36.11" length="25.53" width="3.50" shape="2.31,367.21 -4.08,367.31 -23.22,367.19"/>
    </edge>
    <edge id=":76_5" function="internal">
        <lane id=":76_5_0" index="0" disallow="pedestrian tram rail_urban rail rail_electric rail_fast ship" speed="8.31" length="14.59" width="3.27" shape="1.77,367.37 -0.03,367.52 -3.47,367.74 -5.89,367.69 -7.26,367.49 -8.74,366.99 -10.27,365.69 -10.96,363.85"/>
    </edge>
    <edge id=":76_6" function="internal">
        <lane id=":76_6_0" index="0" disallow="pedestrian tram rail_urban rail rail_electric rail_fast ship" speed="11.27" length="30.35" width="3.50" shape="-7.64,359.79 -7.23,364.54 -6.51,365.21 -5.53,365.45 -4.53,365.44 -2.54,365.12 0.39,364.39 3.34,363.77 17.84,362.71"/>
    </edge>
    <edge id=":76_7" function="internal">
        <lane id=":76_7_0" index="0" disallow="pedestrian tram rail_urban rail rail_electric rail_fast ship" speed="36.11" length="9.72" width="3.29" shape="-7.64,359.79 -7.37,366.13 -7.21,369.50"/>
    </edge>
    <edge id=":76_8" function="internal">
        <lane id=":76_8_0" index="0" disallow="pedestrian tram rail_urban rail rail_electric rail_fast ship" speed="9.58" length="21.60" width="3.50" shape="-7.64,359.79 -8.15,365.61 -9.52,366.95 -11.16,367.55 -12.58,367.72 -13.89,367.77 -16.34,367.68 -21.04,367.30 -23.22,367.19"/>
    </edge>
    <edge id=":76_9" function="internal">
        <lane id=":76_9_0" index="0" disallow="pedestrian tram rail_urban rail rail_electric rail_fast ship" speed="7.50" length="13.40" width="3.27" shape="-23.18,363.69 -21.08,363.94 -17.04,364.94 -15.01,365.40 -13.98,365.56 -12.94,365.61 -11.92,365.41 -11.17,364.73 -10.96,363.85"/>
    </edge>
    <edge id=":76_10" function="internal">
        <lane id=":76_10_0" index="0" disallow="pedestrian tram rail_urban rail rail_electric rail_fast ship" speed="36.11" length="41.05" width="3.50" shape="-23.18,363.69 -4.11,363.81 17.84,362.71"/>
    </edge>
    <edge id=":76_11" function="internal">
        <lane id=":76_11_0" index="0" disallow="pedestrian tram rail_urban rail rail_electric rail_fast ship" speed="9.31" length="18.55" width="3.29" shape="-23.18,363.69 -17.69,363.95 -13.64,364.49 -11.00,365.17 -9.73,365.68 -8.57,366.39 -7.66,367.39 -7.21,369.50"/>
    </edge>
    <edge id=":77_0" function="internal">
        <lane id=":77_0_0" index="0" disallow="pedestrian tram rail_urban rail rail_electric rail_fast ship" speed="12.72" length="29.19" width="3.50" shape="-79.29,376.34 -81.37,376.36 -83.44,376.62 -85.46,377.12 -87.40,377.89 -89.22,378.91 -90.90,380.14 -92.42,381.57 -93.79,383.15 -95.00,384.84 -96.58,387.54 -97.90,390.38 -99.00,393.31 -99.33,394.30"/>
    </edge>
    <edge id=":77_1" function="internal">
        <lane id=":77_1_0" index="0" disallow="pedestrian tram rail_urban rail rail_electric rail_fast ship" speed="36.11" length="37.96" width="3.50" shape="-79.29,376.34 -88.77,375.85 -102.43,374.81 -117.12,373.29"/>
    </edge>
    <edge id=":77_2" function="internal">
        <lane id=":77_2_0" index="0" disallow="pedestrian tram rail_urban rail rail_electric rail_fast ship" speed="36.11" length="37.67" width="3.50" shape="-116.71,369.81 -102.12,371.32 -88.55,372.36 -79.17,372.84"/>
    </edge>
    <edge id=":77_3" function="internal">
        <lane id=":77_3_0" index="0" disallow="pedestrian tram rail_urban rail rail_electric rail_fast ship" speed="11.67" length="36.24" width="3.50" shape="-116.70,369.81 -112.57,370.48 -109.86,371.16 -107.24,372.09 -104.74,373.33 -103.56,374.08 -102.46,374.93 -101.44,375.88 -100.53,376.93 -99.74,378.08 -99.09,379.31 -98.57,380.61 -98.19,381.95 -97.95,383.32 -97.83,384.71 -97.89,387.49 -98.28,390.25 -98.93,392.96 -99.33,394.30"/>
    </edge>
    <edge id=":77_4" function="internal">
        <lane id=":77_4_0" index="0" disallow="pedestrian tram rail_urban rail rail_electric rail_fast ship" speed="10.64" length="29.91" width="3.50" shape="-102.66,393.23 -102.32,392.10 -101.76,389.76 -101.43,387.44 -101.39,385.11 -101.50,384.02 -101.70,382.93 -102.00,381.88 -102.40,380.88 -102.91,379.94 -103.53,379.06 -104.24,378.25 -105.05,377.51 -105.93,376.84 -106.86,376.25 -108.96,375.22 -111.18,374.45 -113.49,373.87 -117.12,373.29"/>
    </edge>
    <edge id=":77_5" function="internal">
        <lane id=":77_5_0" index="0" disallow="pedestrian tram rail_urban rail rail_electric rail_fast ship" speed="13.65" length="33.74" width="3.50" shape="-102.66,393.23 -102.29,392.11 -101.06,388.86 -99.55,385.67 -97.74,382.62 -96.31,380.67 -94.70,378.86 -92.90,377.22 -90.89,375.79 -88.72,374.61 -86.40,373.73 -84.01,373.15 -81.58,372.87 -79.17,372.84"/>
    </edge>
    <edge id=":78_0" function="internal">
        <lane id=":78_0_0" index="0" disallow="pedestrian tram rail_urban rail rail_electric rail_fast ship" speed="11.80" length="29.34" width="3.50" shape="10.02,378.38 6.77,378.70 4.65,379.15 2.58,379.82 0.60,380.73 -1.22,381.90 -2.86,383.33 -4.27,384.99 -5.43,386.83 -6.35,388.79 -7.06,390.85 -7.57,392.96 -8.04,396.19 -8.12,397.27"/>
    </edge>
    <edge id=":78_1" function="internal">
        <lane id=":78_1_0" index="0" disallow="pedestrian tram rail_urban rail rail_electric rail_fast ship" speed="36.11" length="38.24" width="3.50" shape="10.02,378.38 -2.37,378.74 -15.80,378.74 -28.21,378.39"/>
    </edge>
    <edge id=":78_2" function="internal">
        <lane id=":78_2_0" index="0" disallow="pedestrian tram rail_urban rail rail_electric rail_fast ship" speed="10.89" length="26.97" width="3.35" shape="10.02,378.38 7.47,378.47 1.08,378.49 -2.74,378.28 -5.27,377.96 -6.52,377.71 -7.75,377.37 -8.93,376.87 -9.95,376.12 -10.71,369.61"/>
    </edge>
    <edge id=":78_3" function="internal">
        <lane id=":78_3_0" index="0" disallow="pedestrian tram rail_urban rail rail_electric rail_fast ship" speed="9.94" length="22.34" width="3.50" shape="-7.20,369.70 -6.82,375.14 -6.58,375.35 -5.97,375.66 -5.08,375.87 -4.08,375.99 -1.87,376.01 1.57,375.74 7.47,375.07 9.83,374.89"/>
    </edge>
    <edge id=":78_4" function="internal">
        <lane id=":78_4_0" index="0" disallow="pedestrian tram rail_urban rail rail_electric rail_fast ship" speed="36.11" length="27.60" width="3.50" shape="-7.20,369.70 -7.06,379.21 -8.12,397.27"/>
    </edge>
    <edge id=":78_5" function="internal">
        <lane id=":78_5_0" index="0" disallow="pedestrian tram rail_urban rail rail_electric rail_fast ship" speed="10.64" length="27.63" width="3.50" shape="-7.20,369.70 -7.35,375.97 -8.32,376.76 -9.46,377.27 -10.67,377.62 -11.90,377.88 -14.38,378.22 -19.40,378.51 -24.42,378.51 -26.93,378.44 -28.21,378.39"/>
    </edge>
    <edge id=":78_6" function="internal">
        <lane id=":78_6_0" index="0" disallow="pedestrian tram rail_urban rail rail_electric rail_fast ship" speed="9.88" length="23.58" width="3.35" shape="-28.07,374.90 -26.76,374.98 -24.38,375.22 -19.79,375.74 -15.30,376.09 -13.16,376.06 -12.22,375.95 -11.44,375.80 -10.82,375.63 -10.38,375.24 -10.71,369.61"/>
    </edge>
    <edge id=":78_7" function="internal">
        <lane id=":78_7_0" index="0" disallow="pedestrian tram rail_urban rail rail_electric rail_fast ship" speed="36.11" length="37.91" width="3.50" shape="-28.07,374.90 -15.75,375.24 -2.43,375.24 9.83,374.89"/>
    </edge>
    <edge id=":78_8" function="internal">
        <lane id=":78_8_0" index="0" disallow="pedestrian tram rail_urban rail rail_electric rail_fast ship" speed="12.14" length="34.59" width="3.50" shape="-28.07,374.90 -24.08,375.27 -21.47,375.79 -18.93,376.58 -16.51,377.68 -15.37,378.37 -14.29,379.15 -13.29,380.01 -12.36,380.97 -11.53,382.01 -10.79,383.11 -10.15,384.28 -9.15,386.74 -8.51,389.32 -8.15,391.96 -8.04,394.61 -8.12,397.27"/>
    </edge>
    <edge id=":78_9" function="internal">
        <lane id=":78_9_0" index="0" disallow="pedestrian tram rail_urban rail rail_electric rail_fast ship" speed="11.14" length="28.92" width="3.50" shape="-11.62,397.05 -11.54,394.73 -11.64,392.44 -11.93,390.20 -12.47,388.05 -13.30,386.00 -13.81,385.09 -14.39,384.20 -15.06,383.37 -15.80,382.61 -16.60,381.92 -17.47,381.29 -18.37,380.75 -20.39,379.82 -22.52,379.16 -24.73,378.72 -28.21,378.39"/>
    </edge>
    <edge id=":78_10" function="internal">
        <lane id=":78_10_0" index="0" disallow="pedestrian tram rail_urban rail rail_electric rail_fast ship" speed="36.11" length="27.47" width="3.35" shape="-11.62,397.05 -10.56,379.18 -10.71,369.61"/>
    </edge>
    <edge id=":78_11" function="internal">
        <lane id=":78_11_0" index="0" disallow="pedestrian tram rail_urban rail rail_electric rail_fast ship" speed="12.76" length="34.48" width="3.50" shape="-11.62,397.05 -11.51,395.78 -10.98,392.13 -10.38,389.67 -9.55,387.27 -8.45,384.94 -7.05,382.75 -5.34,380.76 -3.36,379.05 -1.15,377.64 1.20,376.56 3.64,375.78 6.14,375.26 9.83,374.89"/>
    </edge>

    <edge id="1324" from="78" to="29" priority="3" type="highway.residential" spreadType="center" length="8.08" shape="-9.60,379.60 19.38,374.47">
        <lane id="1324_0" index="0" disallow="pedestrian tram rail_urban rail rail_electric rail_fast ship" speed="36.11" length="8.08" width="3.50" customShape="1" shape="9.83,374.89 14.62,374.68 17.90,374.53"/>
    </edge>
    <edge id="1325" from="35" to="78" priority="3" type="highway.residential" spreadType="center" length="8.10" shape="19.55,377.97 -8.99,383.04">
        <lane id="1325_0" index="0" disallow="pedestrian tram rail_urban rail rail_electric rail_fast ship" speed="36.11" length="8.10" width="3.50" customShape="1" shape="18.07,378.03 14.77,378.17 9.98,378.38"/>
    </edge>
    <edge id="1327" from="77" to="78" priority="3" type="highway.residential" spreadType="center" length="51.16" shape="-99.02,378.22 -9.14,379.56">
        <lane id="1327_0" index="0" disallow="pedestrian tram rail_urban rail rail_electric rail_fast ship" speed="36.11" length="51.16" width="3.50" customShape="1" shape="-79.17,372.84 -53.60,373.87 -28.05,374.90"/>
    </edge>
    <edge id="1328" from="78" to="77" priority="3" type="highway.residential" spreadType="center" length="51.15" shape="-9.19,383.05 -99.07,381.72">
        <lane id="1328_0" index="0" disallow="pedestrian tram rail_urban rail rail_electric rail_fast ship" speed="36.11" length="51.15" width="3.50" customShape="1" shape="-28.21,378.39 -53.74,377.37 -79.32,376.34"/>
    </edge>
    <edge id="1330" from="63" to="77" priority="3" type="highway.residential" spreadType="center" length="70.00" shape="-186.08,360.68 -98.67,378.26">
        <lane id="1330_0" index="0" disallow="pedestrian tram rail_urban rail rail_electric rail_fast ship" speed="36.11" length="70.00" width="3.50" customShape="1" shape="-186.08,360.68 -185.73,360.75 -175.29,362.55 -155.78,365.16 -116.69,369.81"/>
    </edge>
    <edge id="1331" from="77" to="54" priority="3" type="highway.residential" spreadType="center" length="70.00" shape="-99.36,381.69 -186.51,364.16">
        <lane id="1331_0" index="0" disallow="pedestrian tram rail_urban rail rail_electric rail_fast ship" speed="36.11" length="70.00" width="3.50" customShape="1" shape="-117.12,373.29 -156.11,368.64 -175.62,366.04 -186.10,364.24 -186.51,364.16"/>
    </edge>
    <edge id="1452" from="59" to="60" priority="3" type="highway.residential" spreadType="center" length="68.50">
        <lane id="1452_0" index="0" disallow="pedestrian tram rail_urban rail rail_electric rail_fast ship" speed="36.11" length="68.50" width="3.50" customShape="1" shape="-107.93,359.04 -175.69,348.98"/>
    </edge>
    <edge id="1453" from="65" to="64" priority="3" type="highway.residential" spreadType="center" length="68.49">
        <lane id="1453_0" index="0" disallow="pedestrian tram rail_urban rail rail_electric rail_fast ship" speed="36.11" length="68.49" width="3.50" customShape="1" shape="-175.17,345.51 -107.42,355.58"/>
    </edge>
    <edge id="1476" from="22" to="76" priority="3" type="highway.residential" spreadType="center" length="72.47" shape="73.15,354.81 -9.02,367.65">