<routes>
	<vehicle depart="0.1" departLane="0" departPos="69.85672579077155" departSpeed="0.0" id="39" type="bicycle">
		<route edges="1476 1561"/>
	</vehicle>
	<vehicle depart="0.1" departLane="0" departPos="6.521090283449662" departSpeed="2.0198847" id="34" type="passenger">
		<route edges=":76_7 1593 1324"/>
	</vehicle>
	<vehicle depart="0.1" departLane="0" departPos="24.254016178043948" departSpeed="0.44150201" id="310" type="passenger">
		<route edges="2199 1325"/>
	</vehicle>
	<vehicle depart="0.1" departLane="0" departPos="15.759340798411005" departSpeed="4.0109874" id="314" type="passenger">
		<route edges=":78_8 1590"/>
	</vehicle>
	<vehicle depart="0.1" departLane="0" departPos="69.84273498263481" departSpeed="0.0" id="327" type="passenger">
		<route edges="1476 1561"/>
	</vehicle>
	<vehicle depart="0.1" departLane="0" departPos="28.41754992307635" departSpeed="0.62391156" id="332" type="passenger">
		<route edges=":78_7 1324 2404 1518 2198 1640"/>
	</vehicle>
	<vehicle depart="0.1" departLane="0" departPos="35.24475510150283" departSpeed="5.0163337" id="337" type="passenger">
		<route edges="1327 1597 1561"/>
	</vehicle>
	<vehicle depart="0.1" departLane="0" departPos="6.403866222265383" departSpeed="0.43789395" id="338" type="passenger">
		<route edges="1325 1590"/>
	</vehicle>
	<vehicle depart="0.1" departLane="0" departPos="62.32290805441643" departSpeed="0.0078485004" id="351" type="passenger">
		<route edges="1476 1561"/>
	</vehicle>
	<vehicle depart="0.1" departLane="0" departPos="54.866946061770484" departSpeed="0.05405245" id="358" type="passenger">
		<route edges="1476 1561"/>
	</vehicle>
</routes>
