<?xml version="1.0" encoding="UTF-8"?>

<!-- generated on Fri Dec 18 16:18:02 2020 by Eclipse SUMO netconvert Version 1.8.0
<configuration xmlns:xsi="http://www.w3.org/2001/XMLSchema-instance" xsi:noNamespaceSchemaLocation="http://sumo.dlr.de/xsd/netconvertConfiguration.xsd">

    <input>
        <node-files value="./converted_scenarios/SUMO/CHN_Sha-7_2_I-1-1/nodes.net.xml"/>
        <edge-files value="./converted_scenarios/SUMO/CHN_Sha-7_2_I-1-1/edges.net.xml"/>
        <connection-files value="./converted_scenarios/SUMO/CHN_Sha-7_2_I-1-1/_connections.net.xml"/>
        <tllogic-files value="./converted_scenarios/SUMO/CHN_Sha-7_2_I-1-1/_tll.net.xml"/>
    </input>

    <output>
        <output-file value="./converted_scenarios/SUMO/CHN_Sha-7_2_I-1-1/CHN_Sha-7_2_I-1-1.net.xml"/>
    </output>

    <processing>
        <plain.extend-edge-shape value="true"/>
        <geometry.remove.keep-edges.explicit value="true"/>
        <geometry.avoid-overlap value="true"/>
        <offset.disable-normalization value="true"/>
    </processing>

    <junctions>
        <no-turnarounds value="true"/>
        <junctions.internal-link-detail value="20"/>
    </junctions>

    <report>
        <aggregate-warnings value="5"/>
    </report>

    <random_number>
        <seed value="1234"/>
    </random_number>

</configuration>
-->

<net version="1.6" junctionCornerDetail="5" junctionLinkDetail="20" limitTurnSpeed="5.50" xmlns:xsi="http://www.w3.org/2001/XMLSchema-instance" xsi:noNamespaceSchemaLocation="http://sumo.dlr.de/xsd/net_file.xsd">

    <location netOffset="0.00,0.00" convBoundary="-37.68,-39.27,53.41,20.49" origBoundary="-38.26,-39.27,53.41,21.55" projParameter="!"/>

    <edge id=":10_0" function="internal">
        <lane id=":10_0_0" index="0" disallow="bus truck rail_fast" speed="6.24" length="6.31" width="2.50" shape="9.02,-39.66 9.03,-39.11 9.05,-38.59 9.07,-38.09 9.10,-37.62 9.14,-37.18 9.19,-36.77 9.25,-36.38 9.31,-36.02 9.39,-35.68 9.47,-35.37 9.56,-35.09 9.66,-34.84 9.76,-34.61 9.88,-34.41 10.00,-34.24 10.13,-34.09 10.27,-33.97 10.42,-33.87 10.58,-33.81"/>
    </edge>
    <edge id=":10_1" function="internal">
        <lane id=":10_1_0" index="0" disallow="bus truck rail_fast" speed="12.71" length="7.33" width="2.50" shape="9.02,-39.66 9.03,-39.12 9.05,-38.63 9.07,-38.18 9.09,-37.77 9.11,-37.39 9.14,-37.04 9.15,-36.71 9.16,-36.39 9.15,-36.09 9.14,-35.80 9.10,-35.51 9.05,-35.21 8.98,-34.90 8.88,-34.58 8.76,-34.24 8.60,-33.87 8.42,-33.48 8.20,-33.05 7.94,-32.58"/>
    </edge>
    <edge id=":12_0" function="internal">
        <lane id=":12_0_0" index="0" disallow="bus truck rail_fast" speed="8.61" length="9.45" width="2.50" shape="-25.77,-18.31 -25.26,-18.02 -24.75,-17.76 -24.25,-17.53 -23.75,-17.32 -23.25,-17.14 -22.76,-16.99 -22.28,-16.87 -21.79,-16.77 -21.32,-16.70 -20.84,-16.66 -20.37,-16.65 -19.91,-16.66 -19.45,-16.70 -18.99,-16.77 -18.54,-16.86 -18.09,-16.98 -17.65,-17.13 -17.21,-17.31 -16.78,-17.51"/>
    </edge>
    <edge id=":12_1" function="internal">
        <lane id=":12_1_0" index="0" disallow="bus truck rail_fast" speed="36.11" length="8.73" width="2.50" shape="-25.77,-18.31 -18.34,-13.68"/>
        <lane id=":12_1_1" index="1" disallow="bus truck rail_fast" speed="36.11" length="8.73" width="2.50" shape="-27.04,-16.16 -19.66,-11.56"/>
    </edge>
    <edge id=":13_0" function="internal">
        <lane id=":13_0_0" index="0" disallow="bus truck rail_fast" speed="36.11" length="8.60" width="2.50" shape="8.76,-29.38 8.15,-29.18 7.59,-29.00 7.10,-28.83 6.65,-28.69 6.23,-28.55 5.85,-28.42 5.50,-28.30 5.16,-28.19 4.84,-28.07 4.52,-27.95 4.20,-27.83 3.87,-27.69 3.53,-27.55 3.16,-27.39 2.77,-27.21 2.34,-27.01 1.86,-26.79 1.34,-26.54 0.76,-26.27"/>
    </edge>
    <edge id=":13_1" function="internal">
        <lane id=":13_1_0" index="0" disallow="bus truck rail_fast" speed="12.44" length="9.65" width="2.50" shape="7.84,-32.40 7.49,-31.79 7.17,-31.24 6.87,-30.75 6.57,-30.30 6.29,-29.91 6.02,-29.56 5.74,-29.24 5.46,-28.95 5.17,-28.69 4.87,-28.44 4.55,-28.21 4.21,-27.99 3.84,-27.78 3.43,-27.56 2.99,-27.34 2.51,-27.10 1.98,-26.85 1.40,-26.57 0.76,-26.27"/>
    </edge>
    <edge id=":14_0" function="internal">
        <lane id=":14_0_0" index="0" disallow="bus truck rail_fast" speed="36.11" length="0.10" width="2.50" shape="-12.54,-17.48 -12.54,-17.48"/>
    </edge>
    <edge id=":15_0" function="internal">
        <lane id=":15_0_0" index="0" disallow="bus truck rail_fast" speed="36.11" length="2.99" width="2.50" shape="-15.38,-18.44 -13.04,-20.30"/>
    </edge>
    <edge id=":16_0" function="internal">
        <lane id=":16_0_0" index="0" disallow="bus truck rail_fast" speed="8.81" length="7.88" width="2.50" shape="-0.27,-28.55 0.27,-28.81 0.79,-29.07 1.28,-29.34 1.74,-29.60 2.18,-29.86 2.59,-30.12 2.98,-30.38 3.34,-30.64 3.68,-30.90 3.99,-31.16 4.28,-31.42 4.54,-31.68 4.77,-31.93 4.98,-32.19 5.17,-32.44 5.33,-32.70 5.46,-32.95 5.57,-33.20 5.66,-33.45"/>
    </edge>
    <edge id=":16_1" function="internal">
        <lane id=":16_1_0" index="0" disallow="bus truck rail_fast" speed="36.11" length="8.86" width="2.50" shape="-0.27,-28.55 0.33,-28.83 0.86,-29.10 1.35,-29.34 1.79,-29.56 2.19,-29.76 2.56,-29.94 2.91,-30.11 3.24,-30.26 3.57,-30.41 3.89,-30.54 4.22,-30.67 4.56,-30.80 4.93,-30.92 5.32,-31.04 5.75,-31.16 6.22,-31.28 6.74,-31.41 7.32,-31.55 7.97,-31.69"/>
    </edge>
    <edge id=":2_0" function="internal">
        <lane id=":2_0_0" index="0" disallow="bus truck rail_fast" speed="17.08" length="7.97" width="2.50" shape="16.79,-29.95 16.20,-30.01 15.67,-30.07 15.19,-30.12 14.75,-30.17 14.34,-30.21 13.97,-30.25 13.62,-30.28 13.28,-30.29 12.96,-30.30 12.64,-30.29 12.32,-30.27 11.99,-30.24 11.65,-30.19 11.29,-30.12 10.90,-30.03 10.48,-29.92 10.02,-29.78 9.51,-29.62 8.95,-29.44"/>
    </edge>
    <edge id=":2_1" function="internal">
        <lane id=":2_1_0" index="0" disallow="bus truck rail_fast" speed="9.13" length="8.73" width="2.50" shape="16.79,-29.95 16.10,-30.02 15.43,-30.10 14.80,-30.18 14.19,-30.28 13.61,-30.38 13.07,-30.48 12.55,-30.60 12.06,-30.72 11.61,-30.85 11.18,-30.99 10.78,-31.13 10.41,-31.28 10.07,-31.44 9.76,-31.61 9.48,-31.78 9.23,-31.96 9.01,-32.15 8.82,-32.34 8.66,-32.55"/>
    </edge>
    <edge id=":3_0" function="internal">
        <lane id=":3_0_0" index="0" disallow="bus truck rail_fast" speed="36.11" length="6.35" width="2.50" shape="10.76,-33.74 11.21,-33.59 11.62,-33.46 11.99,-33.34 12.32,-33.23 12.63,-33.13 12.91,-33.05 13.18,-32.98 13.43,-32.91 13.68,-32.85 13.92,-32.80 14.17,-32.76 14.43,-32.71 14.71,-32.68 15.00,-32.64 15.32,-32.60 15.67,-32.57 16.05,-32.53 16.48,-32.49 16.95,-32.45"/>
    </edge>
    <edge id=":3_1" function="internal">
        <lane id=":3_1_0" index="0" disallow="bus truck rail_fast" speed="31.64" length="8.88" width="2.50" shape="8.16,-31.73 8.81,-31.88 9.39,-32.01 9.92,-32.13 10.40,-32.23 10.84,-32.33 11.25,-32.41 11.63,-32.48 12.00,-32.54 12.35,-32.58 12.70,-32.62 13.06,-32.64 13.42,-32.65 13.81,-32.65 14.22,-32.65 14.67,-32.63 15.16,-32.60 15.70,-32.56 16.29,-32.51 16.95,-32.45"/>
    </edge>
    <edge id=":5_0" function="internal">
        <lane id=":5_0_0" index="0" disallow="bus truck rail_fast" speed="6.48" length="10.51" width="2.50" shape="-13.51,-16.44 -13.84,-16.05 -14.12,-15.65 -14.33,-15.25 -14.49,-14.85 -14.58,-14.45 -14.62,-14.03 -14.60,-13.62 -14.52,-13.20 -14.39,-12.77 -14.19,-12.35 -13.94,-11.91 -13.62,-11.48 -13.25,-11.03 -12.82,-10.59 -12.34,-10.14 -11.79,-9.68 -11.18,-9.22 -10.52,-8.76 -9.80,-8.29"/>
    </edge>
    <edge id=":5_1" function="internal">
        <lane id=":5_1_0" index="0" disallow="rail_fast" speed="36.11" length="9.89" width="2.50" shape="-18.17,-13.57 -9.80,-8.29"/>
        <lane id=":5_1_1" index="1" disallow="rail_fast" speed="36.11" length="9.89" width="2.50" shape="-19.49,-11.45 -11.13,-6.18"/>
    </edge>
    <edge id=":7_0" function="internal">
        <lane id=":7_0_0" index="0" disallow="bus truck rail_fast" speed="10.91" length="7.32" width="2.50" shape="8.55,-32.71 8.24,-33.15 7.97,-33.55 7.72,-33.92 7.51,-34.26 7.32,-34.58 7.16,-34.88 7.03,-35.17 6.91,-35.45 6.81,-35.73 6.74,-36.02 6.67,-36.31 6.63,-36.61 6.59,-36.94 6.56,-37.28 6.55,-37.65 6.54,-38.06 6.53,-38.51 6.53,-38.99 6.52,-39.53"/>
    </edge>
    <edge id=":7_1" function="internal">
        <lane id=":7_1_0" index="0" disallow="bus truck rail_fast" speed="36.11" length="5.98" width="2.50" shape="5.71,-33.65 5.83,-34.07 5.94,-34.46 6.04,-34.81 6.13,-35.13 6.20,-35.42 6.27,-35.69 6.32,-35.95 6.37,-36.19 6.41,-36.43 6.44,-36.66 6.47,-36.90 6.49,-37.15 6.51,-37.41 6.52,-37.69 6.52,-37.99 6.53,-38.32 6.53,-38.68 6.53,-39.08 6.52,-39.53"/>
    </edge>

    <edge id="6116" from="1" to="2" priority="1" spreadType="center" length="38.58">
        <lane id="6116_0" index="0" disallow="bus truck rail_fast" speed="36.11" length="38.58" width="2.50" customShape="1" shape="52.88,-21.89 48.42,-22.90 32.23,-27.22 25.80,-28.70 20.30,-29.62 16.79,-29.95"/>
    </edge>
    <edge id="6117" from="3" to="4" priority="1" spreadType="center" length="38.97">
        <lane id="6117_0" index="0" disallow="bus truck rail_fast" speed="36.11" length="38.97" width="2.50" customShape="1" shape="16.95,-32.45 20.55,-32.11 26.17,-31.18 32.69,-29.68 48.96,-25.34 53.41,-24.33"/>
    </edge>
    <edge id="6119" from="5" to="6" priority="1" spreadType="center" length="54.38">
        <lane id="6119_0" index="0" disallow="rail_fast" speed="36.11" length="54.38" width="2.50" customShape="1" shape="-9.80,-8.29 11.43,5.00 34.49,19.43"/>
        <lane id="6119_1" index="1" disallow="rail_fast" speed="36.11" length="54.38" width="2.50" customShape="1" shape="-11.13,-6.18 10.11,7.12 33.16,21.55"/>
    </edge>
    <edge id="6120" from="7" to="8" priority="1" spreadType="center" length="0.80">
        <lane id="6120_0" index="0" disallow="bus truck rail_fast" speed="36.11" length="0.80" width="2.50" customShape="1" shape="6.52,-39.53 6.52,-39.73"/>
    </edge>
    <edge id="6121" from="9" to="10" priority="1" spreadType="center" length="0.80">
        <lane id="6121_0" index="0" disallow="bus truck rail_fast" speed="36.11" length="0.80" width="2.50" customShape="1" shape="9.02,-39.86 9.02,-39.66"/>
    </edge>
    <edge id="6123" from="11" to="12" priority="1" spreadType="center" length="14.52">
        <lane id="6123_0" index="0" disallow="bus truck rail_fast" speed="36.11" length="14.52" width="2.50" customShape="1" shape="-37.09,-24.60 -30.61,-21.15 -25.77,-18.31"/>
        <lane id="6123_1" index="1" disallow="bus truck rail_fast" speed="36.11" length="14.52" width="2.50" customShape="1" shape="-38.26,-22.39 -31.85,-18.98 -27.04,-16.16"/>
    </edge>
    <edge id="6124" from="13" to="14" priority="1" spreadType="center" length="17.56">
        <lane id="6124_0" index="0" disallow="bus truck rail_fast" speed="36.11" length="17.56" width="2.50" customShape="1" shape="0.76,-26.27 -1.92,-24.98 -5.41,-22.99 -8.30,-20.99 -12.54,-17.48"/>
    </edge>
    <edge id="6125" from="15" to="16" priority="1" spreadType="center" length="18.29">
        <lane id="6125_0" index="0" disallow="bus truck rail_fast" speed="36.11" length="18.29" width="2.50" customShape="1" shape="-13.04,-20.30 -9.79,-23.00 -6.75,-25.10 -3.11,-27.18 -0.27,-28.55"/>
    </edge>
    <edge id="6127" from="10" to="3" priority="1" spreadType="center" length="9.77">
        <lane id="6127_0" index="0" disallow="bus truck rail_fast" speed="36.11" length="9.77" width="2.50" customShape="1" shape="10.58,-33.81 10.76,-33.74"/>
    </edge>
    <edge id="6128" from="12" to="15" priority="1" spreadType="center" length="11.10">
        <lane id="6128_0" index="0" disallow="bus truck rail_fast" speed="36.11" length="11.10" width="2.50" customShape="1" shape="-16.78,-17.51 -16.43,-17.69 -15.38,-18.44"/>
    </edge>
    <edge id="6129" from="16" to="7" priority="1" spreadType="center" length="11.42">
        <lane id="6129_0" index="0" disallow="bus truck rail_fast" speed="36.11" length="11.42" width="2.50" customShape="1" shape="5.66,-33.45 5.71,-33.65"/>
    </edge>
    <edge id="6130" from="16" to="3" priority="1" spreadType="center" length="14.82">
        <lane id="6130_0" index="0" disallow="bus truck rail_fast" speed="36.11" length="14.82" width="2.50" customShape="1" shape="7.97,-31.69 8.16,-31.73"/>
    </edge>
    <edge id="6131" from="12" to="5" priority="1" spreadType="center" length="14.95">
        <lane id="6131_0" index="0" disallow="rail_fast" speed="36.11" length="14.95" width="2.50" customShape="1" shape="-18.34,-13.68 -18.17,-13.57"/>
        <lane id="6131_1" index="1" disallow="rail_fast" speed="36.11" length="14.95" width="2.50" customShape="1" shape="-19.66,-11.56 -19.49,-11.45"/>
    </edge>
    <edge id="6132" from="2" to="13" priority="1" spreadType="center" length="13.59">
        <lane id="6132_0" index="0" disallow="bus truck rail_fast" speed="36.11" length="13.59" width="2.50" customShape="1" shape="8.95,-29.44 8.76,-29.38"/>
    </edge>
    <edge id="6133" from="14" to="5" priority="1" spreadType="center" length="10.07">
        <lane id="6133_0" index="0" disallow="bus truck rail_fast" speed="36.11" length="10.07" width="2.50" customShape="1" shape="-12.54,-17.48 -13.51,-16.44"/>
    </edge>
    <edge id="6134" from="2" to="7" priority="1" spreadType="center" length="13.58">
        <lane id="6134_0" index="0" disallow="bus truck rail_fast" speed="36.11" length="13.58" width="2.50" customShape="1" shape="8.66,-32.55 8.55,-32.71"/>
    </edge>
    <edge id="6135" from="10" to="13" priority="1" spreadType="center" length="14.28">
        <lane id="6135_0" index="0" disallow="bus truck rail_fast" speed="36.11" length="14.28" width="2.50" customShape="1" shape="7.94,-32.58 7.84,-32.40"/>
    </edge>

    <junction id="1" type="dead_end" x="52.88" y="-21.89" incLanes="" intLanes="" shape="53.16,-23.11 52.60,-20.67"/>
    <junction id="10" type="priority" x="9.03" y="-38.47" incLanes="6121_0" intLanes=":10_0_0 :10_1_0" shape="10.97,-32.50 14.53,-33.93 10.27,-40.25 7.77,-40.24 6.27,-32.15 8.97,-31.91 9.44,-32.58 9.75,-32.74 10.11,-32.78 10.51,-32.70">
        <request index="0" response="00" foes="00" cont="0"/>
        <request index="1" response="00" foes="00" cont="0"/>
    </junction>
    <junction id="11" type="dead_end" x="-37.68" y="-23.49" incLanes="" intLanes="" shape="-38.85,-21.29 -36.50,-25.70"/>
    <junction id="12" type="priority" x="-24.94" y="-16.38" incLanes="6123_0 6123_1" intLanes=":12_0_0 :12_1_0 :12_1_1" shape="-19.96,-10.27 -17.34,-14.53 -17.80,-14.99 -17.86,-15.23 -17.77,-15.46 -17.54,-15.69 -17.17,-15.92 -16.33,-19.29 -19.04,-18.07 -20.48,-17.92 -21.97,-18.10 -23.53,-18.58 -25.14,-19.39 -27.68,-15.09">
        <request index="0" response="000" foes="000" cont="0"/>
        <request index="1" response="000" foes="000" cont="0"/>
        <request index="2" response="000" foes="000" cont="0"/>
    </junction>
    <junction id="13" type="priority" x="2.16" y="-26.94" incLanes="6132_0 6135_0" intLanes=":13_0_0 :13_1_0" shape="10.62,-28.45 9.65,-30.79 9.01,-30.77 8.83,-30.88 8.75,-31.07 8.77,-31.35 8.91,-31.77 7.22,-34.37 5.90,-31.72 4.86,-30.52 3.57,-29.40 2.02,-28.35 0.22,-27.39 1.30,-25.14 3.20,-26.05 4.63,-26.71 5.82,-27.19 7.05,-27.58 8.57,-27.98">
        <request index="0" response="00" foes="10" cont="0"/>
        <request index="1" response="01" foes="01" cont="0"/>
    </junction>
    <junction id="14" type="priority" x="-12.54" y="-17.48" incLanes="6124_0" intLanes=":14_0_0" shape="-13.51,-18.27 -11.68,-16.57 -13.27,-18.49 -13.36,-18.41 -13.43,-18.36">
        <request index="0" response="0" foes="0" cont="0"/>
    </junction>
    <junction id="15" type="priority" x="-14.20" y="-19.35" incLanes="6128_0" intLanes=":15_0_0" shape="-12.25,-19.34 -13.84,-21.26 -16.19,-19.39 -14.57,-17.48">
        <request index="0" response="0" foes="0" cont="0"/>
    </junction>
    <junction id="16" type="priority" x="1.11" y="-29.20" incLanes="6125_0" intLanes=":16_0_0 :16_1_0" shape="8.90,-30.62 7.93,-32.96 7.31,-32.96 7.13,-33.09 7.04,-33.30 7.03,-33.60 7.09,-33.94 5.16,-36.61 4.37,-33.95 3.53,-32.76 2.38,-31.65 0.94,-30.62 -0.81,-29.67 0.27,-27.42 3.36,-28.91 4.46,-29.39 5.59,-29.79 6.99,-30.18">
        <request index="0" response="00" foes="00" cont="0"/>
        <request index="1" response="00" foes="00" cont="0"/>
    </junction>
    <junction id="2" type="priority" x="15.25" y="-30.10" incLanes="6116_0" intLanes=":2_0_0 :2_1_0" shape="16.67,-28.71 16.91,-31.20 14.72,-31.48 12.86,-31.88 11.32,-32.41 10.10,-33.06 9.22,-33.83 8.65,-34.73 7.94,-31.62 8.34,-31.09 8.35,-30.86 8.24,-30.66 8.00,-30.48 7.63,-30.32 7.67,-27.70 10.91,-28.69 12.09,-28.90 13.29,-28.95 14.74,-28.88">
        <request index="0" response="00" foes="00" cont="0"/>
        <request index="1" response="00" foes="00" cont="0"/>
    </junction>
    <junction id="3" type="priority" x="15.39" y="-32.59" incLanes="6127_0 6130_0" intLanes=":3_0_0 :3_1_0" shape="16.83,-31.20 17.06,-33.69 15.08,-33.98 13.44,-34.44 12.14,-35.07 11.19,-35.88 10.58,-36.86 10.32,-38.01 8.83,-34.52 9.16,-33.84 9.13,-33.57 8.98,-33.35 8.71,-33.17 8.32,-33.05 8.34,-30.49 11.45,-31.18 12.55,-31.34 13.67,-31.40 15.02,-31.35">
        <request index="0" response="00" foes="10" cont="0"/>
        <request index="1" response="01" foes="01" cont="0"/>
    </junction>
    <junction id="4" type="dead_end" x="53.41" y="-24.33" incLanes="6117_0" intLanes="" shape="53.69,-25.55 53.14,-23.11"/>
    <junction id="5" type="priority" x="-12.28" y="-8.37" incLanes="6133_0 6131_0 6131_1" intLanes=":5_0_0 :5_1_0 :5_1_1" shape="-11.80,-5.12 -9.13,-9.35 -10.97,-17.33 -15.49,-15.74 -16.18,-14.85 -16.56,-14.63 -16.97,-14.56 -17.39,-14.63 -17.84,-14.84 -20.52,-10.62">
        <request index="0" response="110" foes="110" cont="0"/>
        <request index="1" response="000" foes="001" cont="0"/>
        <request index="2" response="000" foes="001" cont="0"/>
    </junction>
    <junction id="6" type="dead_end" x="33.82" y="20.49" incLanes="6119_0 6119_1" intLanes="" shape="35.15,18.37 32.50,22.61"/>
    <junction id="7" type="priority" x="6.53" y="-38.46" incLanes="6134_0 6129_0" intLanes=":7_0_0 :7_1_0" shape="7.64,-31.89 10.81,-32.56 7.77,-40.01 5.27,-39.99 3.14,-32.14 6.04,-31.77 6.54,-32.23 6.79,-32.29 7.06,-32.25 7.34,-32.11">
        <request index="0" response="10" foes="10" cont="0"/>
        <request index="1" response="00" foes="01" cont="0"/>
    </junction>
    <junction id="8" type="dead_end" x="6.53" y="-39.26" incLanes="6120_0" intLanes="" shape="5.28,-39.25 7.78,-39.26"/>
    <junction id="9" type="dead_end" x="9.03" y="-39.27" incLanes="" intLanes="" shape="7.78,-39.26 10.27,-39.28"/>

    <connection from="6116" to="6132" fromLane="0" toLane="0" contPos="-4.00" via=":2_0_0" dir="s" state="M"/>
    <connection from="6116" to="6134" fromLane="0" toLane="0" contPos="-4.00" via=":2_1_0" dir="L" state="M"/>
    <connection from="6121" to="6127" fromLane="0" toLane="0" contPos="-4.00" via=":10_0_0" dir="r" state="M"/>
    <connection from="6121" to="6135" fromLane="0" toLane="0" contPos="-4.00" via=":10_1_0" dir="s" state="M"/>
    <connection from="6123" to="6128" fromLane="0" toLane="0" contPos="-4.00" via=":12_0_0" dir="r" state="M"/>
    <connection from="6123" to="6131" fromLane="0" toLane="0" contPos="-4.00" via=":12_1_0" dir="s" state="M"/>
    <connection from="6123" to="6131" fromLane="1" toLane="1" contPos="-4.00" via=":12_1_1" dir="s" state="M"/>
    <connection from="6124" to="6133" fromLane="0" toLane="0" contPos="-4.00" via=":14_0_0" dir="r" state="M"/>
    <connection from="6125" to="6129" fromLane="0" toLane="0" contPos="-4.00" via=":16_0_0" dir="R" state="M"/>
    <connection from="6125" to="6130" fromLane="0" toLane="0" contPos="-4.00" via=":16_1_0" dir="s" state="M"/>
    <connection from="6127" to="6117" fromLane="0" toLane="0" contPos="-4.00" via=":3_0_0" dir="s" state="M"/>
    <connection from="6128" to="6125" fromLane="0" toLane="0" contPos="-4.00" via=":15_0_0" dir="s" state="M"/>
    <connection from="6129" to="6120" fromLane="0" toLane="0" contPos="-4.00" via=":7_1_0" dir="s" state="M"/>
    <connection from="6130" to="6117" fromLane="0" toLane="0" contPos="-4.00" via=":3_1_0" dir="s" state="m"/>
    <connection from="6131" to="6119" fromLane="0" toLane="0" contPos="-4.00" via=":5_1_0" dir="s" state="M"/>
    <connection from="6131" to="6119" fromLane="1" toLane="1" contPos="-4.00" via=":5_1_1" dir="s" state="M"/>
    <connection from="6132" to="6124" fromLane="0" toLane="0" contPos="-4.00" via=":13_0_0" dir="s" state="M"/>
    <connection from="6133" to="6119" fromLane="0" toLane="0" contPos="-4.00" via=":5_0_0" dir="r" state="m"/>
    <connection from="6134" to="6120" fromLane="0" toLane="0" contPos="-4.00" via=":7_0_0" dir="l" state="m"/>
    <connection from="6135" to="6124" fromLane="0" toLane="0" contPos="-4.00" via=":13_1_0" dir="s" state="m"/>

    <connection from=":10_0" to="6127" fromLane="0" toLane="0" dir="r" state="M"/>
    <connection from=":10_1" to="6135" fromLane="0" toLane="0" dir="s" state="M"/>
    <connection from=":12_0" to="6128" fromLane="0" toLane="0" dir="r" state="M"/>
    <connection from=":12_1" to="6131" fromLane="0" toLane="0" dir="s" state="M"/>
    <connection from=":12_1" to="6131" fromLane="1" toLane="1" dir="s" state="M"/>
    <connection from=":13_0" to="6124" fromLane="0" toLane="0" dir="s" state="M"/>
    <connection from=":13_1" to="6124" fromLane="0" toLane="0" dir="s" state="M"/>
    <connection from=":14_0" to="6133" fromLane="0" toLane="0" dir="r" state="M"/>
    <connection from=":15_0" to="6125" fromLane="0" toLane="0" dir="s" state="M"/>
    <connection from=":16_0" to="6129" fromLane="0" toLane="0" dir="R" state="M"/>
    <connection from=":16_1" to="6130" fromLane="0" toLane="0" dir="s" state="M"/>
    <connection from=":2_0" to="6132" fromLane="0" toLane="0" dir="s" state="M"/>
    <connection from=":2_1" to="6134" fromLane="0" toLane="0" dir="L" state="M"/>
    <connection from=":3_0" to="6117" fromLane="0" toLane="0" dir="s" state="M"/>
    <connection from=":3_1" to="6117" fromLane="0" toLane="0" dir="s" state="M"/>
    <connection from=":5_0" to="6119" fromLane="0" toLane="0" dir="r" state="M"/>
    <connection from=":5_1" to="6119" fromLane="0" toLane="0" dir="s" state="M"/>
    <connection from=":5_1" to="6119" fromLane="1" toLane="1" dir="s" state="M"/>
    <connection from=":7_0" to="6120" fromLane="0" toLane="0" dir="l" state="M"/>
    <connection from=":7_1" to="6120" fromLane="0" toLane="0" dir="s" state="M"/>

</net>
