<routes>
	<vehicle depart="0.1" departLane="0" departPos="6.449159995612646" departSpeed="5.8808" id="31" type="passenger">
		<route edges="6133 6119"/>
	</vehicle>
	<vehicle depart="0.1" departLane="1" departPos="0" departSpeed="0.0" id="311" type="passenger">
		<route edges="6123 6131 6119"/>
	</vehicle>
	<vehicle depart="0.1" departLane="0" departPos="0" departSpeed="2.9055" id="313" type="passenger">
		<route edges="6124 6133 6119"/>
	</vehicle>
	<vehicle depart="0.1" departLane="0" departPos="7.238306600660091" departSpeed="1.9728" id="315" type="passenger">
		<route edges="6132 6135 6124 6133 6119"/>
	</vehicle>
	<vehicle depart="0.1" departLane="0" departPos="38.580182305884264" departSpeed="1.6173" id="317" type="passenger">
		<route edges="6116 6134 6132 6135 6124 6133 6119"/>
	</vehicle>
	<vehicle depart="0.1" departLane="0" departPos="27.370077676444367" departSpeed="1.7929" id="318" type="passenger">
		<route edges="6116 6134 6132 6124 6133 6119"/>
	</vehicle>
	<vehicle depart="0.1" departLane="0" departPos="0" departSpeed="14.642" id="319" type="passenger">
		<route edges="6119"/>
	</vehicle>
	<vehicle depart="0.1" departLane="0" departPos="0" departSpeed="2.2018" id="320" type="passenger">
		<route edges="6116 6132 6124 6133 6119"/>
	</vehicle>
	<vehicle depart="0.1" departLane="0" departPos="0" departSpeed="10.0769" id="321" type="passenger">
		<route edges="6125 6130 6117"/>
	</vehicle>
	<vehicle depart="0.1" departLane="0" departPos="0" departSpeed="2.209" id="322" type="passenger">
		<route edges="6116 6132 6124 6133 6119"/>
	</vehicle>
	<vehicle depart="0.1" departLane="0" departPos="11.674581826350446" departSpeed="5.7361" id="323" type="passenger">
		<route edges="6123 6131 6119"/>
	</vehicle>
	<vehicle depart="0.1" departLane="0" departPos="0" departSpeed="2.6257" id="324" type="passenger">
		<route edges="6123 6128 6125 6130 6117"/>
	</vehicle>
</routes>
