<!-- generated on 2020-12-18 15:54:42.891326 by ipykernel_launcher.py v1_2_0+5214-53edc58fcd
-->
<edges>
	<edge from="1" function="normal" id="25" length="118.9319870339993" numLanes="5" priority="1" speed="36.11111111111111" spreadType="center" to="2">
		<lane allow="moped bicycle pedestrian custom1 trailer evehicle rail_urban ship private truck vip custom2 authority delivery rail_electric taxi tram army hov coach motorcycle passenger bus rail emergency" index="0" length="118.9319870339993" shape="-40.2748,22.3567 -30.97005,11.8615 -29.955849999999998,10.70845 -28.3039,8.87575 -20.91815,0.9912 -18.2678,-1.9518 -9.5149,-11.175550000000001 -0.013299999999999979,-20.8808 2.7794499999999998,-23.68325 10.382249999999999,-31.211399999999998 11.76465,-32.59795 13.261099999999999,-34.05475 21.00305,-41.41445 23.8407,-44.17855 31.340149999999998,-51.18535 34.17785,-53.94945 38.71745,-58.19545 42.2356,-61.4398 44.252700000000004,-63.3101" speed="36.11111111111111" width="3.4060645795404416"/>
		<lane allow="moped bicycle pedestrian custom1 trailer evehicle rail_urban ship private vip custom2 authority delivery rail_electric taxi tram army hov coach motorcycle passenger rail emergency" index="1" length="118.9319870339993" shape="-37.661,24.64445 -30.32835,16.37355 -28.375799999999998,14.1449 -27.7286,13.400400000000001 -25.813000000000002,11.26675 -20.391350000000003,5.45845 -18.404049999999998,3.2590500000000002 -17.791849999999997,2.55485 -15.86955,0.46564999999999995 2.4598,-18.44925 5.2425999999999995,-21.2696 10.358,-26.38425 12.826,-28.8196 13.16075,-29.1544 15.586350000000001,-31.49515 21.10805,-36.697900000000004 23.408050000000003,-38.943349999999995 23.90775,-39.44305 26.167,-41.6302 31.68065,-46.7529 33.73395,-48.7245 34.4737,-49.46425 36.4694,-51.3688 42.47355,-56.87545 44.6211,-58.866749999999996 45.377849999999995,-59.5724 46.6215,-60.7209" speed="36.11111111111111" width="3.212244685574248"/>
		<lane allow="moped bicycle pedestrian custom1 trailer evehicle rail_urban ship private truck vip custom2 authority delivery rail_electric taxi tram army hov coach motorcycle passenger bus rail emergency" index="2" length="118.9319870339993" shape="-35.1811,26.814950000000003 -33.22645,24.603 -30.60955,21.628 -27.88635,18.634 -25.25245,15.705 -23.3489,13.6516 -20.70275,10.7043 -17.962,7.78525 -15.33605,4.9 -13.2207,2.69585 -10.5411,-0.21665000000000006 -3.10295,-7.74755 -0.42335,-10.66005 7.1005,-18.22615 9.780149999999999,-21.1387 12.6186,-23.9486 15.46715,-26.732599999999998 17.476799999999997,-28.6284 20.32665,-31.378700000000002 23.40975,-34.277 26.21615,-37.00995 28.08565,-38.77475 30.9314,-41.52975 33.9189,-44.3118 36.7338,-47.017799999999994 38.988550000000004,-49.09135 41.8527,-51.824799999999996 44.716,-54.41735 47.6229,-57.08045 48.8955,-58.2353" speed="36.11111111111111" width="3.191968145204465"/>
		<lane allow="moped bicycle pedestrian custom1 trailer evehicle rail_urban ship private vip custom2 authority delivery rail_electric taxi tram army hov coach motorcycle passenger rail emergency" index="3" length="118.9319870339993" shape="-32.650850000000005,29.02955 -31.18,27.35085 -30.7117,26.8146 -28.5843,24.36725 -28.179299999999998,23.9167 -21.29875,16.5102 -20.79335,15.9465 -18.72785,13.5704 -18.287950000000002,13.0877 -10.97615,5.4092 -10.657250000000001,5.05595 -8.42065,2.4829499999999998 -8.1446,2.1782500000000002 -0.93765,-5.2366 -0.6831499999999999,-5.5150500000000005 1.5957,-8.13655 9.32995,-15.7348 9.5457,-15.9715 11.85325,-18.625999999999998 19.77565,-26.1434 19.99955,-26.3599 22.63225,-28.99005 22.8759,-29.226599999999998 30.3863,-36.2928 30.55035,-36.45095 33.244749999999996,-39.14255 33.447199999999995,-39.335499999999996 41.269549999999995,-46.623149999999995 41.28205,-46.63565 44.07185,-49.3283 44.2515,-49.4961 51.1571,-55.7633" speed="36.11111111111111" width="3.133679915051951"/>
		<lane allow="moped bicycle pedestrian custom1 trailer evehicle rail_urban ship private truck vip custom2 authority delivery rail_electric taxi tram army hov coach motorcycle passenger rail emergency" index="4" length="118.9319870339993" shape="-30.03765,31.3168 -28.56895,29.6387 -28.5509,29.61805 -25.96545,26.6438 -25.9073,26.580599999999997 -18.750100000000003,18.87875 -18.741100000000003,18.8684 -16.11035,15.84575 -16.035,15.7659 -8.4465,7.819750000000001 -8.43755,7.8094 -5.78955,4.770099999999999 -5.7215,4.69725 1.45905,-2.9094 1.46805,-2.91975 4.10865,-5.95205 4.23255,-6.0742 11.6852,-13.328299999999999 11.69415,-13.33865 14.39065,-16.42025 14.54155,-16.56345 22.41785,-23.93775 22.6141,-24.12775 25.26495,-26.77585 25.506050000000002,-27.00725 33.000750000000004,-33.99865 33.1972,-34.18845 35.850449999999995,-36.83865 36.0877,-37.06715 43.7164,-44.22275 44.0017,-44.489549999999994 46.610200000000006,-46.92205 46.9132,-47.201800000000006 53.4873,-53.21625" speed="36.11111111111111" width="3.49953037420737"/>
	</edge>
</edges>
