<!-- generated on 2020-12-18 15:54:42.960501 by ipykernel_launcher.py v1_2_0+5214-53edc58fcd
-->
<nodes>
	<node id="1" type="from" x="-35.161080000000005" y="26.83249"/>
	<node id="2" type="to" x="48.88282" y="-58.24917000000001"/>
</nodes>
