<?xml version="1.0" encoding="UTF-8"?>

<!-- generated on Fri Dec 18 15:54:43 2020 by Eclipse SUMO netconvert Version 1.8.0
<configuration xmlns:xsi="http://www.w3.org/2001/XMLSchema-instance" xsi:noNamespaceSchemaLocation="http://sumo.dlr.de/xsd/netconvertConfiguration.xsd">

    <input>
        <node-files value="./converted_scenarios/NGSIM/US101/USA_US101-5_2_I-1-1/nodes.net.xml"/>
        <edge-files value="./converted_scenarios/NGSIM/US101/USA_US101-5_2_I-1-1/edges.net.xml"/>
        <connection-files value="./converted_scenarios/NGSIM/US101/USA_US101-5_2_I-1-1/_connections.net.xml"/>
        <tllogic-files value="./converted_scenarios/NGSIM/US101/USA_US101-5_2_I-1-1/_tll.net.xml"/>
    </input>

    <output>
        <output-file value="./converted_scenarios/NGSIM/US101/USA_US101-5_2_I-1-1/USA_US101-5_2_I-1-1.net.xml"/>
    </output>

    <processing>
        <plain.extend-edge-shape value="true"/>
        <geometry.remove.keep-edges.explicit value="true"/>
        <geometry.avoid-overlap value="true"/>
        <offset.disable-normalization value="true"/>
    </processing>

    <junctions>
        <no-turnarounds value="true"/>
        <junctions.internal-link-detail value="20"/>
    </junctions>

    <report>
        <aggregate-warnings value="5"/>
    </report>

    <random_number>
        <seed value="1234"/>
    </random_number>

</configuration>
-->

<net version="1.6" junctionCornerDetail="5" junctionLinkDetail="20" limitTurnSpeed="5.50" xmlns:xsi="http://www.w3.org/2001/XMLSchema-instance" xsi:noNamespaceSchemaLocation="http://sumo.dlr.de/xsd/net_file.xsd">

    <location netOffset="0.00,0.00" convBoundary="-35.16,-58.25,48.88,26.83" origBoundary="-40.27,-63.31,53.49,31.32" projParameter="!"/>

    <edge id="25" from="1" to="2" priority="1" spreadType="center" length="118.93">
        <lane id="25_0" index="0" disallow="rail_fast" speed="36.11" length="118.93" width="3.41" customShape="1" shape="-40.27,22.36 -30.97,11.86 -29.96,10.71 -28.30,8.88 -20.92,0.99 -18.27,-1.95 -9.51,-11.18 -0.01,-20.88 2.78,-23.68 10.38,-31.21 11.76,-32.60 13.26,-34.05 21.00,-41.41 23.84,-44.18 31.34,-51.19 34.18,-53.95 38.72,-58.20 42.24,-61.44 44.25,-63.31"/>
        <lane id="25_1" index="1" disallow="bus truck rail_fast" speed="36.11" length="118.93" width="3.21" customShape="1" shape="-37.66,24.64 -30.33,16.37 -28.38,14.14 -27.73,13.40 -25.81,11.27 -20.39,5.46 -18.40,3.26 -17.79,2.55 -15.87,0.47 2.46,-18.45 5.24,-21.27 10.36,-26.38 12.83,-28.82 13.16,-29.15 15.59,-31.50 21.11,-36.70 23.41,-38.94 23.91,-39.44 26.17,-41.63 31.68,-46.75 33.73,-48.72 34.47,-49.46 36.47,-51.37 42.47,-56.88 44.62,-58.87 45.38,-59.57 46.62,-60.72"/>
        <lane id="25_2" index="2" disallow="rail_fast" speed="36.11" length="118.93" width="3.19" customShape="1" shape="-35.18,26.81 -33.23,24.60 -30.61,21.63 -27.89,18.63 -25.25,15.71 -23.35,13.65 -20.70,10.70 -17.96,7.79 -15.34,4.90 -13.22,2.70 -10.54,-0.22 -3.10,-7.75 -0.42,-10.66 7.10,-18.23 9.78,-21.14 12.62,-23.95 15.47,-26.73 17.48,-28.63 20.33,-31.38 23.41,-34.28 26.22,-37.01 28.09,-38.77 30.93,-41.53 33.92,-44.31 36.73,-47.02 38.99,-49.09 41.85,-51.82 44.72,-54.42 47.62,-57.08 48.90,-58.24"/>
        <lane id="25_3" index="3" disallow="bus truck rail_fast" speed="36.11" length="118.93" width="3.13" customShape="1" shape="-32.65,29.03 -31.18,27.35 -30.71,26.81 -28.58,24.37 -28.18,23.92 -21.30,16.51 -20.79,15.95 -18.73,13.57 -18.29,13.09 -10.98,5.41 -10.66,5.06 -8.42,2.48 -8.14,2.18 -0.94,-5.24 -0.68,-5.52 1.60,-8.14 9.33,-15.73 9.55,-15.97 11.85,-18.63 19.78,-26.14 20.00,-26.36 22.63,-28.99 22.88,-29.23 30.39,-36.29 30.55,-36.45 33.24,-39.14 33.45,-39.34 41.27,-46.62 44.07,-49.33 44.25,-49.50 51.17,-55.78"/>
        <lane id="25_4" index="4" disallow="bus rail_fast" speed="36.11" length="118.93" width="3.50" customShape="1" shape="-30.04,31.32 -28.57,29.64 -25.97,26.64 -18.75,18.88 -16.11,15.85 -16.04,15.77 -8.45,7.82 -5.79,4.77 1.46,-2.91 4.11,-5.95 4.23,-6.07 11.69,-13.33 14.39,-16.42 14.54,-16.56 22.42,-23.94 22.61,-24.13 25.26,-26.78 25.51,-27.01 33.00,-34.00 33.20,-34.19 35.85,-36.84 36.09,-37.07 43.72,-44.22 44.00,-44.49 46.61,-46.92 46.91,-47.20 53.52,-53.25"/>
    </edge>

    <junction id="1" type="dead_end" x="-35.16" y="26.83" incLanes="" intLanes="" shape="-28.72,32.47 -41.56,21.24"/>
    <junction id="2" type="dead_end" x="48.88" y="-58.25" incLanes="25_0 25_1 25_2 25_3 25_4" intLanes="" shape="43.06,-64.53 54.71,-51.96"/>

</net>
