<routes>
	<vehicle depart="0.1" departLane="3" departPos="119.30926600227727" departSpeed="7.62" id="431" type="passenger">
		<route edges="25"/>
	</vehicle>
	<vehicle depart="0.1" departLane="0" departPos="93.10766006553318" departSpeed="13.0393" id="433" type="passenger">
		<route edges="25"/>
	</vehicle>
	<vehicle depart="0.1" departLane="1" departPos="109.27891333700083" departSpeed="9.144" id="435" type="passenger">
		<route edges="25"/>
	</vehicle>
	<vehicle depart="0.1" departLane="2" departPos="114.01479299744855" departSpeed="9.1653" id="436" type="passenger">
		<route edges="25"/>
	</vehicle>
	<vehicle depart="0.1" departLane="1" departPos="85.20612893289625" departSpeed="11.6891" id="438" type="passenger">
		<route edges="25"/>
	</vehicle>
	<vehicle depart="0.1" departLane="2" departPos="86.88628046073235" departSpeed="10.668" id="439" type="passenger">
		<route edges="25"/>
	</vehicle>
	<vehicle depart="0.1" departLane="3" departPos="96.07537262719309" departSpeed="8.9581" id="440" type="passenger">
		<route edges="25"/>
	</vehicle>
	<vehicle depart="0.1" departLane="2" departPos="73.3280803040331" departSpeed="10.9606" id="443" type="passenger">
		<route edges="25"/>
	</vehicle>
	<vehicle depart="0.1" departLane="1" departPos="62.303931001201505" departSpeed="9.4854" id="445" type="passenger">
		<route edges="25"/>
	</vehicle>
	<vehicle depart="0.1" departLane="3" departPos="74.38256745662589" departSpeed="10.4303" id="446" type="passenger">
		<route edges="25"/>
	</vehicle>
	<vehicle depart="0.1" departLane="2" departPos="47.58301344436914" departSpeed="8.9032" id="447" type="passenger">
		<route edges="25"/>
	</vehicle>
	<vehicle depart="0.1" departLane="0" departPos="22.99926225844765" departSpeed="12.5608" id="449" type="passenger">
		<route edges="25"/>
	</vehicle>
	<vehicle depart="0.1" departLane="3" departPos="60.19970994930047" departSpeed="9.0129" id="450" type="passenger">
		<route edges="25"/>
	</vehicle>
	<vehicle depart="0.1" departLane="3" departPos="44.2258250497936" departSpeed="9.7963" id="456" type="passenger">
		<route edges="25"/>
	</vehicle>
	<vehicle depart="0.1" departLane="2" departPos="21.40121290566687" departSpeed="9.147" id="457" type="passenger">
		<route edges="25"/>
	</vehicle>
	<vehicle depart="0.1" departLane="1" departPos="31.205778390466712" departSpeed="8.6563" id="462" type="passenger">
		<route edges="25"/>
	</vehicle>
	<vehicle depart="0.1" departLane="1" departPos="19.88758630076095" departSpeed="9.144" id="464" type="passenger">
		<route edges="25"/>
	</vehicle>
	<vehicle depart="0.1" departLane="3" departPos="19.64984890496409" departSpeed="7.62" id="472" type="passenger">
		<route edges="25"/>
	</vehicle>
	<vehicle depart="0.1" departLane="1" departPos="0" departSpeed="9.144" id="476" type="passenger">
		<route edges="25"/>
	</vehicle>
	<vehicle depart="0.1" departLane="3" departPos="4.828259959585927" departSpeed="7.62" id="477" type="passenger">
		<route edges="25"/>
	</vehicle>
	<vehicle depart="0.1" departLane="4" departPos="118.9319870339993" departSpeed="4.4592" id="494" type="passenger">
		<route edges="25"/>
	</vehicle>
	<vehicle depart="0.1" departLane="4" departPos="101.38208728899323" departSpeed="3.81" id="507" type="passenger">
		<route edges="25"/>
	</vehicle>
	<vehicle depart="0.1" departLane="4" departPos="80.37973215752594" departSpeed="6.5898" id="523" type="passenger">
		<route edges="25"/>
	</vehicle>
	<vehicle depart="0.1" departLane="4" departPos="62.15550266265412" departSpeed="9.1044" id="527" type="passenger">
		<route edges="25"/>
	</vehicle>
	<vehicle depart="0.1" departLane="4" departPos="9.414120530679389" departSpeed="7.62" id="554" type="passenger">
		<route edges="25"/>
	</vehicle>
</routes>
