<routes>
	<vehicle depart="0.1" departLane="0" departPos="4.63300731668525" departSpeed="0.95805397" id="36" type="bicycle">
		<route edges=":43_4 38565"/>
	</vehicle>
	<vehicle depart="0.1" departLane="0" departPos="53.488564255952106" departSpeed="0.53970325" id="38" type="bicycle">
		<route edges="38564 38561"/>
	</vehicle>
	<vehicle depart="0.1" departLane="0" departPos="61.30835654998608" departSpeed="3.6427543" id="343" type="bicycle">
		<route edges="38562 38565"/>
	</vehicle>
	<vehicle depart="0.1" departLane="0" departPos="13.122077430864572" departSpeed="10.120297" id="37" type="passenger">
		<route edges=":43_4 38565"/>
	</vehicle>
	<vehicle depart="0.1" departLane="0" departPos="51.8930957732599" departSpeed="0.39952127" id="310" type="passenger">
		<route edges="38564 38561"/>
	</vehicle>
	<vehicle depart="0.1" departLane="0" departPos="21.288125774073063" departSpeed="0.0" id="319" type="passenger">
		<route edges=":42_0 38161"/>
	</vehicle>
	<vehicle depart="0.1" departLane="0" departPos="60.859330889017215" departSpeed="0.46037276" id="323" type="passenger">
		<route edges="38564 38561"/>
	</vehicle>
	<vehicle depart="0.1" departLane="0" departPos="39.26328570436675" departSpeed="4.6837179" id="334" type="passenger">
		<route edges="38562 38565"/>
	</vehicle>
	<vehicle depart="0.1" departLane="0" departPos="6.697853680243322" departSpeed="2.8544617" id="339" type="passenger">
		<route edges="38562 38565"/>
	</vehicle>
	<vehicle depart="0.1" departLane="0" departPos="7.786737120647712" departSpeed="0.86276681" id="30" type="truck">
		<route edges=":43_2 38163"/>
	</vehicle>
</routes>
