<!-- generated on Tue Feb  9 22:01:25 2021 by Eclipse SUMO netconvert Version 1.8.0
<configuration xmlns:xsi="http://www.w3.org/2001/XMLSchema-instance" xsi:noNamespaceSchemaLocation="http://sumo.dlr.de/xsd/netconvertConfiguration.xsd">

    <input>
        <node-files value="./converted_scenarios/scenario-factory/BEL_Zwevegem-1_3_I-1-1/BEL_Zwevegem-1_3_I-1-1.nod.xml"/>
        <edge-files value="./converted_scenarios/scenario-factory/BEL_Zwevegem-1_3_I-1-1/BEL_Zwevegem-1_3_I-1-1.edg.xml"/>
        <connection-files value="./converted_scenarios/scenario-factory/BEL_Zwevegem-1_3_I-1-1/BEL_Zwevegem-1_3_I-1-1.con.xml"/>
        <tllogic-files value="./converted_scenarios/scenario-factory/BEL_Zwevegem-1_3_I-1-1/BEL_Zwevegem-1_3_I-1-1.tll.xml"/>
        <type-files value="/home/zen/commonroad-interactive-benchmarks/install/commonroad-map-tool/crmapconverter/sumo_map/templates/DEU.typ.xml"/>
    </input>

    <output>
        <output-file value="./converted_scenarios/scenario-factory/BEL_Zwevegem-1_3_I-1-1/BEL_Zwevegem-1_3_I-1-1.net.xml"/>
    </output>

    <processing>
        <geometry.remove.keep-edges.explicit value="true"/>
        <geometry.avoid-overlap value="true"/>
        <offset.disable-normalization value="true"/>
    </processing>

    <junctions>
        <no-turnarounds value="true"/>
        <junctions.internal-link-detail value="20"/>
    </junctions>

    <report>
        <aggregate-warnings value="5"/>
    </report>

    <random_number>
        <seed value="1234"/>
    </random_number>

</configuration>
--><net xmlns:xsi="http://www.w3.org/2001/XMLSchema-instance" version="1.6" junctionCornerDetail="5" junctionLinkDetail="20" limitTurnSpeed="5.50" xsi:noNamespaceSchemaLocation="http://sumo.dlr.de/xsd/net_file.xsd">

    <location netOffset="0.00,0.00" convBoundary="-681.27,-660.44,-533.83,-393.26" origBoundary="-681.27,-660.44,-533.83,-393.26" projParameter="!"/>

    <type id="highway.bridleway" priority="1" speed="2.78" allow="pedestrian" oneway="1" width="2.00"/>
    <type id="highway.bus_guideway" priority="1" speed="27.78" allow="bus" oneway="1"/>
    <type id="highway.cycleway" priority="1" speed="8.33" allow="bicycle" oneway="0" width="1.00"/>
    <type id="highway.footway" priority="1" speed="2.78" allow="pedestrian" oneway="1" width="2.00"/>
    <type id="highway.ford" priority="1" speed="2.78" allow="army" oneway="0"/>
    <type id="highway.living_street" priority="2" speed="2.78" disallow="tram rail_urban rail rail_electric rail_fast ship" oneway="0"/>
    <type id="highway.motorway" priority="14" speed="39.44" allow="private emergency authority army vip passenger hov taxi bus coach delivery truck trailer motorcycle evehicle custom1 custom2" oneway="1"/>
    <type id="highway.motorway_link" priority="9" speed="22.22" allow="private emergency authority army vip passenger hov taxi bus coach delivery truck trailer motorcycle evehicle custom1 custom2" oneway="1"/>
    <type id="highway.path" priority="1" speed="2.78" allow="pedestrian bicycle" oneway="0" width="2.00"/>
    <type id="highway.pedestrian" priority="1" speed="2.78" allow="pedestrian" oneway="1" width="2.00"/>
    <type id="highway.primary" priority="12" speed="27.78" disallow="pedestrian tram rail_urban rail rail_electric rail_fast ship" oneway="0"/>
    <type id="highway.primary_link" priority="7" speed="22.22" disallow="pedestrian tram rail_urban rail rail_electric rail_fast ship" oneway="0"/>
    <type id="highway.raceway" priority="15" speed="83.33" allow="vip" oneway="0"/>
    <type id="highway.residential" priority="3" speed="13.89" disallow="pedestrian tram rail_urban rail rail_electric rail_fast ship" oneway="0"/>
    <type id="highway.secondary" priority="11" speed="27.78" disallow="pedestrian tram rail_urban rail rail_electric rail_fast ship" oneway="0"/>
    <type id="highway.secondary_link" priority="6" speed="22.22" disallow="pedestrian tram rail_urban rail rail_electric rail_fast ship" oneway="0"/>
    <type id="highway.service" priority="1" speed="5.56" allow="pedestrian delivery bicycle" oneway="0"/>
    <type id="highway.stairs" priority="1" speed="1.39" allow="pedestrian" oneway="1" width="2.00"/>
    <type id="highway.step" priority="1" speed="1.39" allow="pedestrian" oneway="1" width="2.00"/>
    <type id="highway.steps" priority="1" speed="1.39" allow="pedestrian" oneway="1" width="2.00"/>
    <type id="highway.tertiary" priority="10" speed="22.22" disallow="pedestrian tram rail_urban rail rail_electric rail_fast ship" oneway="0"/>
    <type id="highway.tertiary_link" priority="5" speed="22.22" disallow="pedestrian tram rail_urban rail rail_electric rail_fast ship" oneway="0"/>
    <type id="highway.track" priority="1" speed="5.56" allow="pedestrian motorcycle moped bicycle" oneway="0"/>
    <type id="highway.trunk" priority="13" speed="27.78" disallow="pedestrian bicycle tram rail_urban rail rail_electric rail_fast ship" oneway="0"/>
    <type id="highway.trunk_link" priority="8" speed="22.22" disallow="pedestrian bicycle tram rail_urban rail rail_electric rail_fast ship" oneway="0"/>
    <type id="highway.unclassified" priority="4" speed="13.89" disallow="pedestrian tram rail_urban rail rail_electric rail_fast ship" oneway="0"/>
    <type id="highway.unsurfaced" priority="1" speed="8.33" disallow="tram rail_urban rail rail_electric rail_fast ship" oneway="0"/>
    <type id="railway.highspeed" priority="21" speed="69.44" allow="rail_fast" oneway="1"/>
    <type id="railway.light_rail" priority="19" speed="27.78" allow="rail_urban" oneway="1"/>
    <type id="railway.preserved" priority="16" speed="27.78" allow="rail" oneway="1"/>
    <type id="railway.rail" priority="20" speed="44.44" allow="rail" oneway="1"/>
    <type id="railway.subway" priority="18" speed="27.78" allow="rail_urban" oneway="1"/>
    <type id="railway.tram" priority="17" speed="13.89" allow="tram" oneway="1"/>

    <edge id=":41_0" function="internal">
        <lane id=":41_0_0" index="0" disallow="pedestrian tram rail_urban rail rail_electric rail_fast ship" speed="36.11" length="27.16" width="3.48" shape="-599.50,-551.22 -611.78,-545.37 -624.02,-539.55"/>
    </edge>
    <edge id=":41_1" function="internal">
        <lane id=":41_1_0" index="0" disallow="pedestrian tram rail_urban rail rail_electric rail_fast ship" speed="10.48" length="27.46" width="3.50" shape="-599.50,-551.22 -603.31,-549.64 -607.21,-548.31 -609.87,-547.64 -612.59,-547.22 -613.96,-547.14 -615.33,-547.17 -616.70,-547.33 -618.03,-547.67 -619.29,-548.20 -620.45,-548.94 -621.45,-549.88 -622.26,-550.98 -622.89,-552.20 -623.36,-553.49"/>
    </edge>
    <edge id=":41_2" function="internal">
        <lane id=":41_2_0" index="0" disallow="pedestrian tram rail_urban rail rail_electric rail_fast ship" speed="9.37" length="21.48" width="3.50" shape="-620.01,-554.51 -619.69,-553.61 -619.26,-552.81 -618.70,-552.13 -618.01,-551.57 -617.19,-551.16 -616.27,-550.88 -615.27,-550.72 -614.23,-550.67 -613.15,-550.71 -612.06,-550.82 -609.80,-551.25 -607.57,-551.86 -604.22,-553.03 -600.92,-554.42"/>
    </edge>
    <edge id=":41_3" function="internal">
        <lane id=":41_3_0" index="0" disallow="pedestrian tram rail_urban rail rail_electric rail_fast ship" speed="9.35" length="16.99" width="3.48" shape="-620.01,-554.51 -619.66,-553.21 -619.16,-550.69 -619.02,-549.34 -618.99,-547.97 -619.10,-546.57 -619.38,-545.16 -619.88,-543.77 -620.62,-542.45 -621.59,-541.27 -622.76,-540.30 -624.02,-539.55"/>
    </edge>
    <edge id=":41_4" function="internal">
        <lane id=":41_4_0" index="0" disallow="pedestrian tram rail_urban rail rail_electric rail_fast ship" speed="7.71" length="11.19" width="3.50" shape="-624.76,-543.08 -624.71,-543.20 -623.96,-543.87 -623.36,-544.67 -622.93,-545.58 -622.66,-546.55 -622.52,-547.54 -622.49,-548.55 -622.55,-549.55 -622.68,-550.55 -623.09,-552.52 -623.36,-553.49"/>
    </edge>
    <edge id=":41_5" function="internal">
        <lane id=":41_5_0" index="0" disallow="pedestrian tram rail_urban rail rail_electric rail_fast ship" speed="36.11" length="26.40" width="3.50" shape="-624.76,-543.08 -613.27,-548.54 -600.92,-554.42"/>
    </edge>
    <edge id=":42_0" function="internal">
        <lane id=":42_0_0" index="0" disallow="pedestrian tram rail_urban rail rail_electric rail_fast ship" speed="36.11" length="21.21" width="3.50" shape="-625.92,-525.31 -629.18,-532.06 -635.31,-544.33"/>
    </edge>
    <edge id=":42_1" function="internal">
        <lane id=":42_1_0" index="0" disallow="pedestrian tram rail_urban rail rail_electric rail_fast ship" speed="9.43" length="20.01" width="3.50" shape="-625.92,-525.31 -627.40,-528.65 -628.24,-530.98 -628.88,-533.39 -629.10,-534.69 -629.21,-536.03 -629.14,-537.43 -628.84,-538.86 -628.22,-540.26 -627.23,-541.54 -624.94,-542.99"/>
    </edge>
    <edge id=":42_2" function="internal">
        <lane id=":42_2_0" index="0" disallow="pedestrian tram rail_urban rail rail_electric rail_fast ship" speed="7.90" length="13.68" width="3.50" shape="-624.29,-539.42 -625.07,-538.83 -625.56,-538.00 -625.78,-537.05 -625.81,-536.07 -625.71,-535.10 -625.53,-534.13 -625.29,-533.19 -624.69,-531.33 -623.98,-529.50 -622.77,-526.83"/>
    </edge>
    <edge id=":42_3" function="internal">
        <lane id=":42_3_0" index="0" disallow="pedestrian tram rail_urban rail rail_electric rail_fast ship" speed="8.08" length="13.70" width="3.50" shape="-624.29,-539.42 -625.77,-538.84 -627.33,-538.52 -628.92,-538.56 -630.45,-539.01 -631.81,-539.82 -632.99,-540.90 -633.99,-542.14 -635.31,-544.33"/>
    </edge>
    <edge id=":42_4" function="internal">
        <lane id=":42_4_0" index="0" disallow="pedestrian tram rail_urban rail rail_electric rail_fast ship" speed="6.84" length="9.37" width="3.50" shape="-632.29,-546.07 -631.21,-544.28 -630.57,-543.47 -629.87,-542.80 -629.13,-542.34 -628.37,-542.09 -627.57,-542.05 -626.70,-542.22 -624.94,-542.99"/>
    </edge>
    <edge id=":42_5" function="internal">
        <lane id=":42_5_0" index="0" disallow="pedestrian tram rail_urban rail rail_electric rail_fast ship" speed="36.11" length="21.47" width="3.50" shape="-632.29,-546.07 -626.05,-533.62 -622.77,-526.83"/>
    </edge>
    <edge id=":43_0" function="internal">
        <lane id=":43_0_0" index="0" disallow="pedestrian tram rail_urban rail rail_electric rail_fast ship" speed="10.04" length="22.57" width="3.50" shape="-646.03,-570.24 -647.02,-570.51 -647.99,-570.65 -648.96,-570.67 -649.91,-570.55 -650.83,-570.29 -651.73,-569.90 -652.58,-569.39 -653.40,-568.78 -654.16,-568.09 -655.60,-566.43 -656.85,-564.59 -657.96,-562.62 -659.42,-559.46 -660.66,-556.19"/>
    </edge>
    <edge id=":43_1" function="internal">
        <lane id=":43_1_0" index="0" disallow="pedestrian tram rail_urban rail rail_electric rail_fast ship" speed="10.97" length="27.74" width="3.50" shape="-646.03,-570.24 -647.30,-570.72 -648.49,-571.29 -649.60,-572.00 -650.61,-572.85 -651.50,-573.82 -652.26,-574.90 -652.86,-576.07 -653.32,-577.31 -653.64,-578.59 -653.85,-579.89 -653.96,-582.52 -653.77,-585.15 -653.08,-589.05 -652.04,-592.87 -651.64,-594.13"/>
    </edge>
    <edge id=":43_2" function="internal">
        <lane id=":43_2_0" index="0" disallow="pedestrian tram rail_urban rail rail_electric rail_fast ship" speed="9.84" length="22.14" width="3.50" shape="-648.32,-593.02 -648.67,-591.94 -649.59,-588.61 -650.22,-585.27 -650.42,-583.08 -650.39,-580.90 -650.27,-579.89 -650.06,-578.89 -649.76,-577.94 -649.37,-577.06 -648.87,-576.26 -648.28,-575.55 -647.59,-574.92 -646.81,-574.39 -645.94,-573.94 -644.96,-573.57"/>
    </edge>
    <edge id=":43_3" function="internal">
        <lane id=":43_3_0" index="0" disallow="pedestrian tram rail_urban rail rail_electric rail_fast ship" speed="36.11" length="38.84" width="3.50" shape="-648.32,-593.02 -654.48,-574.62 -660.66,-556.19"/>
    </edge>
    <edge id=":43_4" function="internal">
        <lane id=":43_4_0" index="0" disallow="pedestrian tram rail_urban rail rail_electric rail_fast ship" speed="36.11" length="38.82" width="3.50" shape="-663.97,-557.32 -657.80,-575.73 -651.64,-594.13"/>
    </edge>
    <edge id=":43_5" function="internal">
        <lane id=":43_5_0" index="0" disallow="pedestrian tram rail_urban rail rail_electric rail_fast ship" speed="11.15" length="28.04" width="3.50" shape="-663.97,-557.32 -662.53,-561.08 -660.82,-564.70 -659.48,-567.00 -657.93,-569.16 -656.11,-571.11 -655.09,-571.97 -653.98,-572.71 -652.80,-573.33 -651.55,-573.79 -650.25,-574.08 -648.93,-574.20 -647.60,-574.14 -646.28,-573.93 -644.96,-573.57"/>
    </edge>
    <edge id=":44_0" function="internal">
        <lane id=":44_0_0" index="0" disallow="pedestrian tram rail_urban rail rail_electric rail_fast ship" speed="19.89" length="33.97" width="3.50" shape="-635.41,-544.50 -635.88,-545.63 -636.87,-548.68 -637.71,-552.86 -638.69,-559.18 -639.37,-562.30 -640.04,-564.33 -640.96,-566.25 -641.55,-567.14 -642.24,-567.95 -643.02,-568.68 -643.89,-569.29 -644.83,-569.79 -650.61,-571.73"/>
    </edge>
    <edge id=":44_1" function="internal">
        <lane id=":44_1_0" index="0" disallow="pedestrian tram rail_urban rail rail_electric rail_fast ship" speed="7.21" length="22.67" width="3.50" shape="-635.41,-544.50 -635.22,-544.30 -635.35,-544.92 -635.29,-546.20 -634.90,-547.42 -633.97,-549.10 -632.79,-550.61 -630.97,-552.42 -628.94,-553.99 -626.74,-555.30 -624.97,-556.06 -623.74,-556.39 -622.46,-556.50 -621.83,-556.41 -621.23,-556.19 -620.71,-555.82 -620.32,-555.31 -620.08,-554.73"/>
    </edge>
    <edge id=":44_2" function="internal">
        <lane id=":44_2_0" index="0" disallow="pedestrian tram rail_urban rail rail_electric rail_fast ship" speed="16.14" length="33.82" width="3.50" shape="-623.44,-553.76 -624.10,-555.54 -625.03,-557.26 -626.18,-558.87 -627.52,-560.36 -629.00,-561.72 -631.47,-563.60 -634.12,-565.24 -636.91,-566.69 -640.80,-568.39 -650.61,-571.73"/>
    </edge>
    <edge id=":44_3" function="internal">
        <lane id=":44_3_0" index="0" disallow="pedestrian tram rail_urban rail rail_electric rail_fast ship" speed="17.05" length="37.23" width="3.50" shape="-649.54,-575.05 -639.34,-571.57 -635.13,-569.71 -632.08,-568.09 -629.16,-566.25 -626.43,-564.13 -624.77,-562.54 -623.26,-560.80 -621.95,-558.91 -620.87,-556.88 -620.08,-554.73"/>
    </edge>
    <edge id=":44_4" function="internal">
        <lane id=":44_4_0" index="0" disallow="pedestrian tram rail_urban rail rail_electric rail_fast ship" speed="21.05" length="37.38" width="3.50" shape="-649.54,-575.05 -643.54,-573.04 -642.38,-572.43 -641.29,-571.68 -640.30,-570.80 -639.44,-569.82 -638.68,-568.74 -637.56,-566.57 -636.73,-564.29 -635.89,-560.93 -634.70,-554.37 -633.78,-550.17 -632.78,-547.22 -631.88,-545.37"/>
    </edge>
    <edge id=":45_0" function="internal">
        <lane id=":45_0_0" index="0" disallow="pedestrian tram rail_urban rail rail_electric rail_fast ship" speed="36.11" length="38.83" width="3.50" shape="-591.48,-453.85 -599.91,-471.34 -608.34,-488.83"/>
    </edge>
    <edge id=":45_1" function="internal">
        <lane id=":45_1_0" index="0" disallow="pedestrian tram rail_urban rail rail_electric rail_fast ship" speed="36.11" length="38.81" width="3.50" shape="-605.19,-490.35 -596.76,-472.85 -588.34,-455.39"/>
    </edge>
    <edge id=":45_2" function="internal">
        <lane id=":45_2_0" index="0" disallow="pedestrian tram rail_urban rail rail_electric rail_fast ship" speed="11.94" length="35.02" width="3.50" shape="-605.19,-490.35 -603.61,-486.60 -602.84,-484.03 -602.34,-481.39 -602.21,-480.05 -602.19,-478.70 -602.28,-477.36 -602.49,-476.03 -602.81,-474.73 -603.27,-473.47 -603.84,-472.25 -604.53,-471.10 -605.33,-470.01 -606.21,-469.00 -608.19,-467.19 -610.39,-465.64 -612.74,-464.33 -616.47,-462.71"/>
    </edge>
    <edge id=":45_3" function="internal">
        <lane id=":45_3_0" index="0" disallow="pedestrian tram rail_urban rail rail_electric rail_fast ship" speed="10.92" length="29.08" width="3.50" shape="-617.70,-465.98 -614.46,-467.40 -612.46,-468.51 -610.62,-469.80 -608.96,-471.31 -608.27,-472.11 -607.64,-472.97 -607.09,-473.88 -606.63,-474.84 -606.28,-475.83 -606.01,-476.86 -605.85,-477.92 -605.78,-478.99 -605.80,-480.09 -605.89,-481.16 -606.31,-483.40 -606.97,-485.57 -608.34,-488.83"/>
    </edge>

    <edge id="38083" from="45" to="36" priority="3" type="highway.residential" spreadType="center" length="67.28" shape="-603.09,-470.42 -559.13,-394.78">
        <lane id="38083_0" index="0" disallow="pedestrian tram rail_urban rail rail_electric rail_fast ship" speed="36.11" length="67.28" width="3.50" customShape="1" shape="-588.34,-455.39 -573.73,-425.09 -559.13,-394.78"/>
    </edge>
    <edge id="38084" from="40" to="45" priority="3" type="highway.residential" spreadType="center" length="67.28" shape="-562.28,-393.26 -606.11,-468.67">
        <lane id="38084_0" index="0" disallow="pedestrian tram rail_urban rail rail_electric rail_fast ship" speed="36.11" length="67.28" width="3.50" customShape="1" shape="-562.28,-393.26 -576.89,-423.57 -591.49,-453.87"/>
    </edge>
    <edge id="38086" from="42" to="45" priority="3" type="highway.residential" spreadType="center" length="40.53" shape="-625.93,-537.71 -602.92,-470.04">
        <lane id="38086_0" index="0" disallow="pedestrian tram rail_urban rail rail_electric rail_fast ship" speed="36.11" length="40.53" width="3.50" customShape="1" shape="-622.77,-526.83 -613.97,-508.58 -605.18,-490.32"/>
    </edge>
    <edge id="38087" from="45" to="42" priority="3" type="highway.residential" spreadType="center" length="40.52" shape="-606.23,-468.91 -629.24,-536.58">
        <lane id="38087_0" index="0" disallow="pedestrian tram rail_urban rail rail_electric rail_fast ship" speed="36.11" length="40.52" width="3.50" customShape="1" shape="-608.34,-488.83 -617.12,-507.06 -625.93,-525.33"/>
    </edge>
    <edge id="38133" from="42" to="41" priority="3" type="highway.residential" spreadType="center" length="0.20" shape="-628.95,-538.24 -616.81,-550.54">
        <lane id="38133_0" index="0" disallow="pedestrian tram rail_urban rail rail_electric rail_fast ship" speed="36.11" length="0.20" width="3.50" customShape="1" shape="-624.94,-542.99 -624.76,-543.08"/>
    </edge>
    <edge id="38134" from="41" to="42" priority="3" type="highway.residential" spreadType="center" length="0.30" shape="-614.33,-548.09 -626.48,-535.81">
        <lane id="38134_0" index="0" disallow="pedestrian tram rail_urban rail rail_electric rail_fast ship" speed="36.11" length="0.30" width="3.48" customShape="1" shape="-624.02,-539.55 -624.18,-539.47 -624.29,-539.42"/>
    </edge>
    <edge id="38160" from="44" to="42" priority="3" type="highway.residential" spreadType="center" length="0.20" shape="-631.86,-557.50 -625.91,-537.65">
        <lane id="38160_0" index="0" disallow="pedestrian tram rail_urban rail rail_electric rail_fast ship" speed="36.11" length="0.20" width="3.50" customShape="1" shape="-632.39,-546.24 -632.29,-546.07"/>
    </edge>
    <edge id="38161" from="42" to="44" priority="3" type="highway.residential" spreadType="center" length="0.20" shape="-629.26,-536.65 -635.19,-556.50">
        <lane id="38161_0" index="0" disallow="pedestrian tram rail_urban rail rail_electric rail_fast ship" speed="36.11" length="0.20" width="3.50" customShape="1" shape="-635.31,-544.33 -635.41,-544.50"/>
    </edge>
    <edge id="38163" from="43" to="44" priority="3" type="highway.residential" spreadType="center" length="0.20" shape="-651.42,-575.38 -632.23,-558.08">
        <lane id="38163_0" index="0" disallow="pedestrian tram rail_urban rail rail_electric rail_fast ship" speed="36.11" length="0.20" width="3.50" customShape="1" shape="-649.73,-575.11 -649.54,-575.05"/>
    </edge>
    <edge id="38164" from="44" to="43" priority="3" type="highway.residential" spreadType="center" length="0.20" shape="-634.56,-555.48 -653.77,-572.78">
        <lane id="38164_0" index="0" disallow="pedestrian tram rail_urban rail rail_electric rail_fast ship" speed="36.11" length="0.20" width="3.50" customShape="1" shape="-650.61,-571.73 -650.80,-571.80"/>
    </edge>
    <edge id="38196" from="33" to="41" priority="3" type="highway.residential" spreadType="center" length="70.08" shape="-533.83,-543.55 -615.69,-547.57">
        <lane id="38196_0" index="0" disallow="pedestrian tram rail_urban rail rail_electric rail_fast ship" speed="36.11" length="70.08" width="3.50" customShape="1" shape="-533.83,-543.55 -541.18,-548.16 -545.06,-550.43 -548.64,-552.19 -552.82,-553.81 -558.55,-555.54 -564.83,-557.12 -568.75,-557.86 -572.22,-558.22 -575.71,-558.25 -579.18,-557.90 -582.60,-557.21 -587.39,-555.83 -593.52,-553.71 -599.58,-551.19"/>
    </edge>
    <edge id="38197" from="41" to="21" priority="3" type="highway.residential" spreadType="center" length="70.00" shape="-615.54,-551.06 -534.86,-548.33">
        <lane id="38197_0" index="0" disallow="pedestrian tram rail_urban rail rail_electric rail_fast ship" speed="36.11" length="70.00" width="3.50" customShape="1" shape="-600.92,-554.42 -594.79,-556.98 -588.49,-559.15 -583.54,-560.58 -579.93,-561.32 -576.25,-561.72 -572.55,-561.74 -568.87,-561.41 -564.76,-560.68 -558.31,-559.10 -552.40,-557.36 -548.02,-555.73 -544.24,-553.95 -540.20,-551.65 -534.86,-548.33"/>
    </edge>
    <edge id="38268" from="44" to="41" priority="3" type="highway.residential" spreadType="center" length="0.32" shape="-632.95,-558.52 -614.89,-550.92">
        <lane id="38268_0" index="0" disallow="pedestrian tram rail_urban rail rail_electric rail_fast ship" speed="36.11" length="0.32" width="3.50" customShape="1" shape="-620.08,-554.73 -619.99,-554.42"/>
    </edge>
    <edge id="38269" from="41" to="44" priority="3" type="highway.residential" spreadType="center" length="0.28" shape="-616.24,-547.70 -634.30,-555.31">
        <lane id="38269_0" index="0" disallow="pedestrian tram rail_urban rail rail_electric rail_fast ship" speed="36.11" length="0.28" width="3.50" customShape="1" shape="-623.36,-553.49 -623.43,-553.76"/>
    </edge>
    <edge id="38333" from="45" to="35" priority="3" type="highway.residential" spreadType="center" length="17.51" shape="-603.85,-467.92 -632.85,-456.53">
        <lane id="38333_0" index="0" disallow="pedestrian tram rail_urban rail rail_electric rail_fast ship" speed="36.11" length="17.51" width="3.50" customShape="1" shape="-616.47,-462.71 -624.65,-459.62 -632.85,-456.53"/>
    </edge>
    <edge id="38334" from="39" to="45" priority="3" type="highway.residential" spreadType="center" length="17.52" shape="-634.09,-459.80 -605.13,-471.18">
        <lane id="38334_0" index="0" disallow="pedestrian tram rail_urban rail rail_electric rail_fast ship" speed="36.11" length="17.52" width="3.50" customShape="1" shape="-634.09,-459.80 -625.88,-462.90 -617.70,-465.98"/>
    </edge>
    <edge id="38561" from="43" to="27" priority="3" type="highway.residential" spreadType="center" length="70.00" shape="-650.92,-573.59 -677.93,-488.50">
        <lane id="38561_0" index="0" disallow="pedestrian tram rail_urban rail rail_electric rail_fast ship" speed="36.11" length="70.00" width="3.50" customShape="1" shape="-660.66,-556.19 -665.58,-541.80 -669.06,-530.66 -671.60,-521.37 -672.72,-516.42 -673.43,-511.40 -674.25,-505.88 -676.03,-497.96 -677.93,-488.50"/>
    </edge>
    <edge id="38562" from="29" to="43" priority="3" type="highway.residential" spreadType="center" length="70.00" shape="-681.27,-489.66 -654.25,-574.65">
        <lane id="38562_0" index="0" disallow="pedestrian tram rail_urban rail rail_electric rail_fast ship" speed="36.11" length="70.00" width="3.50" customShape="1" shape="-681.27,-489.66 -679.37,-499.04 -677.62,-506.89 -676.84,-512.35 -676.10,-517.42 -674.94,-522.45 -672.38,-531.79 -668.89,-542.95 -663.96,-557.34"/>
    </edge>
    <edge id="38564" from="34" to="43" priority="3" type="highway.residential" spreadType="center" length="70.02" shape="-625.89,-659.33 -650.93,-573.56">
        <lane id="38564_0" index="0" disallow="pedestrian tram rail_urban rail rail_electric rail_fast ship" speed="36.11" length="70.02" width="3.50" customShape="1" shape="-625.89,-659.33 -648.32,-593.00"/>
    </edge>
    <edge id="38565" from="43" to="23" priority="3" type="highway.residential" spreadType="center" length="70.00" shape="-654.28,-574.54 -629.21,-660.44">
        <lane id="38565_0" index="0" disallow="pedestrian tram rail_urban rail rail_electric rail_fast ship" speed="36.11" length="70.00" width="3.50" customShape="1" shape="-651.64,-594.13 -629.21,-660.44"/>
    </edge>

    <junction id="21" type="dead_end" x="-534.86" y="-548.33" incLanes="38197_0" intLanes="" shape="-533.94,-549.82 -535.79,-546.85" rightOfWay="edgePriority"/>
    <junction id="23" type="dead_end" x="-629.21" y="-660.44" incLanes="38565_0" intLanes="" shape="-630.87,-661.00 -627.56,-659.88" rightOfWay="edgePriority"/>
    <junction id="27" type="dead_end" x="-677.93" y="-488.50" incLanes="38561_0" intLanes="" shape="-676.22,-488.15 -679.65,-488.85" rightOfWay="edgePriority"/>
    <junction id="29" type="dead_end" x="-681.27" y="-489.66" incLanes="" intLanes="" shape="-679.55,-489.32 -682.98,-490.01" rightOfWay="edgePriority"/>
    <junction id="33" type="dead_end" x="-533.83" y="-543.55" incLanes="" intLanes="" shape="-532.90,-545.03 -534.76,-542.07" rightOfWay="edgePriority"/>
    <junction id="34" type="dead_end" x="-625.89" y="-659.33" incLanes="" intLanes="" shape="-627.55,-659.89 -624.24,-658.77" rightOfWay="edgePriority"/>
    <junction id="35" type="dead_end" x="-632.85" y="-456.53" incLanes="38333_0" intLanes="" shape="-632.24,-454.89 -633.47,-458.16" rightOfWay="edgePriority"/>
    <junction id="36" type="dead_end" x="-559.13" y="-394.78" incLanes="38083_0" intLanes="" shape="-557.55,-395.54 -560.70,-394.02" rightOfWay="edgePriority"/>
    <junction id="39" type="dead_end" x="-634.09" y="-459.80" incLanes="" intLanes="" shape="-633.47,-458.16 -634.71,-461.44" rightOfWay="edgePriority"/>
    <junction id="40" type="dead_end" x="-562.28" y="-393.26" incLanes="" intLanes="" shape="-560.70,-394.02 -563.86,-392.51" rightOfWay="edgePriority"/>
    <junction id="41" type="priority" x="-615.56" y="-549.31" incLanes="38196_0 38268_0 38133_0" intLanes=":41_0_0 :41_1_0 :41_2_0 :41_3_0 :41_4_0 :41_5_0" shape="-598.90,-549.58 -601.59,-556.03 -606.28,-554.24 -610.21,-553.09 -613.38,-552.57 -615.78,-552.70 -617.42,-553.47 -618.30,-554.88 -625.05,-553.03 -626.67,-544.08 -623.59,-537.83">
        <request index="0" response="000000" foes="001000" cont="0"/>
        <request index="1" response="000000" foes="111000" cont="0"/>
        <request index="2" response="000000" foes="100000" cont="0"/>
        <request index="3" response="000011" foes="100011" cont="0"/>
        <request index="4" response="000010" foes="000010" cont="0"/>
        <request index="5" response="001110" foes="001110" cont="0"/>
    </junction>
    <junction id="42" type="priority" x="-627.58" y="-537.15" incLanes="38087_0 38134_0 38160_0" intLanes=":42_0_0 :42_1_0 :42_2_0 :42_3_0 :42_4_0 :42_5_0" shape="-627.50,-524.55 -621.19,-527.59 -621.61,-538.80 -624.97,-544.92 -631.28,-547.80 -637.34,-544.36">
        <request index="0" response="000000" foes="001000" cont="0"/>
        <request index="1" response="110000" foes="111000" cont="0"/>
        <request index="2" response="100000" foes="100000" cont="0"/>
        <request index="3" response="100011" foes="100011" cont="0"/>
        <request index="4" response="000000" foes="000010" cont="0"/>
        <request index="5" response="000000" foes="001110" cont="0"/>
    </junction>
    <junction id="43" type="priority" x="-652.60" y="-574.08" incLanes="38164_0 38564_0 38562_0" intLanes=":43_0_0 :43_1_0 :43_2_0 :43_3_0 :43_4_0 :43_5_0" shape="-646.57,-568.58 -644.42,-575.24 -646.51,-576.37 -647.90,-578.19 -648.62,-580.71 -648.65,-583.93 -648.00,-587.84 -646.67,-592.44 -653.30,-594.69 -665.63,-557.89 -659.00,-555.62 -657.21,-560.23 -655.30,-563.86 -653.28,-566.51 -651.15,-568.18 -648.92,-568.87">
        <request index="0" response="001000" foes="001000" cont="0"/>
        <request index="1" response="111000" foes="111000" cont="0"/>
        <request index="2" response="000000" foes="100000" cont="0"/>
        <request index="3" response="000000" foes="100011" cont="0"/>
        <request index="4" response="000000" foes="000010" cont="0"/>
        <request index="5" response="001100" foes="001110" cont="0"/>
    </junction>
    <junction id="44" type="priority" x="-633.48" y="-556.86" incLanes="38161_0 38269_0 38163_0" intLanes=":44_0_0 :44_1_0 :44_2_0 :44_3_0 :44_4_0" shape="-636.41,-542.73 -630.37,-546.25 -625.11,-553.28 -618.40,-555.21 -653.77,-578.25 -655.92,-571.62">
        <request index="0" response="00100" foes="00100" cont="0"/>
        <request index="1" response="11100" foes="11100" cont="0"/>
        <request index="2" response="00000" foes="10011" cont="0"/>
        <request index="3" response="00000" foes="00010" cont="0"/>
        <request index="4" response="00100" foes="00110" cont="0"/>
    </junction>
    <junction id="45" type="priority" x="-604.59" y="-469.51" incLanes="38084_0 38086_0 38334_0" intLanes=":45_0_0 :45_1_0 :45_2_0 :45_3_0" shape="-593.07,-453.11 -586.76,-456.15 -603.61,-491.11 -609.92,-488.07 -608.19,-483.44 -607.72,-479.30 -608.50,-475.65 -610.52,-472.48 -613.80,-469.81 -618.32,-467.62 -615.85,-461.07 -610.76,-462.53 -606.20,-462.88 -602.14,-462.11 -598.60,-460.22 -595.58,-457.22">
        <request index="0" response="0000" foes="1100" cont="0"/>
        <request index="1" response="0000" foes="0000" cont="0"/>
        <request index="2" response="0001" foes="0001" cont="0"/>
        <request index="3" response="0001" foes="0001" cont="0"/>
    </junction>

    <connection from="38084" to="38087" fromLane="0" toLane="0" contPos="-4.00" shape="-591.48,-453.85 -599.91,-471.34 -608.34,-488.83" via=":45_0_0" dir="s" state="M"/>