<routes>
	<vehicle depart="0.1" departLane="0" departPos="3.150751087123613" departSpeed="0.050715276" id="39" type="bicycle">
		<route edges=":70_10 69757"/>
	</vehicle>
	<vehicle depart="0.1" departLane="0" departPos="3.130471042234726" departSpeed="0.0015670296" id="321" type="bicycle">
		<route edges=":70_10 69757"/>
	</vehicle>
	<vehicle depart="0.1" departLane="0" departPos="44.26388705993431" departSpeed="0.0" id="36" type="passenger">
		<route edges=":67_1 67967"/>
	</vehicle>
	<vehicle depart="0.1" departLane="0" departPos="8.661993561976484" departSpeed="0.045690102" id="38" type="passenger">
		<route edges=":70_10 69757"/>
	</vehicle>
	<vehicle depart="0.1" departLane="0" departPos="33.74196022593142" departSpeed="10.855645" id="315" type="passenger">
		<route edges=":67_2 67377 67380"/>
	</vehicle>
	<vehicle depart="0.1" departLane="0" departPos="37.384421632349124" departSpeed="0.0047339195" id="317" type="passenger">
		<route edges=":67_1 67967"/>
	</vehicle>
	<vehicle depart="0.1" departLane="0" departPos="27.57008058404956" departSpeed="0.0" id="320" type="passenger">
		<route edges="67406 67968"/>
	</vehicle>
	<vehicle depart="0.1" departLane="0" departPos="19.573822546994336" departSpeed="0.041069958" id="324" type="passenger">
		<route edges="67406 67968"/>
	</vehicle>
	<vehicle depart="0.1" departLane="0" departPos="3.260066409518818" departSpeed="3.8969334" id="343" type="passenger">
		<route edges="67968 67377"/>
	</vehicle>
	<vehicle depart="0.1" departLane="0" departPos="28.699870654792964" departSpeed="5.0329705" id="344" type="passenger">
		<route edges=":70_7 67968"/>
	</vehicle>
</routes>
