<!-- generated on Tue Feb  9 22:08:40 2021 by Eclipse SUMO netconvert Version 1.8.0
<configuration xmlns:xsi="http://www.w3.org/2001/XMLSchema-instance" xsi:noNamespaceSchemaLocation="http://sumo.dlr.de/xsd/netconvertConfiguration.xsd">

    <input>
        <node-files value="./converted_scenarios/scenario-factory/ESP_Ceuta-4_2_I-1-1/ESP_Ceuta-4_2_I-1-1.nod.xml"/>
        <edge-files value="./converted_scenarios/scenario-factory/ESP_Ceuta-4_2_I-1-1/ESP_Ceuta-4_2_I-1-1.edg.xml"/>
        <connection-files value="./converted_scenarios/scenario-factory/ESP_Ceuta-4_2_I-1-1/ESP_Ceuta-4_2_I-1-1.con.xml"/>
        <tllogic-files value="./converted_scenarios/scenario-factory/ESP_Ceuta-4_2_I-1-1/ESP_Ceuta-4_2_I-1-1.tll.xml"/>
        <type-files value="/home/zen/commonroad-interactive-benchmarks/install/commonroad-map-tool/crmapconverter/sumo_map/templates/DEU.typ.xml"/>
    </input>

    <output>
        <output-file value="./converted_scenarios/scenario-factory/ESP_Ceuta-4_2_I-1-1/ESP_Ceuta-4_2_I-1-1.net.xml"/>
    </output>

    <processing>
        <geometry.remove.keep-edges.explicit value="true"/>
        <geometry.avoid-overlap value="true"/>
        <offset.disable-normalization value="true"/>
    </processing>

    <junctions>
        <no-turnarounds value="true"/>
        <junctions.internal-link-detail value="20"/>
    </junctions>

    <report>
        <aggregate-warnings value="5"/>
    </report>

    <random_number>
        <seed value="1234"/>
    </random_number>

</configuration>
--><net xmlns:xsi="http://www.w3.org/2001/XMLSchema-instance" version="1.6" junctionCornerDetail="5" junctionLinkDetail="20" limitTurnSpeed="5.50" xsi:noNamespaceSchemaLocation="http://sumo.dlr.de/xsd/net_file.xsd">

    <location netOffset="0.00,0.00" convBoundary="99.17,421.90,328.85,577.77" origBoundary="99.17,421.90,328.85,577.77" projParameter="!"/>

    <type id="highway.bridleway" priority="1" speed="2.78" allow="pedestrian" oneway="1" width="2.00"/>
    <type id="highway.bus_guideway" priority="1" speed="27.78" allow="bus" oneway="1"/>
    <type id="highway.cycleway" priority="1" speed="8.33" allow="bicycle" oneway="0" width="1.00"/>
    <type id="highway.footway" priority="1" speed="2.78" allow="pedestrian" oneway="1" width="2.00"/>
    <type id="highway.ford" priority="1" speed="2.78" allow="army" oneway="0"/>
    <type id="highway.living_street" priority="2" speed="2.78" disallow="tram rail_urban rail rail_electric rail_fast ship" oneway="0"/>
    <type id="highway.motorway" priority="14" speed="39.44" allow="private emergency authority army vip passenger hov taxi bus coach delivery truck trailer motorcycle evehicle custom1 custom2" oneway="1"/>
    <type id="highway.motorway_link" priority="9" speed="22.22" allow="private emergency authority army vip passenger hov taxi bus coach delivery truck trailer motorcycle evehicle custom1 custom2" oneway="1"/>
    <type id="highway.path" priority="1" speed="2.78" allow="pedestrian bicycle" oneway="0" width="2.00"/>
    <type id="highway.pedestrian" priority="1" speed="2.78" allow="pedestrian" oneway="1" width="2.00"/>
    <type id="highway.primary" priority="12" speed="27.78" disallow="pedestrian tram rail_urban rail rail_electric rail_fast ship" oneway="0"/>
    <type id="highway.primary_link" priority="7" speed="22.22" disallow="pedestrian tram rail_urban rail rail_electric rail_fast ship" oneway="0"/>
    <type id="highway.raceway" priority="15" speed="83.33" allow="vip" oneway="0"/>
    <type id="highway.residential" priority="3" speed="13.89" disallow="pedestrian tram rail_urban rail rail_electric rail_fast ship" oneway="0"/>
    <type id="highway.secondary" priority="11" speed="27.78" disallow="pedestrian tram rail_urban rail rail_electric rail_fast ship" oneway="0"/>
    <type id="highway.secondary_link" priority="6" speed="22.22" disallow="pedestrian tram rail_urban rail rail_electric rail_fast ship" oneway="0"/>
    <type id="highway.service" priority="1" speed="5.56" allow="pedestrian delivery bicycle" oneway="0"/>
    <type id="highway.stairs" priority="1" speed="1.39" allow="pedestrian" oneway="1" width="2.00"/>
    <type id="highway.step" priority="1" speed="1.39" allow="pedestrian" oneway="1" width="2.00"/>
    <type id="highway.steps" priority="1" speed="1.39" allow="pedestrian" oneway="1" width="2.00"/>
    <type id="highway.tertiary" priority="10" speed="22.22" disallow="pedestrian tram rail_urban rail rail_electric rail_fast ship" oneway="0"/>
    <type id="highway.tertiary_link" priority="5" speed="22.22" disallow="pedestrian tram rail_urban rail rail_electric rail_fast ship" oneway="0"/>
    <type id="highway.track" priority="1" speed="5.56" allow="pedestrian motorcycle moped bicycle" oneway="0"/>
    <type id="highway.trunk" priority="13" speed="27.78" disallow="pedestrian bicycle tram rail_urban rail rail_electric rail_fast ship" oneway="0"/>
    <type id="highway.trunk_link" priority="8" speed="22.22" disallow="pedestrian bicycle tram rail_urban rail rail_electric rail_fast ship" oneway="0"/>
    <type id="highway.unclassified" priority="4" speed="13.89" disallow="pedestrian tram rail_urban rail rail_electric rail_fast ship" oneway="0"/>
    <type id="highway.unsurfaced" priority="1" speed="8.33" disallow="tram rail_urban rail rail_electric rail_fast ship" oneway="0"/>
    <type id="railway.highspeed" priority="21" speed="69.44" allow="rail_fast" oneway="1"/>
    <type id="railway.light_rail" priority="19" speed="27.78" allow="rail_urban" oneway="1"/>
    <type id="railway.preserved" priority="16" speed="27.78" allow="rail" oneway="1"/>
    <type id="railway.rail" priority="20" speed="44.44" allow="rail" oneway="1"/>
    <type id="railway.subway" priority="18" speed="27.78" allow="rail_urban" oneway="1"/>
    <type id="railway.tram" priority="17" speed="13.89" allow="tram" oneway="1"/>

    <edge id=":31_0" function="internal">
        <lane id=":31_0_0" index="0" disallow="pedestrian tram rail_urban rail rail_electric rail_fast ship" speed="36.11" length="3.79" width="3.50" shape="131.01,522.63 127.33,521.72"/>
    </edge>
    <edge id=":58_0" function="internal">
        <lane id=":58_0_0" index="0" disallow="pedestrian tram rail_urban rail rail_electric rail_fast ship" speed="36.11" length="3.59" width="3.50" shape="128.24,518.33 131.72,519.20"/>
    </edge>
    <edge id=":60_0" function="internal">
        <lane id=":60_0_0" index="0" disallow="pedestrian tram rail_urban rail rail_electric rail_fast ship" speed="36.11" length="5.94" width="3.50" shape="203.06,469.15 198.05,472.34"/>
    </edge>
    <edge id=":61_0" function="internal">
        <lane id=":61_0_0" index="0" disallow="pedestrian tram rail_urban rail rail_electric rail_fast ship" speed="36.11" length="36.36" width="3.50" shape="240.79,531.28 225.53,541.16 210.27,551.04"/>
    </edge>
    <edge id=":61_1" function="internal">
        <lane id=":61_1_0" index="0" disallow="pedestrian tram rail_urban rail rail_electric rail_fast ship" speed="8.65" length="16.64" width="3.50" shape="223.19,531.65 223.41,531.74 225.11,532.18 226.86,532.38 229.20,532.28 231.49,531.82 234.25,530.85 236.88,529.55 238.89,528.34"/>
    </edge>
    <edge id=":61_2" function="internal">
        <lane id=":61_2_0" index="0" disallow="pedestrian tram rail_urban rail rail_electric rail_fast ship" speed="9.44" length="20.07" width="3.50" shape="219.00,534.37 219.13,535.03 219.26,537.38 219.01,539.72 218.56,541.42 217.62,543.58 216.36,545.57 214.83,547.35 212.65,549.33 210.27,551.04"/>
    </edge>
    <edge id=":61_3" function="internal">
        <lane id=":61_3_0" index="0" disallow="pedestrian tram rail_urban rail rail_electric rail_fast ship" speed="36.11" length="36.38" width="3.50" shape="208.35,548.11 223.62,538.22 238.89,528.34"/>
    </edge>
    <edge id=":62_0" function="internal">
        <lane id=":62_0_0" index="0" disallow="pedestrian tram rail_urban rail rail_electric rail_fast ship" speed="36.11" length="6.60" width="3.50" shape="231.42,477.04 235.07,482.54"/>
    </edge>
    <edge id=":62_1" function="internal">
        <lane id=":62_1_0" index="0" disallow="pedestrian tram rail_urban rail rail_electric rail_fast ship" speed="9.90" length="21.99" width="3.50" shape="233.23,485.81 234.24,486.15 235.82,486.94 237.75,488.29 239.47,489.90 241.35,492.17 235.15,482.49"/>
    </edge>
    <edge id=":63_0" function="internal">
        <lane id=":63_0_0" index="0" disallow="pedestrian tram rail_urban rail rail_electric rail_fast ship" speed="36.11" length="34.04" width="3.50" shape="272.32,510.88 258.02,520.13 243.74,529.37"/>
    </edge>
    <edge id=":63_1" function="internal">
        <lane id=":63_1_0" index="0" disallow="pedestrian tram rail_urban rail rail_electric rail_fast ship" speed="8.07" length="14.37" width="3.50" shape="256.82,510.44 257.19,510.60 258.88,511.03 260.62,511.21 262.36,511.13 264.64,510.67 266.83,509.88 269.42,508.55 270.41,507.94"/>
    </edge>
    <edge id=":63_2" function="internal">
        <lane id=":63_2_0" index="0" disallow="pedestrian tram rail_urban rail rail_electric rail_fast ship" speed="9.32" length="19.55" width="3.50" shape="252.54,513.21 252.59,513.42 252.71,515.77 252.46,518.09 252.01,519.79 251.07,521.94 249.81,523.92 248.29,525.70 246.12,527.67 243.74,529.37"/>
    </edge>
    <edge id=":63_3" function="internal">
        <lane id=":63_3_0" index="0" disallow="pedestrian tram rail_urban rail rail_electric rail_fast ship" speed="36.11" length="34.05" width="3.50" shape="241.83,526.44 256.12,517.19 270.41,507.94"/>
    </edge>
    <edge id=":64_0" function="internal">
        <lane id=":64_0_0" index="0" disallow="pedestrian tram rail_urban rail rail_electric rail_fast ship" speed="36.11" length="12.03" width="3.50" shape="257.59,457.06 264.02,467.23"/>
    </edge>
    <edge id=":64_1" function="internal">
        <lane id=":64_1_0" index="0" disallow="pedestrian tram rail_urban rail rail_electric rail_fast ship" speed="36.11" length="11.36" width="3.50" shape="252.97,455.96 243.24,461.83"/>
    </edge>
    <edge id=":66_0" function="internal">
        <lane id=":66_0_0" index="0" disallow="pedestrian tram rail_urban rail rail_electric rail_fast ship" speed="3.91" length="2.37" width="3.50" shape="227.02,467.85 228.75,468.02 229.38,467.96"/>
    </edge>
    <edge id=":66_1" function="internal">
        <lane id=":66_1_0" index="0" disallow="pedestrian tram rail_urban rail rail_electric rail_fast ship" speed="36.11" length="7.76" width="3.50" shape="225.69,468.78 226.76,470.31 230.14,475.14"/>
    </edge>
    <edge id=":67_0" function="internal">
        <lane id=":67_0_0" index="0" disallow="pedestrian tram rail_urban rail rail_electric rail_fast ship" speed="36.11" length="35.84" width="3.43" shape="203.51,555.41 175.12,573.73 173.41,574.86"/>
    </edge>
    <edge id=":67_1" function="internal">
        <lane id=":67_1_0" index="0" disallow="pedestrian tram rail_urban rail rail_electric rail_fast ship" speed="19.40" length="42.38" width="3.50" shape="203.51,555.41 202.50,556.03 200.44,557.08 197.21,558.27 193.88,559.06 190.52,559.49 187.15,559.63 183.81,559.53 179.40,559.08 173.99,558.13 168.66,556.85 162.42,554.99"/>
    </edge>
    <edge id=":67_2" function="internal">
        <lane id=":67_2_0" index="0" disallow="pedestrian tram rail_urban rail rail_electric rail_fast ship" speed="18.68" length="39.30" width="3.50" shape="163.48,551.66 169.43,553.44 174.45,554.66 179.54,555.57 183.66,556.02 186.76,556.14 189.86,556.05 192.94,555.68 195.97,555.00 198.88,553.94 200.73,553.01 201.61,552.47"/>
    </edge>
    <edge id=":67_3" function="internal">
        <lane id=":67_3_0" index="0" disallow="pedestrian tram rail_urban rail rail_electric rail_fast ship" speed="36.11" length="35.89" width="3.50" shape="171.47,571.95 173.19,570.81 201.61,552.47"/>
    </edge>
    <edge id=":68_0" function="internal">
        <lane id=":68_0_0" index="0" disallow="pedestrian tram rail_urban rail rail_electric rail_fast ship" speed="5.95" length="7.63" width="3.50" shape="224.68,457.24 224.46,457.46 223.41,458.81 222.61,460.31 222.29,461.40 222.21,462.53 222.41,463.65 222.61,464.11"/>
    </edge>
    <edge id=":68_1" function="internal">
        <lane id=":68_1_0" index="0" disallow="pedestrian tram rail_urban rail rail_electric rail_fast ship" speed="36.11" length="11.50" width="3.50" shape="224.14,456.35 219.39,459.24 214.31,462.32"/>
    </edge>
    <edge id=":69_0" function="internal">
        <lane id=":69_0_0" index="0" disallow="pedestrian tram rail_urban rail rail_electric rail_fast ship" speed="36.11" length="33.78" width="3.50" shape="300.89,492.39 286.71,501.57 272.53,510.74"/>
    </edge>
    <edge id=":69_1" function="internal">
        <lane id=":69_1_0" index="0" disallow="pedestrian tram rail_urban rail rail_electric rail_fast ship" speed="8.33" length="15.19" width="3.50" shape="270.61,507.81 272.97,506.11 274.69,504.54 276.20,502.78 277.41,500.80 278.07,499.19 278.49,497.51 278.65,495.68"/>
    </edge>
    <edge id=":69_2" function="internal">
        <lane id=":69_2_0" index="0" disallow="pedestrian tram rail_urban rail rail_electric rail_fast ship" speed="36.11" length="33.80" width="3.50" shape="270.61,507.81 284.80,498.63 298.99,489.45"/>
    </edge>
    <edge id=":70_0" function="internal">
        <lane id=":70_0_0" index="0" disallow="pedestrian tram rail_urban rail rail_electric rail_fast ship" speed="10.30" length="22.76" width="3.50" shape="161.18,554.59 159.58,554.10 158.04,553.69 156.57,553.37 155.16,553.13 153.81,552.98 152.52,552.92 151.30,552.93 150.14,553.04 149.04,553.22 148.01,553.49 147.03,553.85 146.12,554.29 145.27,554.82 144.49,555.43 143.77,556.12 143.11,556.90 142.51,557.77 141.98,558.72 141.51,559.75"/>
    </edge>
    <edge id=":70_1" function="internal">
        <lane id=":70_1_0" index="0" disallow="pedestrian tram rail_urban rail rail_electric rail_fast ship" speed="36.11" length="39.23" width="3.50" shape="161.20,554.59 145.44,549.65 129.57,545.06 123.59,543.43"/>
    </edge>
    <edge id=":70_2" function="internal">
        <lane id=":70_2_0" index="0" disallow="pedestrian tram rail_urban rail rail_electric rail_fast ship" speed="11.64" length="28.57" width="3.50" shape="161.20,554.59 160.03,554.20 156.62,552.89 153.29,551.31 151.12,550.04 149.04,548.55 147.16,546.82 146.27,545.79 145.48,544.69 144.81,543.51 144.26,542.24 143.87,540.91 143.64,539.54 143.58,538.15 143.67,536.78 143.90,535.43"/>
    </edge>
    <edge id=":70_3" function="internal">
        <lane id=":70_3_0" index="0" disallow="pedestrian tram rail_urban rail rail_electric rail_fast ship" speed="10.53" length="23.41" width="3.50" shape="147.32,536.16 147.14,537.25 147.08,538.31 147.16,539.37 147.37,540.41 147.72,541.42 148.19,542.37 148.76,543.26 149.43,544.10 150.16,544.87 151.78,546.25 153.54,547.43 155.40,548.47 158.30,549.80 161.28,550.93 162.27,551.26"/>
    </edge>
    <edge id=":70_4" function="internal">
        <lane id=":70_4_0" index="0" disallow="pedestrian tram rail_urban rail rail_electric rail_fast ship" speed="36.11" length="19.09" width="3.50" shape="147.31,536.20 142.59,554.70"/>
    </edge>
    <edge id=":70_5" function="internal">
        <lane id=":70_5_0" index="0" disallow="pedestrian tram rail_urban rail rail_electric rail_fast ship" speed="10.95" length="28.23" width="3.50" shape="147.33,536.16 146.96,537.50 146.48,538.75 145.86,539.94 145.09,541.04 144.18,542.03 143.14,542.88 142.00,543.58 140.77,544.13 139.50,544.54 138.19,544.83 135.52,545.11 132.83,545.07 128.83,544.59 124.89,543.76 123.59,543.43"/>
    </edge>
    <edge id=":70_6" function="internal">
        <lane id=":70_6_0" index="0" disallow="pedestrian tram rail_urban rail rail_electric rail_fast ship" speed="9.78" length="22.49" width="3.50" shape="124.49,540.05 125.61,540.34 129.05,541.08 132.49,541.52 134.72,541.60 136.94,541.44 137.96,541.25 138.96,540.98 139.90,540.61 140.76,540.15 141.53,539.60 142.20,538.94 142.78,538.19 143.25,537.35 143.62,536.43 143.90,535.43"/>
    </edge>
    <edge id=":70_7" function="internal">
        <lane id=":70_7_0" index="0" disallow="pedestrian tram rail_urban rail rail_electric rail_fast ship" speed="36.11" length="39.41" width="3.50" shape="124.49,540.05 130.51,541.69 146.45,546.29 162.27,551.26"/>
    </edge>
    <edge id=":70_8" function="internal">
        <lane id=":70_8_0" index="0" disallow="pedestrian tram rail_urban rail rail_electric rail_fast ship" speed="17.09" length="26.16" width="3.50" shape="124.50,540.05 125.28,540.37 126.08,540.92 126.90,541.66 127.74,542.58 128.59,543.65 129.45,544.85 130.31,546.15 131.16,547.54 132.00,548.98 132.82,550.47 133.62,551.96 134.40,553.45 135.14,554.90 135.85,556.30 136.52,557.61 137.14,558.83 137.70,559.92 138.21,560.86 138.65,561.63"/>
    </edge>
    <edge id=":70_9" function="internal">
        <lane id=":70_9_0" index="0" disallow="pedestrian tram rail_urban rail rail_electric rail_fast ship" speed="11.53" length="30.13" width="3.50" shape="136.02,565.70 137.50,559.66 137.73,557.50 137.73,556.41 137.63,555.33 137.43,554.26 137.13,553.22 136.73,552.21 136.22,551.25 135.62,550.34 134.94,549.49 134.19,548.71 133.37,547.99 131.61,546.72 129.71,545.67 127.72,544.78 124.64,543.73 123.59,543.43"/>
    </edge>
    <edge id=":70_10" function="internal">
        <lane id=":70_10_0" index="0" disallow="pedestrian tram rail_urban rail rail_electric rail_fast ship" speed="36.11" length="31.28" width="3.50" shape="136.02,565.70 137.30,560.78 141.18,546.62 143.90,535.43"/>
    </edge>
    <edge id=":70_11" function="internal">
        <lane id=":70_11_0" index="0" disallow="pedestrian tram rail_urban rail rail_electric rail_fast ship" speed="12.11" length="35.51" width="3.50" shape="136.02,565.70 137.41,560.53 138.37,558.15 139.66,555.88 140.47,554.77 141.37,553.75 142.36,552.81 143.46,551.98 144.63,551.26 145.86,550.67 147.14,550.21 148.45,549.86 149.76,549.63 151.10,549.50 153.67,549.50 156.21,549.78 158.70,550.26 162.27,551.26"/>
    </edge>
    <edge id=":72_0" function="internal">
        <lane id=":72_0_0" index="0" disallow="pedestrian tram rail_urban rail rail_electric rail_fast ship" speed="6.47" length="8.74" width="3.50" shape="195.33,493.50 195.49,493.65 196.90,494.70 198.46,495.49 200.14,495.99 201.88,496.20 203.39,496.15"/>
    </edge>
    <edge id=":72_1" function="internal">
        <lane id=":72_1_0" index="0" disallow="pedestrian tram rail_urban rail rail_electric rail_fast ship" speed="36.11" length="14.45" width="3.50" shape="194.93,493.76 200.83,502.86 202.80,505.88"/>
    </edge>

    <edge id="67373" from="67" to="40" priority="3" type="highway.residential" spreadType="center" length="5.25" shape="180.80,561.09 169.04,577.77">
        <lane id="67373_0" index="0" disallow="pedestrian tram rail_urban rail rail_electric rail_fast ship" speed="36.11" length="5.25" width="3.43" customShape="1" shape="173.41,574.86 173.30,574.93 173.20,575.00 169.04,577.77"/>
    </edge>
    <edge id="67374" from="49" to="67" priority="3" type="highway.residential" spreadType="center" length="5.22" shape="167.14,574.87 177.97,559.11">
        <lane id="67374_0" index="0" disallow="pedestrian tram rail_urban rail rail_electric rail_fast ship" speed="36.11" length="5.22" width="3.50" customShape="1" shape="167.14,574.87 171.29,572.07 171.47,571.95"/>
    </edge>
    <edge id="67376" from="61" to="67" priority="3" type="highway.residential" spreadType="center" length="8.06" shape="223.44,538.14 180.10,561.79">
        <lane id="67376_0" index="0" disallow="pedestrian tram rail_urban rail rail_electric rail_fast ship" speed="36.11" length="8.06" width="3.50" customShape="1" shape="210.27,551.04 206.89,553.23 203.50,555.42"/>
    </edge>
    <edge id="67377" from="67" to="61" priority="3" type="highway.residential" spreadType="center" length="8.05" shape="178.42,558.72 221.76,535.06">
        <lane id="67377_0" index="0" disallow="pedestrian tram rail_urban rail rail_electric rail_fast ship" speed="36.11" length="8.05" width="3.50" customShape="1" shape="201.61,552.47 204.99,550.29 208.37,548.10"/>
    </edge>
    <edge id="67379" from="63" to="61" priority="3" type="highway.residential" spreadType="center" length="3.51" shape="256.31,516.88 223.55,538.07">
        <lane id="67379_0" index="0" disallow="pedestrian tram rail_urban rail rail_electric rail_fast ship" speed="36.11" length="3.51" width="3.50" customShape="1" shape="243.74,529.37 242.26,530.33 240.79,531.28"/>
    </edge>
    <edge id="67380" from="61" to="63" priority="3" type="highway.residential" spreadType="center" length="3.51" shape="221.65,535.13 254.41,513.95">
        <lane id="67380_0" index="0" disallow="pedestrian tram rail_urban rail rail_electric rail_fast ship" speed="36.11" length="3.51" width="3.50" customShape="1" shape="238.89,528.34 240.36,527.39 241.84,526.43"/>
    </edge>
    <edge id="67382" from="69" to="63" priority="3" type="highway.residential" spreadType="center" length="0.26" shape="284.68,498.59 256.25,516.93">
        <lane id="67382_0" index="0" disallow="pedestrian tram rail_urban rail rail_electric rail_fast ship" speed="36.11" length="0.26" width="3.50" customShape="1" shape="272.53,510.74 272.42,510.81 272.31,510.88"/>
    </edge>
    <edge id="67383" from="63" to="69" priority="3" type="highway.residential" spreadType="center" length="0.25" shape="254.35,513.99 282.79,495.65">
        <lane id="67383_0" index="0" disallow="pedestrian tram rail_urban rail rail_electric rail_fast ship" speed="36.11" length="0.25" width="3.50" customShape="1" shape="270.41,507.94 270.52,507.87 270.62,507.81"/>
    </edge>
    <edge id="67385" from="52" to="69" priority="3" type="highway.residential" spreadType="center" length="33.32" shape="328.85,474.29 284.45,498.73">
        <lane id="67385_0" index="0" disallow="pedestrian tram rail_urban rail rail_electric rail_fast ship" speed="36.11" length="33.32" width="3.50" customShape="1" shape="328.85,474.29 314.87,483.34 300.88,492.39"/>
    </edge>
    <edge id="67386" from="69" to="47" priority="3" type="highway.residential" spreadType="center" length="33.29" shape="282.76,495.66 326.94,471.36">
        <lane id="67386_0" index="0" disallow="pedestrian tram rail_urban rail rail_electric rail_fast ship" speed="36.11" length="33.29" width="3.50" customShape="1" shape="298.99,489.45 312.96,480.41 326.94,471.36"/>
    </edge>
    <edge id="67401" from="69" to="64" priority="3" type="highway.residential" spreadType="center" length="43.92">
        <lane id="67401_0" index="0" disallow="pedestrian tram rail_urban rail rail_electric rail_fast ship" speed="36.11" length="43.92" width="3.50" customShape="1" shape="280.82,494.33 270.05,477.05 257.59,457.06"/>
    </edge>
    <edge id="67404" from="50" to="70" priority="3" type="highway.residential" spreadType="center" length="1.15" shape="135.74,566.82 141.17,545.54">
        <lane id="67404_0" index="0" disallow="pedestrian tram rail_urban rail rail_electric rail_fast ship" speed="36.11" length="1.15" width="3.50" customShape="1" shape="135.74,566.82 136.02,565.70"/>
    </edge>
    <edge id="67406" from="58" to="70" priority="3" type="highway.residential" spreadType="center" length="25.94" shape="129.99,518.74 144.41,545.36">
        <lane id="67406_0" index="0" disallow="pedestrian tram rail_urban rail rail_electric rail_fast ship" speed="36.11" length="25.94" width="3.50" customShape="1" shape="131.72,519.20 134.69,520.06 138.14,521.39 140.41,522.52 142.54,523.90 143.59,524.74 144.56,525.66 145.44,526.70 146.22,527.84 146.85,529.10 147.32,530.43 147.59,531.82 147.68,533.22 147.60,534.60 147.38,535.91 147.34,536.08 147.31,536.20"/>
    </edge>
    <edge id="67409" from="59" to="58" priority="3" type="highway.residential" spreadType="center" length="23.48">
        <lane id="67409_0" index="0" disallow="pedestrian tram rail_urban rail rail_electric rail_fast ship" speed="36.11" length="23.48" width="3.50" customShape="1" shape="105.38,512.97 117.68,515.86 128.24,518.33"/>
    </edge>
    <edge id="67410" from="31" to="32" priority="3" type="highway.residential" spreadType="center" length="23.38">
        <lane id="67410_0" index="0" disallow="pedestrian tram rail_urban rail rail_electric rail_fast ship" speed="36.11" length="23.38" width="3.50" customShape="1" shape="127.33,521.72 116.88,519.26 104.57,516.37"/>
    </edge>
    <edge id="67501" from="66" to="64" priority="3" type="highway.residential" spreadType="center" length="26.39">
        <lane id="67501_0" index="0" disallow="pedestrian tram rail_urban rail rail_electric rail_fast ship" speed="36.11" length="26.39" width="3.50" customShape="1" shape="230.38,469.61 240.69,463.38 252.97,455.96"/>
    </edge>
    <edge id="67639" from="68" to="66" priority="3" type="highway.residential" spreadType="center" length="5.59">
        <lane id="67639_0" index="0" disallow="pedestrian tram rail_urban rail rail_electric rail_fast ship" speed="36.11" length="5.59" width="3.50" customShape="1" shape="222.49,464.20 223.24,465.27 225.69,468.78"/>
    </edge>
    <edge id="67641" from="66" to="62" priority="3" type="highway.residential" spreadType="center" length="2.30">
        <lane id="67641_0" index="0" disallow="pedestrian tram rail_urban rail rail_electric rail_fast ship" speed="36.11" length="2.30" width="3.50" customShape="1" shape="230.14,475.14 230.29,475.35 231.46,477.02"/>
    </edge>
    <edge id="67643" from="62" to="63" priority="3" type="highway.residential" spreadType="center" length="35.24">
        <lane id="67643_0" index="0" disallow="pedestrian tram rail_urban rail rail_electric rail_fast ship" speed="36.11" length="35.24" width="3.50" customShape="1" shape="235.15,482.49 245.28,498.13 254.30,512.07"/>
    </edge>
    <edge id="67708" from="72" to="62" priority="3" type="highway.residential" spreadType="center" length="30.75">
        <lane id="67708_0" index="0" disallow="pedestrian tram rail_urban rail rail_electric rail_fast ship" speed="36.11" length="30.75" width="3.50" customShape="1" shape="204.53,497.96 216.52,490.40 230.54,481.56"/>
    </edge>
    <edge id="67964" from="70" to="39" priority="3" type="highway.residential" spreadType="center" length="25.28" shape="142.46,547.82 99.17,536.89">
        <lane id="67964_0" index="0" disallow="pedestrian tram rail_urban rail rail_electric rail_fast ship" speed="36.11" length="25.28" width="3.50" customShape="1" shape="123.59,543.43 111.39,540.16 99.17,536.89"/>
    </edge>
    <edge id="67965" from="51" to="70" priority="3" type="highway.residential" spreadType="center" length="25.28" shape="100.08,533.51 143.32,544.43">
        <lane id="67965_0" index="0" disallow="pedestrian tram rail_urban rail rail_electric rail_fast ship" speed="36.11" length="25.28" width="3.50" customShape="1" shape="100.08,533.51 112.29,536.78 124.50,540.05"/>
    </edge>
    <edge id="67967" from="67" to="70" priority="3" type="highway.residential" spreadType="center" length="1.30" shape="178.68,561.86 142.12,547.71">
        <lane id="67967_0" index="0" disallow="pedestrian tram rail_urban rail rail_electric rail_fast ship" speed="36.11" length="1.30" width="3.50" customShape="1" shape="162.42,554.99 161.80,554.79 161.18,554.59"/>
    </edge>
    <edge id="67968" from="70" to="67" priority="3" type="highway.residential" spreadType="center" length="1.29" shape="143.38,544.45 179.95,558.59">
        <lane id="67968_0" index="0" disallow="pedestrian tram rail_urban rail rail_electric rail_fast ship" speed="36.11" length="1.29" width="3.50" customShape="1" shape="162.27,551.26 162.89,551.46 163.50,551.66"/>
    </edge>
    <edge id="68157" from="23" to="68" priority="3" type="highway.residential" spreadType="center" length="66.41">
        <lane id="68157_0" index="0" disallow="pedestrian tram rail_urban rail rail_electric rail_fast ship" speed="36.11" length="66.41" width="3.50" customShape="1" shape="280.91,421.90 256.48,436.73 224.14,456.35"/>
    </edge>
    <edge id="68159" from="68" to="60" priority="3" type="highway.residential" spreadType="center" length="13.16">
        <lane id="68159_0" index="0" disallow="pedestrian tram rail_urban rail rail_electric rail_fast ship" speed="36.11" length="13.16" width="3.50" customShape="1" shape="214.31,462.32 203.62,468.81 203.06,469.15"/>
    </edge>
    <edge id="68406" from="60" to="72" priority="3" type="highway.residential" spreadType="center" length="25.36">
        <lane id="68406_0" index="0" disallow="pedestrian tram rail_urban rail rail_electric rail_fast ship" speed="36.11" length="25.36" width="3.50" customShape="1" shape="198.05,472.34 197.56,472.66 195.27,474.53 193.62,476.22 192.20,478.11 191.36,479.68 190.77,481.35 190.50,483.10 190.56,484.88 190.93,486.61 191.56,488.27 192.71,490.34 192.77,490.45 194.93,493.76"/>
    </edge>
    <edge id="68408" from="72" to="61" priority="3" type="highway.residential" spreadType="center" length="32.72">
        <lane id="68408_0" index="0" disallow="pedestrian tram rail_urban rail rail_electric rail_fast ship" speed="36.11" length="32.72" width="3.50" customShape="1" shape="202.80,505.88 211.77,519.69 220.62,533.32"/>
    </edge>
    <edge id="69445" from="70" to="71" priority="3" type="highway.residential" spreadType="center" length="0.20" shape="144.56,546.36 140.38,562.72">
        <lane id="69445_0" index="0" disallow="pedestrian tram rail_urban rail rail_electric rail_fast ship" speed="36.11" length="0.20" width="3.50" customShape="1" shape="138.65,561.63 138.76,561.80"/>
    </edge>
    <edge id="69588" from="70" to="71" priority="3" type="highway.residential" spreadType="center" length="0.21">
        <lane id="69588_0" index="0" disallow="pedestrian tram rail_urban rail rail_electric rail_fast ship" speed="36.11" length="0.21" width="3.50" customShape="1" shape="141.51,559.75 141.43,559.94"/>
    </edge>
    <edge id="69687" from="64" to="65" priority="3" type="highway.residential" spreadType="center" length="25.65">