<routes>
	<vehicle depart="0.1" departLane="0" departPos="9.553466012136216" departSpeed="0.10704327" id="39" type="passenger">
		<route edges=":49_9 44380"/>
	</vehicle>
	<vehicle depart="0.1" departLane="0" departPos="7.123500417684141" departSpeed="0.3445109" id="312" type="passenger">
		<route edges=":50_0 44176 44428"/>
	</vehicle>
	<vehicle depart="0.1" departLane="0" departPos="15.60381429111817" departSpeed="0.59165015" id="313" type="passenger">
		<route edges=":49_6 44590"/>
	</vehicle>
	<vehicle depart="0.1" departLane="0" departPos="13.126539318586186" departSpeed="0.75189833" id="315" type="passenger">
		<route edges=":50_2 44176 44428"/>
	</vehicle>
	<vehicle depart="0.1" departLane="0" departPos="29.526904121251995" departSpeed="1.4176306" id="317" type="passenger">
		<route edges="44591 44380"/>
	</vehicle>
	<vehicle depart="0.1" departLane="0" departPos="10.598188283205477" departSpeed="1.2606081" id="326" type="passenger">
		<route edges="44593 44384"/>
	</vehicle>
	<vehicle depart="0.1" departLane="0" departPos="67.63550106563767" departSpeed="1.2189087" id="329" type="passenger">
		<route edges="44174 44176 44428"/>
	</vehicle>
	<vehicle depart="0.1" departLane="0" departPos="31.141388585413196" departSpeed="6.1433777" id="361" type="passenger">
		<route edges=":49_5 44380 44430"/>
	</vehicle>
	<vehicle depart="0.1" departLane="0" departPos="8.812735312778486" departSpeed="6.7687175" id="365" type="passenger">
		<route edges=":49_1 44380"/>
	</vehicle>
	<vehicle depart="0.1" departLane="0" departPos="16.51502803269655" departSpeed="0.17477198" id="325" type="truck">
		<route edges="44591 44380"/>
	</vehicle>
</routes>
