<routes>
	<vehicle depart="0.1" departLane="0" departPos="12.735291678496683" departSpeed="0.80621691" id="32" type="passenger">
		<route edges="47997 48067"/>
	</vehicle>
	<vehicle depart="0.1" departLane="0" departPos="7.954556364902755" departSpeed="0.28988195" id="315" type="passenger">
		<route edges=":44_5 48063"/>
	</vehicle>
	<vehicle depart="0.1" departLane="0" departPos="17.792267250542753" departSpeed="0.0" id="320" type="passenger">
		<route edges="48064 47996"/>
	</vehicle>
	<vehicle depart="0.1" departLane="0" departPos="9.665738331072248" departSpeed="0.66612068" id="323" type="motorcycle">
		<route edges="48064 47996"/>
	</vehicle>
	<vehicle depart="0.1" departLane="0" departPos="10.53285038469863" departSpeed="0.0" id="316" type="truck">
		<route edges="47772 48066"/>
	</vehicle>
</routes>
