<routes>
	<vehicle depart="0.1" departLane="0" departPos="66.19707260573881" departSpeed="0.12692014" id="36" type="passenger">
		<route edges="46677 46725"/>
	</vehicle>
	<vehicle depart="0.1" departLane="0" departPos="50.34254506340533" departSpeed="0.0" id="37" type="passenger">
		<route edges="46724 46676"/>
	</vehicle>
	<vehicle depart="0.1" departLane="0" departPos="52.66838443686368" departSpeed="1.969389" id="39" type="passenger">
		<route edges="46677 46725"/>
	</vehicle>
	<vehicle depart="0.1" departLane="0" departPos="57.459908816442116" departSpeed="0.0" id="312" type="passenger">
		<route edges="46724 46676"/>
	</vehicle>
	<vehicle depart="0.1" departLane="0" departPos="54.6715437356605" departSpeed="4.083881" id="344" type="passenger">
		<route edges="46679 46676"/>
	</vehicle>
	<vehicle depart="0.1" departLane="0" departPos="17.536240805075003" departSpeed="2.3280448" id="355" type="passenger">
		<route edges=":37_9 46721 46718"/>
	</vehicle>
	<vehicle depart="0.1" departLane="0" departPos="2.5" departSpeed="3.6422384" id="359" type="passenger">
		<route edges=":37_9 46721"/>
	</vehicle>
	<vehicle depart="0.1" departLane="0" departPos="27.610512409267166" departSpeed="1.890359" id="363" type="passenger">
		<route edges="46679 46676"/>
	</vehicle>
	<vehicle depart="0.1" departLane="0" departPos="25.276572740411673" departSpeed="8.2938812" id="30" type="truck">
		<route edges=":37_2 46676"/>
	</vehicle>
	<vehicle depart="0.1" departLane="0" departPos="73.74999893433805" departSpeed="0.58269509" id="330" type="truck">
		<route edges="46677 46680"/>
	</vehicle>
</routes>
