<routes>
	<vehicle depart="0.1" departLane="0" departPos="7.870489718000169" departSpeed="9.6393407" id="32" type="passenger">
		<route edges="40714 40413"/>
	</vehicle>
	<vehicle depart="0.1" departLane="0" departPos="32.24781733685191" departSpeed="3.5736897" id="312" type="passenger">
		<route edges="40641 40966"/>
	</vehicle>
	<vehicle depart="0.1" departLane="0" departPos="57.46134231392689" departSpeed="0.23161881" id="313" type="passenger">
		<route edges="40713 40965"/>
	</vehicle>
	<vehicle depart="0.1" departLane="0" departPos="21.28778152582694" departSpeed="1.2612369" id="314" type="passenger">
		<route edges="40641 40966"/>
	</vehicle>
	<vehicle depart="0.1" departLane="0" departPos="45.859009399028075" departSpeed="5.3441421" id="321" type="passenger">
		<route edges="41023 40918"/>
	</vehicle>
	<vehicle depart="0.1" departLane="0" departPos="11.805578256877828" departSpeed="1.1504307" id="33" type="motorcycle">
		<route edges=":63_3 40965"/>
	</vehicle>
	<vehicle depart="0.1" departLane="0" departPos="8.503615926804905" departSpeed="0.31810018" id="317" type="motorcycle">
		<route edges="40641 40966"/>
	</vehicle>
	<vehicle depart="0.1" departLane="0" departPos="66.44759880903106" departSpeed="0.79818565" id="319" type="motorcycle">
		<route edges="41023 40918"/>
	</vehicle>
	<vehicle depart="0.1" departLane="0" departPos="60.299782063849406" departSpeed="0.55123902" id="327" type="motorcycle">
		<route edges="41023 40918"/>
	</vehicle>
	<vehicle depart="0.1" departLane="0" departPos="18.852847897575664" departSpeed="2.0817893" id="322" type="truck">
		<route edges=":64_3 40640"/>
	</vehicle>
</routes>
