<routes>
	<vehicle depart="0.1" departLane="0" departPos="67.13941834531197" departSpeed="3.4711638" id="37" type="bicycle">
		<route edges="55145 54918 54838"/>
	</vehicle>
	<vehicle depart="0.1" departLane="0" departPos="13.126830758523514" departSpeed="1.6594986" id="339" type="bicycle">
		<route edges="55145 54918"/>
	</vehicle>
	<vehicle depart="0.1" departLane="0" departPos="71.64734132580148" departSpeed="5.7426628" id="38" type="passenger">
		<route edges="55145 54922"/>
	</vehicle>
	<vehicle depart="0.1" departLane="0" departPos="12.190240477539946" departSpeed="3.9584555" id="320" type="passenger">
		<route edges=":69_0 54918"/>
	</vehicle>
	<vehicle depart="0.1" departLane="0" departPos="49.57256304417258" departSpeed="3.0559117" id="327" type="passenger">
		<route edges="55145 54918"/>
	</vehicle>
	<vehicle depart="0.1" departLane="0" departPos="39.52718267383397" departSpeed="3.1130022" id="332" type="passenger">
		<route edges="55145 54918"/>
	</vehicle>
	<vehicle depart="0.1" departLane="0" departPos="30.358430035831603" departSpeed="0.89282912" id="337" type="passenger">
		<route edges="55145 54918"/>
	</vehicle>
	<vehicle depart="0.1" departLane="0" departPos="14.75667330509459" departSpeed="4.0503131" id="342" type="passenger">
		<route edges="54918 54838"/>
	</vehicle>
	<vehicle depart="0.1" departLane="0" departPos="69.43520690319902" departSpeed="0.17527137" id="343" type="passenger">
		<route edges="54921 54918"/>
	</vehicle>
	<vehicle depart="0.1" departLane="0" departPos="61.80277793292061" departSpeed="0.11172485" id="345" type="passenger">
		<route edges="54921 54918"/>
	</vehicle>
</routes>
