<!-- generated on Tue Feb  9 22:07:37 2021 by Eclipse SUMO netconvert Version 1.8.0
<configuration xmlns:xsi="http://www.w3.org/2001/XMLSchema-instance" xsi:noNamespaceSchemaLocation="http://sumo.dlr.de/xsd/netconvertConfiguration.xsd">

    <input>
        <node-files value="./converted_scenarios/scenario-factory/DEU_Hennigsdorf-8_4_I-1-1/DEU_Hennigsdorf-8_4_I-1-1.nod.xml"/>
        <edge-files value="./converted_scenarios/scenario-factory/DEU_Hennigsdorf-8_4_I-1-1/DEU_Hennigsdorf-8_4_I-1-1.edg.xml"/>
        <connection-files value="./converted_scenarios/scenario-factory/DEU_Hennigsdorf-8_4_I-1-1/DEU_Hennigsdorf-8_4_I-1-1.con.xml"/>
        <tllogic-files value="./converted_scenarios/scenario-factory/DEU_Hennigsdorf-8_4_I-1-1/DEU_Hennigsdorf-8_4_I-1-1.tll.xml"/>
        <type-files value="/home/zen/commonroad-interactive-benchmarks/install/commonroad-map-tool/crmapconverter/sumo_map/templates/DEU.typ.xml"/>
    </input>

    <output>
        <output-file value="./converted_scenarios/scenario-factory/DEU_Hennigsdorf-8_4_I-1-1/DEU_Hennigsdorf-8_4_I-1-1.net.xml"/>
    </output>

    <processing>
        <geometry.remove.keep-edges.explicit value="true"/>
        <geometry.avoid-overlap value="true"/>
        <offset.disable-normalization value="true"/>
    </processing>

    <junctions>
        <no-turnarounds value="true"/>
        <junctions.internal-link-detail value="20"/>
    </junctions>

    <report>
        <aggregate-warnings value="5"/>
    </report>

    <random_number>
        <seed value="1234"/>
    </random_number>

</configuration>
--><net xmlns:xsi="http://www.w3.org/2001/XMLSchema-instance" version="1.6" junctionCornerDetail="5" junctionLinkDetail="20" limitTurnSpeed="5.50" xsi:noNamespaceSchemaLocation="http://sumo.dlr.de/xsd/net_file.xsd">

    <location netOffset="0.00,0.00" convBoundary="1.93,-844.30,171.41,-734.52" origBoundary="1.93,-844.30,171.41,-734.52" projParameter="!"/>

    <type id="highway.bridleway" priority="1" speed="2.78" allow="pedestrian" oneway="1" width="2.00"/>
    <type id="highway.bus_guideway" priority="1" speed="27.78" allow="bus" oneway="1"/>
    <type id="highway.cycleway" priority="1" speed="8.33" allow="bicycle" oneway="0" width="1.00"/>
    <type id="highway.footway" priority="1" speed="2.78" allow="pedestrian" oneway="1" width="2.00"/>
    <type id="highway.ford" priority="1" speed="2.78" allow="army" oneway="0"/>
    <type id="highway.living_street" priority="2" speed="2.78" disallow="tram rail_urban rail rail_electric rail_fast ship" oneway="0"/>
    <type id="highway.motorway" priority="14" speed="39.44" allow="private emergency authority army vip passenger hov taxi bus coach delivery truck trailer motorcycle evehicle custom1 custom2" oneway="1"/>
    <type id="highway.motorway_link" priority="9" speed="22.22" allow="private emergency authority army vip passenger hov taxi bus coach delivery truck trailer motorcycle evehicle custom1 custom2" oneway="1"/>
    <type id="highway.path" priority="1" speed="2.78" allow="pedestrian bicycle" oneway="0" width="2.00"/>
    <type id="highway.pedestrian" priority="1" speed="2.78" allow="pedestrian" oneway="1" width="2.00"/>
    <type id="highway.primary" priority="12" speed="27.78" disallow="pedestrian tram rail_urban rail rail_electric rail_fast ship" oneway="0"/>
    <type id="highway.primary_link" priority="7" speed="22.22" disallow="pedestrian tram rail_urban rail rail_electric rail_fast ship" oneway="0"/>
    <type id="highway.raceway" priority="15" speed="83.33" allow="vip" oneway="0"/>
    <type id="highway.residential" priority="3" speed="13.89" disallow="pedestrian tram rail_urban rail rail_electric rail_fast ship" oneway="0"/>
    <type id="highway.secondary" priority="11" speed="27.78" disallow="pedestrian tram rail_urban rail rail_electric rail_fast ship" oneway="0"/>
    <type id="highway.secondary_link" priority="6" speed="22.22" disallow="pedestrian tram rail_urban rail rail_electric rail_fast ship" oneway="0"/>
    <type id="highway.service" priority="1" speed="5.56" allow="pedestrian delivery bicycle" oneway="0"/>
    <type id="highway.stairs" priority="1" speed="1.39" allow="pedestrian" oneway="1" width="2.00"/>
    <type id="highway.step" priority="1" speed="1.39" allow="pedestrian" oneway="1" width="2.00"/>
    <type id="highway.steps" priority="1" speed="1.39" allow="pedestrian" oneway="1" width="2.00"/>
    <type id="highway.tertiary" priority="10" speed="22.22" disallow="pedestrian tram rail_urban rail rail_electric rail_fast ship" oneway="0"/>
    <type id="highway.tertiary_link" priority="5" speed="22.22" disallow="pedestrian tram rail_urban rail rail_electric rail_fast ship" oneway="0"/>
    <type id="highway.track" priority="1" speed="5.56" allow="pedestrian motorcycle moped bicycle" oneway="0"/>
    <type id="highway.trunk" priority="13" speed="27.78" disallow="pedestrian bicycle tram rail_urban rail rail_electric rail_fast ship" oneway="0"/>
    <type id="highway.trunk_link" priority="8" speed="22.22" disallow="pedestrian bicycle tram rail_urban rail rail_electric rail_fast ship" oneway="0"/>
    <type id="highway.unclassified" priority="4" speed="13.89" disallow="pedestrian tram rail_urban rail rail_electric rail_fast ship" oneway="0"/>
    <type id="highway.unsurfaced" priority="1" speed="8.33" disallow="tram rail_urban rail rail_electric rail_fast ship" oneway="0"/>
    <type id="railway.highspeed" priority="21" speed="69.44" allow="rail_fast" oneway="1"/>
    <type id="railway.light_rail" priority="19" speed="27.78" allow="rail_urban" oneway="1"/>
    <type id="railway.preserved" priority="16" speed="27.78" allow="rail" oneway="1"/>
    <type id="railway.rail" priority="20" speed="44.44" allow="rail" oneway="1"/>
    <type id="railway.subway" priority="18" speed="27.78" allow="rail_urban" oneway="1"/>
    <type id="railway.tram" priority="17" speed="13.89" allow="tram" oneway="1"/>

    <edge id=":11_0" function="internal">
        <lane id=":11_0_0" index="0" disallow="pedestrian tram rail_urban rail rail_electric rail_fast ship" speed="36.11" length="2.95" width="3.50" shape="94.88,-765.73 95.26,-762.80"/>
    </edge>
    <edge id=":20_0" function="internal">
        <lane id=":20_0_0" index="0" disallow="pedestrian tram rail_urban rail rail_electric rail_fast ship" speed="10.48" length="31.40" width="3.50" shape="86.77,-772.97 86.05,-776.77 85.13,-779.84 84.09,-782.18 83.09,-783.83 81.86,-785.30 80.39,-786.53 78.69,-787.42 76.84,-787.94 74.92,-788.10 73.01,-787.95 70.50,-787.41 67.48,-786.33 65.17,-785.26"/>
    </edge>
    <edge id=":20_1" function="internal">
        <lane id=":20_1_0" index="0" disallow="pedestrian tram rail_urban rail rail_electric rail_fast ship" speed="36.11" length="49.97" width="3.50" shape="86.77,-772.97 83.11,-797.70 79.45,-822.40"/>
    </edge>
    <edge id=":20_2" function="internal">
        <lane id=":20_2_0" index="0" disallow="pedestrian tram rail_urban rail rail_electric rail_fast ship" speed="16.20" length="45.08" width="3.50" shape="90.23,-773.47 89.75,-778.09 89.66,-781.55 89.84,-785.01 90.31,-788.45 91.11,-791.82 92.27,-795.08 93.80,-798.19 95.67,-801.11 97.87,-803.78 100.35,-806.21 103.06,-808.37 105.95,-810.27 107.97,-811.41"/>
    </edge>
    <edge id=":20_3" function="internal">
        <lane id=":20_3_0" index="0" disallow="pedestrian tram rail_urban rail rail_electric rail_fast ship" speed="15.42" length="40.77" width="3.50" shape="109.61,-808.32 107.79,-807.29 105.15,-805.55 102.70,-803.60 100.48,-801.42 98.51,-799.02 96.85,-796.41 95.49,-793.63 94.46,-790.70 93.74,-787.66 93.32,-784.55 93.17,-781.39 93.25,-778.23 93.70,-773.97"/>
    </edge>
    <edge id=":20_4" function="internal">
        <lane id=":20_4_0" index="0" disallow="pedestrian tram rail_urban rail rail_electric rail_fast ship" speed="36.11" length="50.07" width="3.50" shape="109.61,-808.32 95.14,-800.69 65.17,-785.26"/>
    </edge>
    <edge id=":20_5" function="internal">
        <lane id=":20_5_0" index="0" disallow="pedestrian tram rail_urban rail rail_electric rail_fast ship" speed="12.08" length="42.26" width="3.50" shape="109.61,-808.32 105.58,-806.37 101.98,-805.00 98.89,-804.18 96.35,-803.81 93.79,-803.78 91.89,-804.03 90.04,-804.55 88.30,-805.35 86.71,-806.43 85.30,-807.74 84.09,-809.22 82.74,-811.40 81.67,-813.73 80.65,-816.76 79.77,-820.50 79.45,-822.40"/>
    </edge>
    <edge id=":20_6" function="internal">
        <lane id=":20_6_0" index="0" disallow="pedestrian tram rail_urban rail rail_electric rail_fast ship" speed="10.47" length="31.38" width="3.50" shape="86.37,-823.46 87.13,-819.61 88.10,-816.49 89.19,-814.11 90.23,-812.45 91.52,-810.97 93.06,-809.76 94.83,-808.92 96.74,-808.48 98.70,-808.42 100.65,-808.65 103.18,-809.31 106.21,-810.53 107.97,-811.41"/>
    </edge>
    <edge id=":20_7" function="internal">
        <lane id=":20_7_0" index="0" disallow="pedestrian tram rail_urban rail rail_electric rail_fast ship" speed="36.11" length="50.03" width="3.50" shape="86.37,-823.46 90.03,-798.72 93.70,-773.97"/>
    </edge>
    <edge id=":20_8" function="internal">
        <lane id=":20_8_0" index="0" disallow="pedestrian tram rail_urban rail rail_electric rail_fast ship" speed="16.00" length="44.95" width="3.50" shape="82.91,-822.92 83.21,-820.61 83.49,-817.14 83.51,-813.62 83.24,-810.10 82.64,-806.60 81.66,-803.17 80.28,-799.85 78.50,-796.73 76.36,-793.86 73.89,-791.26 71.16,-788.97 68.24,-786.98 65.17,-785.26"/>
    </edge>
    <edge id=":20_9" function="internal">
        <lane id=":20_9_0" index="0" disallow="pedestrian tram rail_urban rail rail_electric rail_fast ship" speed="15.22" length="40.57" width="3.50" shape="63.57,-788.37 66.37,-789.94 69.01,-791.75 71.46,-793.81 73.66,-796.13 75.57,-798.70 77.15,-801.49 78.37,-804.45 79.23,-807.53 79.77,-810.69 80.01,-813.89 79.98,-817.09 79.73,-820.28 79.45,-822.40"/>
    </edge>
    <edge id=":20_10" function="internal">
        <lane id=":20_10_0" index="0" disallow="pedestrian tram rail_urban rail rail_electric rail_fast ship" speed="36.11" length="50.02" width="3.50" shape="63.57,-788.37 93.52,-803.79 107.97,-811.41"/>
    </edge>
    <edge id=":20_11" function="internal">
        <lane id=":20_11_0" index="0" disallow="pedestrian tram rail_urban rail rail_electric rail_fast ship" speed="12.09" length="42.22" width="3.50" shape="63.57,-788.37 67.64,-790.24 71.25,-791.54 74.36,-792.30 76.89,-792.63 79.45,-792.64 81.35,-792.37 83.19,-791.84 84.93,-791.03 86.51,-789.95 87.92,-788.65 89.13,-787.16 90.47,-784.99 91.53,-782.66 92.54,-779.62 93.39,-775.88 93.70,-773.97"/>
    </edge>
    <edge id=":21_0" function="internal">
        <lane id=":21_0_0" index="0" disallow="pedestrian tram rail_urban rail rail_electric rail_fast ship" speed="36.11" length="3.16" width="3.50" shape="88.44,-761.67 87.95,-764.79"/>
    </edge>
    <edge id=":21_1" function="internal">
        <lane id=":21_1_0" index="0" disallow="pedestrian tram rail_urban rail rail_electric rail_fast ship" speed="36.11" length="3.27" width="3.50" shape="91.82,-762.05 91.41,-765.29"/>
    </edge>

    <edge id="1750" from="20" to="3" priority="3" type="highway.residential" spreadType="center" length="70.00" shape="87.00,-796.68 3.52,-752.12">
        <lane id="1750_0" index="0" disallow="pedestrian tram rail_urban rail rail_electric rail_fast ship" speed="36.11" length="70.00" width="3.50" customShape="1" shape="65.17,-785.26 50.87,-777.87 3.52,-752.12"/>
    </edge>
    <edge id="1751" from="14" to="20" priority="3" type="highway.residential" spreadType="center" length="70.00" shape="1.93,-755.23 85.35,-799.76">
        <lane id="1751_0" index="0" disallow="pedestrian tram rail_urban rail rail_electric rail_fast ship" speed="36.11" length="70.00" width="3.50" customShape="1" shape="1.93,-755.23 49.25,-780.98 63.58,-788.37"/>
    </edge>
    <edge id="1790" from="19" to="20" priority="3" type="highway.residential" spreadType="center" length="10.31" shape="83.09,-833.37 89.63,-798.51">
        <lane id="1790_0" index="0" disallow="pedestrian tram rail_urban rail rail_electric rail_fast ship" speed="36.11" length="10.31" width="3.50" customShape="1" shape="84.82,-833.64 85.59,-828.54 86.37,-823.45"/>
        <lane id="1790_1" index="1" disallow="pedestrian tram rail_urban rail rail_electric rail_fast ship" speed="36.11" length="10.32" width="3.50" customShape="1" shape="81.35,-833.11 82.13,-828.02 82.91,-822.91"/>
    </edge>
    <edge id="1792" from="20" to="6" priority="3" type="highway.residential" spreadType="center" length="10.33" shape="84.44,-797.80 77.89,-832.61">
        <lane id="1792_0" index="0" disallow="pedestrian tram rail_urban rail rail_electric rail_fast ship" speed="36.11" length="10.33" width="3.50" customShape="1" shape="79.45,-822.40 78.67,-827.49 77.89,-832.61"/>
    </edge>
    <edge id="2051" from="20" to="11" priority="3" type="highway.residential" spreadType="center" length="8.32" shape="87.84,-798.65 95.09,-764.27">
        <lane id="2051_0" index="0" disallow="pedestrian tram rail_urban rail rail_electric rail_fast ship" speed="36.11" length="8.32" width="3.50" customShape="1" shape="93.70,-773.97 94.39,-769.14 94.88,-765.73"/>
    </edge>
    <edge id="2053" from="21" to="20" priority="3" type="highway.residential" spreadType="center" length="8.28" shape="89.89,-763.55 82.67,-797.83">
        <lane id="2053_0" index="0" disallow="pedestrian tram rail_urban rail rail_electric rail_fast ship" speed="36.11" length="8.28" width="3.50" customShape="1" shape="87.95,-764.79 87.46,-768.15 86.77,-772.99"/>
        <lane id="2053_1" index="1" disallow="pedestrian tram rail_urban rail rail_electric rail_fast ship" speed="36.11" length="8.28" width="3.50" customShape="1" shape="91.41,-765.29 90.93,-768.64 90.23,-773.49"/>
    </edge>
    <edge id="2407" from="18" to="20" priority="3" type="highway.residential" spreadType="center" length="70.01" shape="171.41,-841.21 86.93,-796.64">
        <lane id="2407_0" index="0" disallow="pedestrian tram rail_urban rail rail_electric rail_fast ship" speed="36.11" length="70.01" width="3.50" customShape="1" shape="171.41,-841.21 170.93,-840.95 109.61,-808.32"/>
    </edge>
    <edge id="2408" from="20" to="8" priority="3" type="highway.residential" spreadType="center" length="70.00" shape="85.30,-799.74 169.76,-844.30">
        <lane id="2408_0" index="0" disallow="pedestrian tram rail_urban rail rail_electric rail_fast ship" speed="36.11" length="70.00" width="3.50" customShape="1" shape="107.97,-811.41 169.29,-844.05 169.76,-844.30"/>
    </edge>
    <edge id="3702" from="11" to="15" priority="3" type="highway.residential" spreadType="center" length="27.90">
        <lane id="3702_0" index="0" disallow="pedestrian tram rail_urban rail rail_electric rail_fast ship" speed="36.11" length="27.90" width="3.50" customShape="1" shape="95.26,-762.80 95.80,-757.94 96.84,-741.18 97.53,-735.00"/>
    </edge>
    <edge id="3873" from="22" to="21" priority="3" type="highway.residential" spreadType="center" length="27.74">
        <lane id="3873_0" index="0" disallow="pedestrian tram rail_urban rail rail_electric rail_fast ship" speed="36.11" length="27.74" width="3.50" customShape="1" shape="94.07,-734.52 93.02,-740.51 89.11,-757.81 88.44,-761.67"/>
    </edge>
    <edge id="3874" from="22" to="21" priority="3" type="highway.residential" spreadType="center" length="27.63">
        <lane id="3874_0" index="0" disallow="pedestrian tram rail_urban rail rail_electric rail_fast ship" speed="36.11" length="27.63" width="3.50" customShape="1" shape="94.07,-734.52 93.37,-740.78 92.32,-757.54 91.82,-762.05"/>
    </edge>

    <junction id="11" type="priority" x="95.09" y="-764.27" incLanes="2051_0" intLanes=":11_0_0" shape="93.52,-762.61 96.99,-762.99 96.61,-765.97 93.15,-765.48" rightOfWay="edgePriority">
        <request index="0" response="0" foes="0" cont="0"/>
    </junction>
    <junction id="14" type="dead_end" x="1.93" y="-755.23" incLanes="" intLanes="" shape="2.76,-753.70 1.09,-756.77" rightOfWay="edgePriority"/>
    <junction id="15" type="dead_end" x="97.53" y="-735.00" incLanes="3702_0" intLanes="" shape="99.27,-735.19 95.79,-734.80" rightOfWay="edgePriority"/>
    <junction id="18" type="dead_end" x="171.41" y="-841.21" incLanes="" intLanes="" shape="170.58,-842.75 172.23,-839.66" rightOfWay="edgePriority"/>
    <junction id="19" type="dead_end" x="83.09" y="-833.37" incLanes="" intLanes="" shape="79.63,-832.84 86.54,-833.90" rightOfWay="edgePriority"/>
    <junction id="20" type="priority" x="86.14" y="-798.20" incLanes="2053_0 2053_1 2407_0 1790_0 1790_1 1751_0" intLanes=":20_0_0 :20_1_0 :20_2_0 :20_3_0 :20_4_0 :20_5_0 :20_6_0 :20_7_0 :20_8_0 :20_9_0 :20_10_0 :20_11_0" shape="85.04,-772.72 95.43,-774.22 94.93,-781.46 95.64,-787.98 97.54,-793.77 100.64,-798.84 104.94,-803.17 110.44,-806.78 107.15,-812.96 102.15,-810.88 97.87,-810.34 94.33,-811.36 91.52,-813.93 89.45,-818.05 88.10,-823.71 77.72,-822.13 78.26,-814.93 77.59,-808.46 75.71,-802.73 72.61,-797.73 68.30,-793.46 62.76,-789.92 65.98,-783.70 71.03,-785.73 75.33,-786.22 78.88,-785.16 81.68,-782.56 83.73,-778.41">
        <request index="0" response="000000000000" foes="000100010000" cont="0"/>
        <request index="1" response="000000000000" foes="111100110000" cont="0"/>
        <request index="2" response="000011000000" foes="110011110000" cont="0"/>
        <request index="3" response="000010000000" foes="100010000000" cont="0"/>
        <request index="4" response="000110000111" foes="100110000111" cont="0"/>
        <request index="5" response="011110000110" foes="011110000110" cont="0"/>
        <request index="6" response="000000000000" foes="010000000100" cont="0"/>
        <request index="7" response="000000000000" foes="110000111100" cont="0"/>
        <request index="8" response="000000000011" foes="110000110011" cont="0"/>
        <request index="9" response="000000000010" foes="000000100010" cont="0"/>
        <request index="10" response="000111000110" foes="000111100110" cont="0"/>
        <request index="11" response="000110011110" foes="000110011110" cont="0"/>
    </junction>
    <junction id="21" type="priority" x="89.89" y="-763.55" incLanes="3873_0 3874_0" intLanes=":21_0_0 :21_1_0" shape="86.70,-761.48 93.56,-762.24 93.14,-765.53 86.21,-764.54">
        <request index="0" response="00" foes="00" cont="0"/>
        <request index="1" response="00" foes="00" cont="0"/>
    </junction>
    <junction id="22" type="dead_end" x="94.07" y="-734.52" incLanes="" intLanes="" shape="95.79,-734.82 92.34,-734.21 95.80,-734.71 92.33,-734.32"/>
    <junction id="3" type="dead_end" x="3.52" y="-752.12" incLanes="1750_0" intLanes="" shape="4.36,-750.58 2.68,-753.65" rightOfWay="edgePriority"/>
    <junction id="6" type="dead_end" x="77.89" y="-832.61" incLanes="1792_0" intLanes="" shape="76.16,-832.35 79.62,-832.87" rightOfWay="edgePriority"/>
    <junction id="8" type="dead_end" x="169.76" y="-844.30" incLanes="2408_0" intLanes="" shape="168.94,-845.84 170.59,-842.75" rightOfWay="edgePriority"/>

    <connection from="1751" to="1792" fromLane="0" toLane="0" contPos="-4.00" shape="63.58,-788.37 66.37,-789.94 69.01,-791.75 71.46,-793.81 73.66,-796.13 75.57,-798.70 77.15,-801.49 78.37,-804.45 79.23,-807.53 79.77,-810.69 80.01,-813.89 79.98,-817.09 79.73,-820.28 79.45,-822.40" via=":20_9_0" dir="r" state="m"/>
    <connection from="1751" to="2408" fromLane="0" toLane="0" contPos="-4.00" shape="63.58,-788.37 93.52,-803.79 107.97,-811.41" via=":20_10_0" dir="s" state="m"/>
    <connection from="1751" to="2051" fromLane="0" toLane="0" contPos="-4.00" shape="63.58,-788.37 67.64,-790.24 71.25,-791.54 74.36,-792.30 76.89,-792.63 79.45,-792.64 81.35,-792.37 83.19,-791.84 84.93,-791.03 86.51,-789.95 87.92,-788.65 89.13,-787.16 90.47,-784.99 91.53,-782.66 92.54,-779.62 93.39,-775.88 93.70,-773.97" via=":20_11_0" dir="l" state="m"/>
    <connection from="1790" to="2408" fromLane="0" toLane="0" contPos="-4.00" shape="86.37,-823.46 87.13,-819.61 88.10,-816.49 89.19,-814.11 90.23,-812.45 91.52,-810.97 93.06,-809.76 94.83,-808.92 96.74,-808.48 98.70,-808.42 100.65,-808.65 103.18,-809.31 106.21,-810.53 107.97,-811.41" via=":20_6_0" dir="r" state="M"/>
    <connection from="1790" to="2051" fromLane="0" toLane="0" contPos="-4.00" shape="86.37,-823.46 90.03,-798.72 93.70,-773.97" via=":20_7_0" dir="s" state="M"/>
    <connection from="1790" to="1750" fromLane="1" toLane="0" contPos="-4.00" shape="82.91,-822.91 83.21,-820.61 83.49,-817.14 83.51,-813.62 83.24,-810.10 82.64,-806.60 81.66,-803.17 80.28,-799.85 78.50,-796.73 76.36,-793.86 73.89,-791.26 71.16,-788.97 68.24,-786.98 65.17,-785.26" via=":20_8_0" dir="l" state="m"/>
    <connection from="2051" to="3702" fromLane="0" toLane="0" contPos="-4.00" via=":11_0_0" dir="s" state="M"/>
    <connection from="2053" to="1750" fromLane="0" toLane="0" contPos="-4.00" shape="86.77,-772.99 86.05,-776.77 85.13,-779.84 84.09,-782.18 83.09,-783.83 81.86,-785.30 80.39,-786.53 78.69,-787.42 76.84,-787.94 74.92,-788.10 73.01,-787.95 70.50,-787.41 67.48,-786.33 65.17,-785.26" via=":20_0_0" dir="r" state="M"/>
    <connection from="2053" to="1792" fromLane="0" toLane="0" contPos="-4.00" shape="86.77,-772.99 83.11,-797.70 79.45,-822.40" via=":20_1_0" dir="s" state="M"/>
    <connection from="2053" to="2408" fromLane="1" toLane="0" contPos="-4.00" shape="90.23,-773.49 89.75,-778.09 89.66,-781.55 89.84,-785.01 90.31,-788.45 91.11,-791.82 92.27,-795.08 93.80,-798.19 95.67,-801.11 97.87,-803.78 100.35,-806.21 103.06,-808.37 105.95,-810.27 107.97,-811.41" via=":20_2_0" dir="l" state="m"/>
    <connection from="2407" to="2051" fromLane="0" toLane="0" contPos="-4.00" shape="109.61,-808.32 107.79,-807.29 105.15,-805.55 102.70,-803.60 100.48,-801.42 98.51,-799.02 96.85,-796.41 95.49,-793.63 94.46,-790.70 93.74,-787.66 93.32,-784.55 93.17,-781.39 93.25,-778.23 93.70,-773.97" via=":20_3_0" dir="r" state="m"/>
    <connection from="2407" to="1750" fromLane="0" toLane="0" contPos="-4.00" shape="109.61,-808.32 95.14,-800.69 65.17,-785.26" via=":20_4_0" dir="s" state="m"/>
    <connection from="2407" to="1792" fromLane="0" toLane="0" contPos="-4.00" shape="109.61,-808.32 105.58,-806.37 101.98,-805.00 98.89,-804.18 96.35,-803.81 93.79,-803.78 91.89,-804.03 90.04,-804.55 88.30,-805.35 86.71,-806.43 85.30,-807.74 84.09,-809.22 82.74,-811.40 81.67,-813.73 80.65,-816.76 79.77,-820.50 79.45,-822.40" via=":20_5_0" dir="l" state="m"/>
    <connection from="3873" to="2053" fromLane="0" toLane="0" contPos="-4.00" via=":21_0_0" dir="s" state="M"/>
    <connection from="3874" to="2053" fromLane="0" toLane="1" contPos="-4.00" via=":21_1_0" dir="s" state="M"/>

    <connection from=":11_0" to="3702" fromLane="0" toLane="0" dir="s" state="M"/>
    <connection from=":20_0" to="1750" fromLane="0" toLane="0" dir="r" state="M"/>
    <connection from=":20_1" to="1792" fromLane="0" toLane="0" dir="s" state="M"/>
    <connection from=":20_2" to="2408" fromLane="0" toLane="0" dir="l" state="M"/>
    <connection from=":20_3" to="2051" fromLane="0" toLane="0" dir="r" state="M"/>
    <connection from=":20_4" to="1750" fromLane="0" toLane="0" dir="s" state="M"/>
    <connection from=":20_5" to="1792" fromLane="0" toLane="0" dir="l" state="M"/>
    <connection from=":20_6" to="2408" fromLane="0" toLane="0" dir="r" state="M"/>
    <connection from=":20_7" to="2051" fromLane="0" toLane="0" dir="s" state="M"/>
    <connection from=":20_8" to="1750" fromLane="0" toLane="0" dir="l" state="M"/>
    <connection from=":20_9" to="1792" fromLane="0" toLane="0" dir="r" state="M"/>
    <connection from=":20_10" to="2408" fromLane="0" toLane="0" dir="s" state="M"/>
    <connection from=":20_11" to="2051" fromLane="0" toLane="0" dir="l" state="M"/>
    <connection from=":21_0" to="2053" fromLane="0" toLane="0" dir="s" state="M"/>
    <connection from=":21_1" to="2053" fromLane="0" toLane="1" dir="s" state="M"/>

</net>