<routes>
	<vehicle depart="0.1" departLane="0" departPos="53.65774320046774" departSpeed="3.8430015" id="35" type="passenger">
		<route edges="69262 69561"/>
	</vehicle>
	<vehicle depart="0.1" departLane="0" departPos="63.99268872951046" departSpeed="0.0" id="38" type="passenger">
		<route edges="69356 69815"/>
	</vehicle>
	<vehicle depart="0.1" departLane="0" departPos="13.02477127891294" departSpeed="2.3822222" id="323" type="passenger">
		<route edges=":80_2 69561"/>
	</vehicle>
	<vehicle depart="0.1" departLane="0" departPos="56.491310555576064" departSpeed="0.0" id="332" type="passenger">
		<route edges="69356 69815"/>
	</vehicle>
	<vehicle depart="0.1" departLane="0" departPos="44.139737056813786" departSpeed="1.585371" id="336" type="passenger">
		<route edges="69262 69561"/>
	</vehicle>
	<vehicle depart="0.1" departLane="0" departPos="22.110444268099606" departSpeed="0.99631249" id="349" type="passenger">
		<route edges="69262 69561"/>
	</vehicle>
	<vehicle depart="0.1" departLane="0" departPos="5.1188225798794" departSpeed="5.6809557" id="368" type="passenger">
		<route edges=":80_5 69561"/>
	</vehicle>
	<vehicle depart="0.1" departLane="0" departPos="48.99118973092682" departSpeed="1.5712404e-05" id="333" type="motorcycle">
		<route edges="69356 69815"/>
	</vehicle>
</routes>
