<routes>
	<vehicle depart="0.1" departLane="0" departPos="15.169436163638515" departSpeed="2.3027476" id="311" type="passenger">
		<route edges=":73_4 20186"/>
	</vehicle>
	<vehicle depart="0.1" departLane="0" departPos="16.111306748351446" departSpeed="2.022384" id="324" type="passenger">
		<route edges="20183 20186"/>
	</vehicle>
	<vehicle depart="0.1" departLane="0" departPos="68.78276125157394" departSpeed="0.0" id="334" type="passenger">
		<route edges="19813 19810"/>
	</vehicle>
	<vehicle depart="0.1" departLane="0" departPos="39.07426067631325" departSpeed="0.0099343485" id="340" type="passenger">
		<route edges="19811 20183"/>
	</vehicle>
	<vehicle depart="0.1" departLane="0" departPos="61.29623369399796" departSpeed="6.7322724e-05" id="343" type="passenger">
		<route edges="19813 19810"/>
	</vehicle>
	<vehicle depart="0.1" departLane="0" departPos="9.218190256160469" departSpeed="0.97555383" id="371" type="passenger">
		<route edges="19813 19810"/>
	</vehicle>
	<vehicle depart="0.1" departLane="0" departPos="9.118112399113862" departSpeed="1.9727005" id="332" type="motorcycle">
		<route edges="20183 20186"/>
	</vehicle>
	<vehicle depart="0.1" departLane="0" departPos="10.188705407551065" departSpeed="9.1941774" id="32" type="truck">
		<route edges="20182 19810"/>
	</vehicle>
</routes>
