<!-- generated on Tue Feb  9 22:15:20 2021 by Eclipse SUMO netconvert Version 1.8.0
<configuration xmlns:xsi="http://www.w3.org/2001/XMLSchema-instance" xsi:noNamespaceSchemaLocation="http://sumo.dlr.de/xsd/netconvertConfiguration.xsd">

    <input>
        <node-files value="./converted_scenarios/scenario-factory/FRA_MoissyCramayel-4_1_I-1-1/FRA_MoissyCramayel-4_1_I-1-1.nod.xml"/>
        <edge-files value="./converted_scenarios/scenario-factory/FRA_MoissyCramayel-4_1_I-1-1/FRA_MoissyCramayel-4_1_I-1-1.edg.xml"/>
        <connection-files value="./converted_scenarios/scenario-factory/FRA_MoissyCramayel-4_1_I-1-1/FRA_MoissyCramayel-4_1_I-1-1.con.xml"/>
        <tllogic-files value="./converted_scenarios/scenario-factory/FRA_MoissyCramayel-4_1_I-1-1/FRA_MoissyCramayel-4_1_I-1-1.tll.xml"/>
        <type-files value="/home/zen/commonroad-interactive-benchmarks/install/commonroad-map-tool/crmapconverter/sumo_map/templates/DEU.typ.xml"/>
    </input>

    <output>
        <output-file value="./converted_scenarios/scenario-factory/FRA_MoissyCramayel-4_1_I-1-1/FRA_MoissyCramayel-4_1_I-1-1.net.xml"/>
    </output>

    <processing>
        <geometry.remove.keep-edges.explicit value="true"/>
        <geometry.avoid-overlap value="true"/>
        <offset.disable-normalization value="true"/>
    </processing>

    <junctions>
        <no-turnarounds value="true"/>
        <junctions.internal-link-detail value="20"/>
    </junctions>

    <report>
        <aggregate-warnings value="5"/>
    </report>

    <random_number>
        <seed value="1234"/>
    </random_number>

</configuration>
--><net xmlns:xsi="http://www.w3.org/2001/XMLSchema-instance" version="1.6" junctionCornerDetail="5" junctionLinkDetail="20" limitTurnSpeed="5.50" xsi:noNamespaceSchemaLocation="http://sumo.dlr.de/xsd/net_file.xsd">

    <location netOffset="0.00,0.00" convBoundary="-808.17,-771.76,-639.32,-610.21" origBoundary="-808.17,-771.76,-639.32,-610.21" projParameter="!"/>

    <type id="highway.bridleway" priority="1" speed="2.78" allow="pedestrian" oneway="1" width="2.00"/>
    <type id="highway.bus_guideway" priority="1" speed="27.78" allow="bus" oneway="1"/>
    <type id="highway.cycleway" priority="1" speed="8.33" allow="bicycle" oneway="0" width="1.00"/>
    <type id="highway.footway" priority="1" speed="2.78" allow="pedestrian" oneway="1" width="2.00"/>
    <type id="highway.ford" priority="1" speed="2.78" allow="army" oneway="0"/>
    <type id="highway.living_street" priority="2" speed="2.78" disallow="tram rail_urban rail rail_electric rail_fast ship" oneway="0"/>
    <type id="highway.motorway" priority="14" speed="39.44" allow="private emergency authority army vip passenger hov taxi bus coach delivery truck trailer motorcycle evehicle custom1 custom2" oneway="1"/>
    <type id="highway.motorway_link" priority="9" speed="22.22" allow="private emergency authority army vip passenger hov taxi bus coach delivery truck trailer motorcycle evehicle custom1 custom2" oneway="1"/>
    <type id="highway.path" priority="1" speed="2.78" allow="pedestrian bicycle" oneway="0" width="2.00"/>
    <type id="highway.pedestrian" priority="1" speed="2.78" allow="pedestrian" oneway="1" width="2.00"/>
    <type id="highway.primary" priority="12" speed="27.78" disallow="pedestrian tram rail_urban rail rail_electric rail_fast ship" oneway="0"/>
    <type id="highway.primary_link" priority="7" speed="22.22" disallow="pedestrian tram rail_urban rail rail_electric rail_fast ship" oneway="0"/>
    <type id="highway.raceway" priority="15" speed="83.33" allow="vip" oneway="0"/>
    <type id="highway.residential" priority="3" speed="13.89" disallow="pedestrian tram rail_urban rail rail_electric rail_fast ship" oneway="0"/>
    <type id="highway.secondary" priority="11" speed="27.78" disallow="pedestrian tram rail_urban rail rail_electric rail_fast ship" oneway="0"/>
    <type id="highway.secondary_link" priority="6" speed="22.22" disallow="pedestrian tram rail_urban rail rail_electric rail_fast ship" oneway="0"/>
    <type id="highway.service" priority="1" speed="5.56" allow="pedestrian delivery bicycle" oneway="0"/>
    <type id="highway.stairs" priority="1" speed="1.39" allow="pedestrian" oneway="1" width="2.00"/>
    <type id="highway.step" priority="1" speed="1.39" allow="pedestrian" oneway="1" width="2.00"/>
    <type id="highway.steps" priority="1" speed="1.39" allow="pedestrian" oneway="1" width="2.00"/>
    <type id="highway.tertiary" priority="10" speed="22.22" disallow="pedestrian tram rail_urban rail rail_electric rail_fast ship" oneway="0"/>
    <type id="highway.tertiary_link" priority="5" speed="22.22" disallow="pedestrian tram rail_urban rail rail_electric rail_fast ship" oneway="0"/>
    <type id="highway.track" priority="1" speed="5.56" allow="pedestrian motorcycle moped bicycle" oneway="0"/>
    <type id="highway.trunk" priority="13" speed="27.78" disallow="pedestrian bicycle tram rail_urban rail rail_electric rail_fast ship" oneway="0"/>
    <type id="highway.trunk_link" priority="8" speed="22.22" disallow="pedestrian bicycle tram rail_urban rail rail_electric rail_fast ship" oneway="0"/>
    <type id="highway.unclassified" priority="4" speed="13.89" disallow="pedestrian tram rail_urban rail rail_electric rail_fast ship" oneway="0"/>
    <type id="highway.unsurfaced" priority="1" speed="8.33" disallow="tram rail_urban rail rail_electric rail_fast ship" oneway="0"/>
    <type id="railway.highspeed" priority="21" speed="69.44" allow="rail_fast" oneway="1"/>
    <type id="railway.light_rail" priority="19" speed="27.78" allow="rail_urban" oneway="1"/>
    <type id="railway.preserved" priority="16" speed="27.78" allow="rail" oneway="1"/>
    <type id="railway.rail" priority="20" speed="44.44" allow="rail" oneway="1"/>
    <type id="railway.subway" priority="18" speed="27.78" allow="rail_urban" oneway="1"/>
    <type id="railway.tram" priority="17" speed="13.89" allow="tram" oneway="1"/>

    <edge id=":48_0" function="internal">
        <lane id=":48_0_0" index="0" disallow="pedestrian tram rail_urban rail rail_electric rail_fast ship" speed="36.11" length="3.01" width="3.50" shape="-658.78,-682.90 -655.82,-682.36"/>
    </edge>
    <edge id=":62_0" function="internal">
        <lane id=":62_0_0" index="0" disallow="pedestrian tram rail_urban rail rail_electric rail_fast ship" speed="36.11" length="3.00" width="3.50" shape="-656.45,-678.92 -659.40,-679.45"/>
    </edge>
    <edge id=":67_0" function="internal">
        <lane id=":67_0_0" index="0" disallow="pedestrian tram rail_urban rail rail_electric rail_fast ship" speed="21.99" length="32.72" width="3.50" shape="-689.73,-645.04 -691.61,-645.84 -694.48,-646.86 -697.42,-647.66 -700.40,-648.25 -704.46,-648.72 -708.55,-648.86 -712.64,-648.69 -716.73,-648.24 -721.81,-647.35"/>
    </edge>
    <edge id=":67_1" function="internal">
        <lane id=":67_1_0" index="0" disallow="pedestrian tram rail_urban rail rail_electric rail_fast ship" speed="15.53" length="31.36" width="3.50" shape="-689.73,-645.04 -692.86,-646.63 -695.80,-648.50 -698.53,-650.66 -700.98,-653.12 -703.12,-655.87 -704.90,-658.86 -706.30,-662.05 -707.33,-665.37 -708.02,-668.79"/>
    </edge>
    <edge id=":67_2" function="internal">
        <lane id=":67_2_0" index="0" disallow="pedestrian tram rail_urban rail rail_electric rail_fast ship" speed="14.60" length="27.90" width="3.50" shape="-704.56,-669.33 -703.95,-666.26 -703.03,-663.30 -701.79,-660.48 -700.22,-657.84 -698.33,-655.42 -696.15,-653.24 -693.73,-651.32 -691.09,-649.66 -688.28,-648.23"/>
    </edge>
    <edge id=":67_3" function="internal">
        <lane id=":67_3_0" index="0" disallow="pedestrian tram rail_urban rail rail_electric rail_fast ship" speed="12.01" length="31.54" width="3.50" shape="-704.56,-669.33 -704.39,-668.02 -704.25,-665.45 -704.41,-662.82 -704.94,-660.24 -705.38,-658.93 -705.92,-657.68 -706.57,-656.48 -707.33,-655.35 -708.18,-654.30 -709.14,-653.30 -711.18,-651.64 -713.41,-650.26 -715.76,-649.17 -718.17,-648.30 -721.81,-647.35"/>
    </edge>
    <edge id=":67_4" function="internal">
        <lane id=":67_4_0" index="0" disallow="pedestrian tram rail_urban rail rail_electric rail_fast ship" speed="10.95" length="26.17" width="3.50" shape="-722.54,-650.77 -719.38,-651.59 -717.32,-652.32 -715.34,-653.24 -713.47,-654.36 -711.78,-655.73 -711.01,-656.50 -710.31,-657.34 -709.70,-658.24 -709.16,-659.19 -708.72,-660.19 -708.36,-661.22 -707.91,-663.35 -707.76,-665.53 -707.88,-667.70 -708.02,-668.79"/>
    </edge>
    <edge id=":67_5" function="internal">
        <lane id=":67_5_0" index="0" disallow="pedestrian tram rail_urban rail rail_electric rail_fast ship" speed="22.73" length="34.95" width="3.50" shape="-722.54,-650.77 -717.17,-651.72 -712.83,-652.19 -708.47,-652.36 -704.10,-652.21 -699.77,-651.69 -696.56,-651.05 -693.40,-650.19 -690.31,-649.09 -688.28,-648.23"/>
    </edge>
    <edge id=":68_0" function="internal">
        <lane id=":68_0_0" index="0" disallow="pedestrian tram rail_urban rail rail_electric rail_fast ship" speed="10.16" length="29.47" width="3.50" shape="-686.97,-684.46 -688.20,-684.67 -691.97,-685.08 -694.42,-685.11 -696.84,-684.87 -697.96,-684.63 -699.06,-684.30 -700.09,-683.87 -701.05,-683.34 -701.90,-682.70 -702.66,-681.94 -703.30,-681.09 -703.83,-680.14 -704.25,-679.11 -704.56,-678.02 -704.78,-676.91 -704.97,-674.49 -704.89,-672.04 -704.60,-669.56"/>
    </edge>
    <edge id=":68_1" function="internal">
        <lane id=":68_1_0" index="0" disallow="pedestrian tram rail_urban rail rail_electric rail_fast ship" speed="36.11" length="33.30" width="3.50" shape="-686.97,-684.46 -703.36,-687.44 -719.73,-690.42"/>
    </edge>
    <edge id=":68_2" function="internal">
        <lane id=":68_2_0" index="0" disallow="pedestrian tram rail_urban rail rail_electric rail_fast ship" speed="36.11" length="33.29" width="3.50" shape="-719.10,-693.86 -702.73,-690.89 -686.35,-687.91"/>
    </edge>
    <edge id=":68_3" function="internal">
        <lane id=":68_3_0" index="0" disallow="pedestrian tram rail_urban rail rail_electric rail_fast ship" speed="13.27" length="30.08" width="3.50" shape="-719.10,-693.86 -717.83,-693.55 -716.59,-693.10 -715.42,-692.50 -714.33,-691.79 -713.30,-690.96 -711.59,-689.17 -710.17,-687.18 -708.99,-685.06 -707.59,-681.83 -706.50,-678.51 -705.41,-674.06 -704.60,-669.56"/>
    </edge>
    <edge id=":68_4" function="internal">
        <lane id=":68_4_0" index="0" disallow="pedestrian tram rail_urban rail rail_electric rail_fast ship" speed="12.25" length="25.79" width="3.50" shape="-708.05,-669.01 -708.78,-673.09 -709.73,-677.11 -710.65,-680.06 -711.81,-682.93 -712.76,-684.76 -713.89,-686.48 -715.25,-688.03 -716.03,-688.71 -716.87,-689.30 -717.78,-689.79 -718.73,-690.17 -719.73,-690.42"/>
    </edge>
    <edge id=":68_5" function="internal">
        <lane id=":68_5_0" index="0" disallow="pedestrian tram rail_urban rail rail_electric rail_fast ship" speed="11.26" length="36.41" width="3.50" shape="-708.06,-669.01 -708.40,-671.93 -708.50,-674.84 -708.28,-677.74 -708.01,-679.17 -707.62,-680.57 -707.08,-681.92 -706.38,-683.20 -705.52,-684.37 -704.50,-685.41 -703.35,-686.30 -702.09,-687.03 -700.75,-687.60 -699.36,-688.03 -697.94,-688.34 -695.04,-688.64 -692.13,-688.61 -687.79,-688.15 -686.35,-687.91"/>
    </edge>
    <edge id=":69_0" function="internal">
        <lane id=":69_0_0" index="0" disallow="pedestrian tram rail_urban rail rail_electric rail_fast ship" speed="30.33" length="29.39" width="3.50" shape="-756.82,-627.19 -757.72,-629.51 -758.13,-631.62 -758.29,-633.76 -758.20,-636.98 -757.53,-644.48 -757.52,-647.71 -757.80,-649.84 -758.08,-650.88 -758.46,-651.88 -758.96,-652.83 -759.57,-653.71 -760.30,-654.51 -761.14,-655.22"/>
    </edge>
    <edge id=":69_1" function="internal">
        <lane id=":69_1_0" index="0" disallow="pedestrian tram rail_urban rail rail_electric rail_fast ship" speed="12.54" length="44.40" width="3.50" shape="-759.74,-625.55 -760.22,-625.91 -761.29,-627.20 -762.02,-628.70 -762.39,-630.26 -762.47,-631.78 -762.34,-633.22 -762.06,-634.60 -761.68,-635.92 -761.22,-637.20 -760.15,-639.61 -758.30,-642.97 -758.21,-643.11 -758.16,-643.20 -756.50,-645.28 -754.15,-646.37 -751.60,-645.70 -751.52,-645.64 -751.08,-645.57 -750.27,-645.59 -747.23,-645.88 -742.05,-646.72 -734.74,-648.17"/>
    </edge>
    <edge id=":69_2" function="internal">
        <lane id=":69_2_0" index="0" disallow="pedestrian tram rail_urban rail rail_electric rail_fast ship" speed="36.11" length="0.10" width="3.50" shape="-753.81,-628.99 -753.78,-628.89"/>
    </edge>
    <edge id=":69_3" function="internal">
        <lane id=":69_3_0" index="0" disallow="pedestrian tram rail_urban rail rail_electric rail_fast ship" speed="10.23" length="29.26" width="3.50" shape="-734.01,-644.75 -736.34,-644.23 -740.88,-643.02 -744.18,-641.92 -747.36,-640.59 -749.34,-639.54 -751.19,-638.32 -751.99,-637.66 -752.73,-636.94 -753.38,-636.18 -753.91,-635.37 -754.30,-634.53 -754.56,-633.66 -754.68,-632.77 -754.66,-631.84 -754.50,-630.90 -754.21,-629.94 -753.78,-628.89"/>
    </edge>
    <edge id=":69_4" function="internal">
        <lane id=":69_4_0" index="0" disallow="pedestrian tram rail_urban rail rail_electric rail_fast ship" speed="17.02" length="29.89" width="3.50" shape="-734.01,-644.75 -736.33,-644.45 -738.62,-644.47 -740.89,-644.78 -744.22,-645.64 -747.44,-646.86 -750.54,-648.35 -754.52,-650.64 -759.27,-653.84 -761.14,-655.22"/>
    </edge>
    <edge id=":69_5" function="internal">
        <lane id=":69_5_0" index="0" disallow="pedestrian tram rail_urban rail rail_electric rail_fast ship" speed="16.15" length="26.96" width="3.50" shape="-759.08,-658.05 -757.29,-656.73 -752.86,-653.73 -749.20,-651.59 -746.39,-650.21 -743.51,-649.07 -740.55,-648.27 -738.61,-647.98 -736.67,-647.93 -734.74,-648.17"/>
    </edge>
    <edge id=":69_6" function="internal">
        <lane id=":69_6_0" index="0" disallow="pedestrian tram rail_urban rail rail_electric rail_fast ship" speed="31.92" length="30.77" width="3.50" shape="-759.08,-658.05 -758.01,-657.15 -757.12,-656.18 -756.35,-655.11 -755.73,-653.95 -755.25,-652.75 -754.90,-651.50 -754.53,-649.10 -754.46,-645.60 -755.00,-637.88 -755.04,-634.71 -754.87,-632.70 -754.48,-630.77 -753.78,-628.89"/>
    </edge>
    <edge id=":70_0" function="internal">
        <lane id=":70_0_0" index="0" disallow="pedestrian tram rail_urban rail rail_electric rail_fast ship" speed="36.11" length="12.32" width="3.50" shape="-719.97,-690.46 -725.57,-691.69 -731.97,-693.24"/>
    </edge>
    <edge id=":70_1" function="internal">
        <lane id=":70_1_0" index="0" disallow="pedestrian tram rail_urban rail rail_electric rail_fast ship" speed="12.38" length="11.04" width="3.50" shape="-729.42,-698.21 -727.31,-696.83 -724.94,-695.62 -722.45,-694.68 -719.88,-694.01 -719.35,-693.91"/>
    </edge>
    <edge id=":71_0" function="internal">
        <lane id=":71_0_0" index="0" disallow="pedestrian tram rail_urban rail rail_electric rail_fast ship" speed="36.11" length="21.32" width="3.50" shape="-736.86,-694.28 -744.24,-694.67 -749.45,-694.75 -752.55,-695.09 -755.08,-695.69 -757.93,-696.64"/>
    </edge>
    <edge id=":71_1" function="internal">
        <lane id=":71_1_0" index="0" disallow="pedestrian tram rail_urban rail rail_electric rail_fast ship" speed="9.68" length="17.10" width="3.50" shape="-742.65,-699.73 -743.40,-698.74 -744.57,-697.55 -745.91,-696.54 -747.39,-695.77 -748.98,-695.27 -750.64,-695.06 -752.31,-695.12 -754.51,-695.53 -757.93,-696.64"/>
    </edge>
    <edge id=":72_0" function="internal">
        <lane id=":72_0_0" index="0" disallow="pedestrian tram rail_urban rail rail_electric rail_fast ship" speed="36.11" length="10.17" width="3.50" shape="-757.98,-696.81 -758.72,-697.12 -764.35,-699.90 -766.80,-700.79 -767.27,-700.90"/>
    </edge>
    <edge id=":72_1" function="internal">
        <lane id=":72_1_0" index="0" disallow="pedestrian tram rail_urban rail rail_electric rail_fast ship" speed="9.45" length="10.05" width="3.50" shape="-757.96,-696.88 -759.26,-697.72 -760.50,-698.84 -761.54,-700.14 -762.38,-701.59 -763.61,-704.86"/>
    </edge>
    <edge id=":73_0" function="internal">
        <lane id=":73_0_0" index="0" disallow="pedestrian tram rail_urban rail rail_electric rail_fast ship" speed="7.64" length="5.57" width="3.50" shape="-763.48,-704.91 -763.62,-705.45 -763.76,-707.05 -763.65,-708.65 -763.31,-710.22 -763.24,-710.40"/>
    </edge>
    <edge id=":73_1" function="internal">
        <lane id=":73_1_0" index="0" disallow="pedestrian tram rail_urban rail rail_electric rail_fast ship" speed="7.27" length="5.52" width="3.50" shape="-768.06,-707.52 -766.76,-707.94 -765.35,-708.81 -764.15,-709.96 -763.65,-710.63"/>
    </edge>
    <edge id=":74_0" function="internal">
        <lane id=":74_0_0" index="0" disallow="pedestrian tram rail_urban rail rail_electric rail_fast ship" speed="36.11" length="23.63" width="3.50" shape="-774.14,-702.23 -782.55,-703.34 -793.08,-704.64 -797.56,-705.38"/>
    </edge>
    <edge id=":74_1" function="internal">
        <lane id=":74_1_0" index="0" disallow="pedestrian tram rail_urban rail rail_electric rail_fast ship" speed="36.11" length="23.00" width="3.49" shape="-796.94,-708.82 -789.38,-707.61 -783.31,-706.96 -777.71,-706.72 -774.08,-706.82"/>
    </edge>
    <edge id=":75_0" function="internal">
        <lane id=":75_0_0" index="0" disallow="pedestrian tram rail_urban rail rail_electric rail_fast ship" speed="11.91" length="6.05" width="3.49" shape="-760.68,-715.79 -760.22,-716.69 -759.22,-719.16 -758.80,-720.70 -758.72,-721.47"/>
    </edge>
    <edge id=":75_1" function="internal">
        <lane id=":75_1_0" index="0" disallow="pedestrian tram rail_urban rail rail_electric rail_fast ship" speed="7.39" length="5.87" width="3.50" shape="-760.19,-715.52 -759.81,-715.93 -758.52,-716.95 -757.09,-717.74 -755.55,-718.31 -755.17,-718.40"/>
    </edge>
    <edge id=":76_0" function="internal">
        <lane id=":76_0_0" index="0" disallow="pedestrian tram rail_urban rail rail_electric rail_fast ship" speed="36.11" length="7.07" width="3.50" shape="-739.39,-709.87 -736.33,-705.24 -735.38,-704.05"/>
    </edge>
    <edge id=":76_1" function="internal">
        <lane id=":76_1_0" index="0" disallow="pedestrian tram rail_urban rail rail_electric rail_fast ship" speed="5.87" length="5.53" width="3.50" shape="-740.03,-709.32 -739.80,-708.13 -739.80,-706.45 -740.08,-704.80 -740.39,-703.89"/>
    </edge>
    <edge id=":77_0" function="internal">
        <lane id=":77_0_0" index="0" disallow="pedestrian tram rail_urban rail rail_electric rail_fast ship" speed="14.26" length="5.76" width="3.50" shape="-748.06,-723.17 -747.23,-721.30 -745.41,-718.06"/>
    </edge>
    <edge id=":77_1" function="internal">
        <lane id=":77_1_0" index="0" disallow="pedestrian tram rail_urban rail rail_electric rail_fast ship" speed="6.40" length="4.96" width="3.50" shape="-750.84,-718.84 -749.90,-718.77 -748.31,-718.42 -746.80,-717.82 -746.14,-717.43"/>
    </edge>
    <edge id=":78_0" function="internal">
        <lane id=":78_0_0" index="0" disallow="pedestrian tram rail_urban rail rail_electric rail_fast ship" speed="36.11" length="32.38" width="3.50" shape="-758.35,-732.59 -758.23,-737.13 -758.50,-742.69 -759.39,-750.72 -760.43,-759.76 -760.73,-764.84"/>
    </edge>
    <edge id=":78_1" function="internal">
        <lane id=":78_1_0" index="0" disallow="pedestrian tram rail_urban rail rail_electric rail_fast ship" speed="36.11" length="36.27" width="3.50" shape="-757.23,-764.77 -756.85,-759.37 -756.05,-753.35 -754.63,-745.90 -752.62,-737.54 -750.29,-729.26"/>
    </edge>

    <edge id="71717" from="70" to="71" priority="3" type="highway.residential" spreadType="center" length="4.96">
        <lane id="71717_0" index="0" disallow="pedestrian tram rail_urban rail rail_electric rail_fast ship" speed="36.11" length="4.96" width="3.50" customShape="1" shape="-731.92,-693.85 -736.86,-694.28"/>
    </edge>
    <edge id="71722" from="75" to="78" priority="3" type="highway.residential" spreadType="center" length="11.13" shape="-758.26,-717.78 -758.40,-748.00">
        <lane id="71722_0" index="0" disallow="pedestrian tram rail_urban rail rail_electric rail_fast ship" speed="36.11" length="11.13" width="3.49" customShape="1" shape="-758.69,-721.47 -758.69,-721.88 -758.69,-722.01 -758.51,-729.76 -758.36,-732.34 -758.35,-732.46 -758.35,-732.59"/>
    </edge>
    <edge id="71724" from="76" to="70" priority="3" type="highway.residential" spreadType="center" length="8.33">
        <lane id="71724_0" index="0" disallow="pedestrian tram rail_urban rail rail_electric rail_fast ship" speed="36.11" length="8.33" width="3.50" customShape="1" shape="-735.45,-704.00 -734.31,-702.71 -729.95,-697.75"/>
    </edge>
    <edge id="71740" from="75" to="77" priority="3" type="highway.residential" spreadType="center" length="4.34">
        <lane id="71740_0" index="0" disallow="pedestrian tram rail_urban rail rail_electric rail_fast ship" speed="36.11" length="4.34" width="3.50" customShape="1" shape="-755.18,-718.48 -753.81,-718.69 -750.89,-719.16"/>
    </edge>
    <edge id="71742" from="42" to="69" priority="3" type="highway.residential" spreadType="center" length="32.65" shape="-729.68,-610.21 -751.22,-642.26">
        <lane id="71742_0" index="0" disallow="pedestrian tram rail_urban rail rail_electric rail_fast ship" speed="36.11" length="32.65" width="3.49" customShape="1" shape="-729.68,-610.21 -731.54,-611.33 -735.42,-613.23 -743.90,-616.78 -747.81,-618.65 -750.59,-620.31 -752.74,-621.95 -754.65,-623.86 -755.94,-625.60 -756.82,-627.19"/>
    </edge>
    <edge id="71743" from="69" to="16" priority="3" type="highway.residential" spreadType="center" length="30.88" shape="-748.31,-644.20 -727.83,-613.19">
        <lane id="71743_0" index="0" disallow="pedestrian tram rail_urban rail rail_electric rail_fast ship" speed="36.11" length="30.88" width="3.50" customShape="1" shape="-753.78,-628.89 -752.93,-627.38 -751.81,-625.92 -750.08,-624.29 -748.12,-622.88 -745.52,-621.41 -741.80,-619.69 -733.55,-616.23 -729.69,-614.30 -727.83,-613.19"/>
    </edge>
    <edge id="71745" from="63" to="62" priority="3" type="highway.residential" spreadType="center" length="16.77">
        <lane id="71745_0" index="0" disallow="pedestrian tram rail_urban rail rail_electric rail_fast ship" speed="36.11" length="16.77" width="3.50" customShape="1" shape="-639.95,-675.92 -648.94,-677.55 -656.45,-678.92"/>
    </edge>
    <edge id="71746" from="48" to="49" priority="3" type="highway.residential" spreadType="center" length="16.77">
        <lane id="71746_0" index="0" disallow="pedestrian tram rail_urban rail rail_electric rail_fast ship" speed="36.11" length="16.77" width="3.50" customShape="1" shape="-655.82,-682.36 -648.31,-681.00 -639.32,-679.36"/>
    </edge>
    <edge id="71756" from="74" to="73" priority="3" type="highway.residential" spreadType="center" length="6.04">
        <lane id="71756_0" index="0" disallow="pedestrian tram rail_urban rail rail_electric rail_fast ship" speed="36.11" length="6.04" width="3.49" customShape="1" shape="-774.01,-706.44 -768.46,-707.42 -768.06,-707.49"/>
    </edge>
    <edge id="71760" from="60" to="78" priority="3" type="highway.residential" spreadType="center" length="6.19" shape="-756.58,-770.90 -754.90,-747.90">
        <lane id="71760_0" index="0" disallow="pedestrian tram rail_urban rail rail_electric rail_fast ship" speed="36.11" length="6.19" width="3.50" customShape="1" shape="-756.58,-770.90 -756.81,-769.94 -757.19,-767.45 -757.24,-764.77"/>
    </edge>
    <edge id="71761" from="78" to="58" priority="3" type="highway.residential" spreadType="center" length="6.99" shape="-758.38,-747.66 -759.97,-771.76">
        <lane id="71761_0" index="0" disallow="pedestrian tram rail_urban rail rail_electric rail_fast ship" speed="36.11" length="6.99" width="3.50" customShape="1" shape="-760.73,-764.84 -760.68,-767.74 -760.24,-770.62 -759.97,-771.76"/>
    </edge>
    <edge id="71763" from="68" to="70" priority="3" type="highway.residential" spreadType="center" length="0.26" shape="-704.95,-681.00 -729.14,-693.88">
        <lane id="71763_0" index="0" disallow="pedestrian tram rail_urban rail rail_electric rail_fast ship" speed="36.11" length="0.26" width="3.50" customShape="1" shape="-719.73,-690.42 -719.86,-690.44 -719.99,-690.47"/>
    </edge>
    <edge id="71764" from="70" to="68" priority="3" type="highway.residential" spreadType="center" length="0.29" shape="-727.50,-696.96 -703.31,-684.08">
        <lane id="71764_0" index="0" disallow="pedestrian tram rail_urban rail rail_electric rail_fast ship" speed="36.11" length="0.29" width="3.50" customShape="1" shape="-719.35,-693.91 -719.23,-693.89 -719.07,-693.85"/>
    </edge>
    <edge id="71766" from="62" to="68" priority="3" type="highway.residential" spreadType="center" length="28.03" shape="-657.93,-679.18 -704.26,-680.79">
        <lane id="71766_0" index="0" disallow="pedestrian tram rail_urban rail rail_electric rail_fast ship" speed="36.11" length="28.03" width="3.50" customShape="1" shape="-659.40,-679.45 -671.34,-681.62 -684.76,-684.06 -685.87,-684.26 -686.98,-684.46"/>
    </edge>
    <edge id="71769" from="71" to="72" priority="3" type="highway.residential" spreadType="center" length="0.10">
        <lane id="71769_0" index="0" disallow="pedestrian tram rail_urban rail rail_electric rail_fast ship" speed="36.11" length="0.10" width="3.50" customShape="1" shape="-757.93,-696.64 -758.03,-696.67"/>
    </edge>
    <edge id="71789" from="76" to="71" priority="3" type="highway.residential" spreadType="center" length="4.72">
        <lane id="71789_0" index="0" disallow="pedestrian tram rail_urban rail rail_electric rail_fast ship" speed="36.11" length="4.72" width="3.50" customShape="1" shape="-740.03,-703.66 -741.99,-700.63 -742.60,-699.70"/>
    </edge>
    <edge id="71791" from="78" to="77" priority="3" type="highway.residential" spreadType="center" length="6.47" shape="-754.97,-748.38 -748.97,-720.84">
        <lane id="71791_0" index="0" disallow="pedestrian tram rail_urban rail rail_electric rail_fast ship" speed="36.11" length="6.47" width="3.50" customShape="1" shape="-750.29,-729.26 -750.25,-729.14 -748.43,-723.06"/>
    </edge>
    <edge id="71793" from="74" to="47" priority="3" type="highway.residential" spreadType="center" length="10.79" shape="-782.90,-703.93 -808.17,-707.36">
        <lane id="71793_0" index="0" disallow="pedestrian tram rail_urban rail rail_electric rail_fast ship" speed="36.11" length="10.79" width="3.50" customShape="1" shape="-797.56,-705.38 -802.87,-706.37 -808.17,-707.36"/>
    </edge>
    <edge id="71794" from="59" to="74" priority="3" type="highway.residential" spreadType="center" length="10.78" shape="-807.52,-710.80 -782.43,-707.39">
        <lane id="71794_0" index="0" disallow="pedestrian tram rail_urban rail rail_electric rail_fast ship" speed="36.11" length="10.78" width="3.50" customShape="1" shape="-807.52,-710.80 -802.23,-709.81 -796.92,-708.82"/>
    </edge>
    <edge id="71796" from="72" to="74" priority="3" type="highway.residential" spreadType="center" length="6.99">
        <lane id="71796_0" index="0" disallow="pedestrian tram rail_urban rail rail_electric rail_fast ship" speed="36.11" length="6.99" width="3.50" customShape="1" shape="-767.27,-700.92 -767.94,-701.07 -774.10,-702.43"/>
    </edge>
    <edge id="71830" from="69" to="67" priority="3" type="highway.residential" spreadType="center" length="12.47" shape="-750.24,-644.84 -706.28,-656.61">
        <lane id="71830_0" index="0" disallow="pedestrian tram rail_urban rail rail_electric rail_fast ship" speed="36.11" length="12.47" width="3.50" customShape="1" shape="-734.74,-648.17 -728.66,-649.47 -722.54,-650.77"/>
    </edge>
    <edge id="71831" from="67" to="69" priority="3" type="highway.residential" spreadType="center" length="12.52" shape="-705.37,-653.23 -749.34,-641.46">
        <lane id="71831_0" index="0" disallow="pedestrian tram rail_urban rail rail_electric rail_fast ship" speed="36.11" length="12.52" width="3.50" customShape="1" shape="-721.81,-647.35 -727.94,-646.04 -734.05,-644.74"/>
    </edge>
    <edge id="71850" from="69" to="19" priority="3" type="highway.residential" spreadType="center" length="20.74" shape="-750.80,-641.79 -778.95,-665.82">
        <lane id="71850_0" index="0" disallow="pedestrian tram rail_urban rail rail_electric rail_fast ship" speed="36.11" length="20.74" width="3.50" customShape="1" shape="-761.14,-655.22 -762.34,-656.10 -765.76,-658.29 -774.62,-663.20 -778.95,-665.82"/>
    </edge>
    <edge id="71851" from="30" to="69" priority="3" type="highway.residential" spreadType="center" length="20.98" shape="-777.09,-668.78 -748.53,-644.45">
        <lane id="71851_0" index="0" disallow="pedestrian tram rail_urban rail rail_electric rail_fast ship" speed="36.11" length="20.98" width="3.50" customShape="1" shape="-777.09,-668.78 -772.76,-666.16 -763.82,-661.21 -760.30,-658.95 -759.08,-658.05"/>
    </edge>
    <edge id="71853" from="73" to="75" priority="3" type="highway.residential" spreadType="center" length="5.95">
        <lane id="71853_0" index="0" disallow="pedestrian tram rail_urban rail rail_electric rail_fast ship" speed="36.11" length="5.95" width="3.50" customShape="1" shape="-763.46,-710.53 -762.21,-712.79 -760.58,-715.74"/>
    </edge>
    <edge id="71855" from="77" to="76" priority="3" type="highway.residential" spreadType="center" length="10.13">
        <lane id="71855_0" index="0" disallow="pedestrian tram rail_urban rail rail_electric rail_fast ship" speed="36.11" length="10.13" width="3.50" customShape="1" shape="-745.64,-717.86 -742.92,-714.71 -739.02,-710.19"/>
    </edge>
    <edge id="71860" from="67" to="5" priority="3" type="highway.residential" spreadType="center" length="45.60" shape="-705.33,-656.59 -644.85,-636.76">