<!-- generated on Wed Feb 10 12:31:47 2021 by Eclipse SUMO netconvert Version 1.8.0
<configuration xmlns:xsi="http://www.w3.org/2001/XMLSchema-instance" xsi:noNamespaceSchemaLocation="http://sumo.dlr.de/xsd/netconvertConfiguration.xsd">

    <input>
        <node-files value="./converted_scenarios/SUMO/DEU_Flensburg-74_1_I-1-1/DEU_Flensburg-74_1_I-1-1.nod.xml"/>
        <edge-files value="./converted_scenarios/SUMO/DEU_Flensburg-74_1_I-1-1/DEU_Flensburg-74_1_I-1-1.edg.xml"/>
        <connection-files value="./converted_scenarios/SUMO/DEU_Flensburg-74_1_I-1-1/DEU_Flensburg-74_1_I-1-1.con.xml"/>
        <tllogic-files value="./converted_scenarios/SUMO/DEU_Flensburg-74_1_I-1-1/DEU_Flensburg-74_1_I-1-1.tll.xml"/>
        <type-files value="/home/zen/commonroad-interactive-benchmarks/install/commonroad-map-tool/crmapconverter/sumo_map/templates/DEU.typ.xml"/>
    </input>

    <output>
        <output-file value="./converted_scenarios/SUMO/DEU_Flensburg-74_1_I-1-1/DEU_Flensburg-74_1_I-1-1.net.xml"/>
    </output>

    <processing>
        <geometry.remove.keep-edges.explicit value="true"/>
        <geometry.avoid-overlap value="true"/>
        <offset.disable-normalization value="true"/>
    </processing>

    <junctions>
        <no-turnarounds value="true"/>
        <junctions.internal-link-detail value="20"/>
    </junctions>

    <report>
        <aggregate-warnings value="5"/>
    </report>

    <random_number>
        <seed value="1234"/>
    </random_number>

</configuration>
--><net xmlns:xsi="http://www.w3.org/2001/XMLSchema-instance" version="1.6" junctionCornerDetail="5" junctionLinkDetail="20" limitTurnSpeed="5.50" xsi:noNamespaceSchemaLocation="http://sumo.dlr.de/xsd/net_file.xsd">

    <location netOffset="0.00,0.00" convBoundary="92.99,412.65,184.39,570.38" origBoundary="92.99,412.59,184.39,570.38" projParameter="!"/>

    <type id="highway.bridleway" priority="1" speed="2.78" allow="pedestrian" oneway="1" width="2.00"/>
    <type id="highway.bus_guideway" priority="1" speed="27.78" allow="bus" oneway="1"/>
    <type id="highway.cycleway" priority="1" speed="8.33" allow="bicycle" oneway="0" width="1.00"/>
    <type id="highway.footway" priority="1" speed="2.78" allow="pedestrian" oneway="1" width="2.00"/>
    <type id="highway.ford" priority="1" speed="2.78" allow="army" oneway="0"/>
    <type id="highway.living_street" priority="2" speed="2.78" disallow="tram rail_urban rail rail_electric rail_fast ship" oneway="0"/>
    <type id="highway.motorway" priority="14" speed="39.44" allow="private emergency authority army vip passenger hov taxi bus coach delivery truck trailer motorcycle evehicle custom1 custom2" oneway="1"/>
    <type id="highway.motorway_link" priority="9" speed="22.22" allow="private emergency authority army vip passenger hov taxi bus coach delivery truck trailer motorcycle evehicle custom1 custom2" oneway="1"/>
    <type id="highway.path" priority="1" speed="2.78" allow="pedestrian bicycle" oneway="0" width="2.00"/>
    <type id="highway.pedestrian" priority="1" speed="2.78" allow="pedestrian" oneway="1" width="2.00"/>
    <type id="highway.primary" priority="12" speed="27.78" disallow="pedestrian tram rail_urban rail rail_electric rail_fast ship" oneway="0"/>
    <type id="highway.primary_link" priority="7" speed="22.22" disallow="pedestrian tram rail_urban rail rail_electric rail_fast ship" oneway="0"/>
    <type id="highway.raceway" priority="15" speed="83.33" allow="vip" oneway="0"/>
    <type id="highway.residential" priority="3" speed="13.89" disallow="pedestrian tram rail_urban rail rail_electric rail_fast ship" oneway="0"/>
    <type id="highway.secondary" priority="11" speed="27.78" disallow="pedestrian tram rail_urban rail rail_electric rail_fast ship" oneway="0"/>
    <type id="highway.secondary_link" priority="6" speed="22.22" disallow="pedestrian tram rail_urban rail rail_electric rail_fast ship" oneway="0"/>
    <type id="highway.service" priority="1" speed="5.56" allow="pedestrian delivery bicycle" oneway="0"/>
    <type id="highway.stairs" priority="1" speed="1.39" allow="pedestrian" oneway="1" width="2.00"/>
    <type id="highway.step" priority="1" speed="1.39" allow="pedestrian" oneway="1" width="2.00"/>
    <type id="highway.steps" priority="1" speed="1.39" allow="pedestrian" oneway="1" width="2.00"/>
    <type id="highway.tertiary" priority="10" speed="22.22" disallow="pedestrian tram rail_urban rail rail_electric rail_fast ship" oneway="0"/>
    <type id="highway.tertiary_link" priority="5" speed="22.22" disallow="pedestrian tram rail_urban rail rail_electric rail_fast ship" oneway="0"/>
    <type id="highway.track" priority="1" speed="5.56" allow="pedestrian motorcycle moped bicycle" oneway="0"/>
    <type id="highway.trunk" priority="13" speed="27.78" disallow="pedestrian bicycle tram rail_urban rail rail_electric rail_fast ship" oneway="0"/>
    <type id="highway.trunk_link" priority="8" speed="22.22" disallow="pedestrian bicycle tram rail_urban rail rail_electric rail_fast ship" oneway="0"/>
    <type id="highway.unclassified" priority="4" speed="13.89" disallow="pedestrian tram rail_urban rail rail_electric rail_fast ship" oneway="0"/>
    <type id="highway.unsurfaced" priority="1" speed="8.33" disallow="tram rail_urban rail rail_electric rail_fast ship" oneway="0"/>
    <type id="railway.highspeed" priority="21" speed="69.44" allow="rail_fast" oneway="1"/>
    <type id="railway.light_rail" priority="19" speed="27.78" allow="rail_urban" oneway="1"/>
    <type id="railway.preserved" priority="16" speed="27.78" allow="rail" oneway="1"/>
    <type id="railway.rail" priority="20" speed="44.44" allow="rail" oneway="1"/>
    <type id="railway.subway" priority="18" speed="27.78" allow="rail_urban" oneway="1"/>
    <type id="railway.tram" priority="17" speed="13.89" allow="tram" oneway="1"/>

    <edge id=":33_0" function="internal">
        <lane id=":33_0_0" index="0" disallow="pedestrian tram rail_urban rail rail_electric rail_fast ship" speed="36.11" length="18.14" width="3.50" shape="171.37,518.14 171.76,521.85 171.80,526.49 171.42,532.68 171.07,536.23"/>
    </edge>
    <edge id=":33_1" function="internal">
        <lane id=":33_1_0" index="0" disallow="pedestrian tram rail_urban rail rail_electric rail_fast ship" speed="8.12" length="17.68" width="3.50" shape="171.37,518.14 171.66,520.64 171.58,523.03 171.26,524.59 170.62,526.05 170.16,526.70 169.61,527.28 168.99,527.78 168.30,528.19 166.80,528.73 165.22,529.00 162.83,529.02 162.03,528.95"/>
    </edge>
    <edge id=":33_2" function="internal">
        <lane id=":33_2_0" index="0" disallow="pedestrian tram rail_urban rail rail_electric rail_fast ship" speed="6.54" length="10.99" width="3.50" shape="162.40,525.47 163.00,525.51 163.57,525.53 164.15,525.53 164.73,525.49 165.30,525.40 165.86,525.26 166.40,525.05 166.89,524.74 167.29,524.33 167.61,523.85 167.84,523.32 168.00,522.77 168.09,522.20 168.14,521.62 168.15,521.05 168.13,520.47 168.09,519.89 168.02,519.32 167.93,518.75"/>
    </edge>
    <edge id=":33_3" function="internal">
        <lane id=":33_3_0" index="0" disallow="pedestrian tram rail_urban rail rail_electric rail_fast ship" speed="8.41" length="15.74" width="3.50" shape="162.40,525.47 164.40,525.82 166.36,526.49 167.67,527.22 168.84,528.20 169.80,529.40 170.49,530.76 170.92,532.19 171.15,534.25 171.07,536.23"/>
    </edge>
    <edge id=":33_4" function="internal">
        <lane id=":33_4_0" index="0" disallow="pedestrian tram rail_urban rail rail_electric rail_fast ship" speed="6.89" length="10.19" width="3.50" shape="167.59,535.89 167.65,534.50 167.49,533.12 167.23,532.23 166.81,531.40 166.24,530.68 165.53,530.08 164.72,529.64 163.40,529.19 162.03,528.95"/>
    </edge>
    <edge id=":33_5" function="internal">
        <lane id=":33_5_0" index="0" disallow="pedestrian tram rail_urban rail rail_electric rail_fast ship" speed="36.11" length="17.19" width="3.50" shape="167.59,535.89 167.93,532.44 168.30,526.51 168.27,522.13 167.93,518.75"/>
    </edge>
    <edge id=":34_0" function="internal">
        <lane id=":34_0_0" index="0" disallow="pedestrian tram rail_urban rail rail_electric rail_fast ship" speed="7.80" length="13.53" width="3.50" shape="174.92,426.75 169.46,426.09 168.60,426.17 167.79,426.40 167.09,426.75 166.48,427.29 165.96,427.96 165.56,428.74 165.08,430.15 164.80,431.64"/>
    </edge>
    <edge id=":34_1" function="internal">
        <lane id=":34_1_0" index="0" disallow="pedestrian tram rail_urban rail rail_electric rail_fast ship" speed="36.11" length="23.18" width="3.50" shape="174.92,426.75 170.18,426.06 169.40,425.94 168.61,425.82 167.83,425.71 167.04,425.59 166.26,425.47 165.47,425.35 164.69,425.23 163.90,425.11 163.12,424.99 162.33,424.88 161.55,424.76 160.76,424.64 159.98,424.52 159.19,424.40 158.41,424.28 157.62,424.17 156.84,424.05 152.01,423.22"/>
    </edge>
    <edge id=":34_2" function="internal">
        <lane id=":34_2_0" index="0" disallow="pedestrian tram rail_urban rail rail_electric rail_fast ship" speed="36.11" length="8.00" width="3.50" shape="152.62,419.78 160.52,421.06"/>
    </edge>
    <edge id=":34_3" function="internal">
        <lane id=":34_3_0" index="0" disallow="pedestrian tram rail_urban rail rail_electric rail_fast ship" speed="9.53" length="19.66" width="3.50" shape="152.62,419.78 158.45,420.93 160.36,421.71 161.63,422.51 162.74,423.51 163.67,424.75 164.32,426.10 164.73,427.54 164.93,429.62 164.80,431.64"/>
    </edge>
    <edge id=":34_4" function="internal">
        <lane id=":34_4_0" index="0" disallow="pedestrian tram rail_urban rail rail_electric rail_fast ship" speed="8.20" length="14.28" width="3.50" shape="161.33,431.21 161.42,429.79 161.29,428.39 161.03,427.48 160.62,426.64 160.06,425.88 159.36,425.26 158.56,424.76 157.26,424.23 152.01,423.22"/>
    </edge>
    <edge id=":34_5" function="internal">
        <lane id=":34_5_0" index="0" disallow="pedestrian tram rail_urban rail rail_electric rail_fast ship" speed="10.76" length="13.48" width="3.49" shape="161.33,431.20 161.39,430.98 161.50,430.73 161.67,430.46 161.89,430.17 162.17,429.86 162.51,429.53 162.90,429.17 163.35,428.80 163.85,428.40 164.42,427.98 165.03,427.54 165.71,427.08 166.44,426.59 167.22,426.09 168.07,425.56 168.97,425.01 169.92,424.44 170.93,423.85 172.00,423.24"/>
    </edge>
    <edge id=":36_0" function="internal">
        <lane id=":36_0_0" index="0" disallow="pedestrian tram rail_urban rail rail_electric rail_fast ship" speed="8.14" length="11.44" width="3.50" shape="160.03,485.65 159.68,484.18 159.16,482.86 158.39,481.67 157.74,480.97 156.59,480.14 155.30,479.55 153.92,479.19 152.06,478.98"/>
    </edge>
    <edge id=":36_1" function="internal">
        <lane id=":36_1_0" index="0" disallow="pedestrian tram rail_urban rail rail_electric rail_fast ship" speed="36.11" length="17.70" width="3.49" shape="160.02,485.66 159.68,483.50 158.69,475.81 158.05,468.08"/>
    </edge>
    <edge id=":36_2" function="internal">
        <lane id=":36_2_0" index="0" disallow="pedestrian tram rail_urban rail rail_electric rail_fast ship" speed="8.06" length="17.22" width="3.50" shape="160.02,485.66 159.74,483.25 159.79,480.91 160.07,479.38 160.61,477.92 161.01,477.25 162.05,476.10 162.67,475.63 164.06,474.94 165.56,474.53 167.89,474.32 168.68,474.33"/>
    </edge>
    <edge id=":36_3" function="internal">
        <lane id=":36_3_0" index="0" disallow="pedestrian tram rail_urban rail rail_electric rail_fast ship" speed="6.48" length="10.64" width="3.50" shape="168.44,477.82 168.00,477.83 167.43,477.84 166.86,477.89 166.30,477.99 165.76,478.14 165.23,478.35 164.74,478.63 164.33,479.02 163.97,479.45 163.70,479.95 163.51,480.49 163.37,481.03 163.29,481.59 163.25,482.16 163.24,482.73 163.26,483.29 163.31,483.86 163.37,484.42 163.45,484.98"/>
    </edge>
    <edge id=":36_4" function="internal">
        <lane id=":36_4_0" index="0" disallow="pedestrian tram rail_urban rail rail_electric rail_fast ship" speed="36.11" length="16.45" width="3.50" shape="168.44,477.83 165.62,477.89 160.04,478.58 155.82,479.02 152.06,478.98"/>
    </edge>
    <edge id=":36_5" function="internal">
        <lane id=":36_5_0" index="0" disallow="pedestrian tram rail_urban rail rail_electric rail_fast ship" speed="8.80" length="15.90" width="3.49" shape="168.44,477.81 166.59,477.64 164.61,477.19 162.70,476.37 161.48,475.55 160.41,474.53 159.55,473.34 158.90,472.03 158.31,470.07 158.05,468.08"/>
    </edge>
    <edge id=":36_6" function="internal">
        <lane id=":36_6_0" index="0" disallow="pedestrian tram rail_urban rail rail_electric rail_fast ship" speed="7.36" length="10.80" width="3.50" shape="161.54,467.87 161.73,469.26 162.13,470.61 162.56,471.44 163.12,472.20 163.80,472.84 164.59,473.35 165.89,473.89 167.27,474.20 168.68,474.33"/>
    </edge>
    <edge id=":36_7" function="internal">
        <lane id=":36_7_0" index="0" disallow="pedestrian tram rail_urban rail rail_electric rail_fast ship" speed="36.11" length="17.22" width="3.50" shape="161.54,467.87 162.17,475.45 163.14,482.99 163.45,484.98"/>
    </edge>
    <edge id=":36_8" function="internal">
        <lane id=":36_8_0" index="0" disallow="pedestrian tram rail_urban rail rail_electric rail_fast ship" speed="8.44" length="17.34" width="3.50" shape="161.54,467.87 161.54,470.81 161.23,472.99 160.82,474.40 160.18,475.72 159.30,476.90 158.17,477.83 156.86,478.49 155.44,478.88 153.25,479.05 152.06,478.98"/>
    </edge>
    <edge id=":36_9" function="internal">
        <lane id=":36_9_0" index="0" disallow="pedestrian tram rail_urban rail rail_electric rail_fast ship" speed="6.91" length="11.21" width="3.49" shape="152.37,475.49 153.31,475.54 153.89,475.53 154.46,475.47 155.01,475.35 155.55,475.16 156.05,474.89 156.50,474.54 156.88,474.13 157.20,473.65 157.45,473.14 157.65,472.61 157.80,472.06 157.91,471.50 157.99,470.93 158.05,470.37 158.08,469.80 158.09,469.22 158.08,468.65 158.05,468.08"/>
    </edge>
    <edge id=":36_10" function="internal">
        <lane id=":36_10_0" index="0" disallow="pedestrian tram rail_urban rail rail_electric rail_fast ship" speed="36.11" length="16.38" width="3.50" shape="152.37,475.49 155.82,475.53 159.92,475.09 165.55,474.40 168.68,474.33"/>
    </edge>
    <edge id=":36_11" function="internal">
        <lane id=":36_11_0" index="0" disallow="pedestrian tram rail_urban rail rail_electric rail_fast ship" speed="9.52" length="15.97" width="3.50" shape="152.37,475.49 154.67,475.77 156.60,476.28 158.48,477.14 160.15,478.37 161.16,479.46 162.25,481.19 163.00,483.08 163.45,484.98"/>
    </edge>

    <edge id="1377" from="34" to="35" priority="3" type="highway.residential" spreadType="center" length="0.21">
        <lane id="1377_0" index="0" disallow="pedestrian tram rail_urban rail rail_electric rail_fast ship" speed="36.11" length="0.21" width="3.49" customShape="1" shape="172.00,423.24 172.18,423.14"/>
    </edge>
    <edge id="1524" from="34" to="35" priority="3" type="highway.residential" spreadType="center" length="11.01">
        <lane id="1524_0" index="0" disallow="pedestrian tram rail_urban rail rail_electric rail_fast ship" speed="36.11" length="11.01" width="3.50" customShape="1" shape="160.52,421.06 161.21,421.17 162.00,421.29 162.78,421.41 163.57,421.52 164.35,421.64 165.13,421.76 165.92,421.88 166.70,422.00 167.49,422.12 168.27,422.23 169.05,422.35 169.84,422.47 170.62,422.59 171.41,422.71"/>
    </edge>
    <edge id="180" from="36" to="34" priority="3" type="highway.residential" spreadType="center" length="37.07" shape="158.95,476.67 160.15,426.63">
        <lane id="180_0" index="0" disallow="pedestrian tram rail_urban rail rail_electric rail_fast ship" speed="36.11" length="37.07" width="3.49" customShape="1" shape="158.05,468.08 157.92,464.43 158.08,459.77 159.23,448.20 161.33,431.20"/>
    </edge>
    <edge id="181" from="34" to="36" priority="3" type="highway.residential" spreadType="center" length="36.51" shape="163.65,426.72 162.44,476.75">
        <lane id="181_0" index="0" disallow="pedestrian tram rail_urban rail rail_electric rail_fast ship" speed="36.11" length="36.51" width="3.50" customShape="1" shape="164.80,431.64 162.70,448.58 161.57,460.00 161.42,464.41 161.55,467.96"/>
    </edge>
    <edge id="183" from="33" to="36" priority="3" type="highway.residential" spreadType="center" length="34.13" shape="165.34,527.47 158.96,476.81">
        <lane id="183_0" index="0" disallow="pedestrian tram rail_urban rail rail_electric rail_fast ship" speed="36.11" length="34.13" width="3.50" customShape="1" shape="167.93,518.75 167.59,516.83 166.19,510.43 163.14,499.19 161.12,491.23 160.01,485.57"/>
    </edge>
    <edge id="184" from="36" to="33" priority="3" type="highway.residential" spreadType="center" length="34.11" shape="162.42,476.37 168.81,527.04">
        <lane id="184_0" index="0" disallow="pedestrian tram rail_urban rail rail_electric rail_fast ship" speed="36.11" length="34.11" width="3.50" customShape="1" shape="163.45,484.98 164.53,490.46 166.52,498.28 169.59,509.60 171.03,516.17 171.37,518.14"/>
    </edge>
    <edge id="186" from="26" to="33" priority="3" type="highway.residential" spreadType="center" length="34.32" shape="163.80,569.95 165.33,527.12">
        <lane id="186_0" index="0" disallow="pedestrian tram rail_urban rail rail_electric rail_fast ship" speed="36.11" length="34.32" width="3.50" customShape="1" shape="163.80,569.95 165.69,552.94 167.59,535.84"/>
    </edge>
    <edge id="187" from="33" to="24" priority="3" type="highway.residential" spreadType="center" length="34.36" shape="168.82,527.25 167.27,570.38">
        <lane id="187_0" index="0" disallow="pedestrian tram rail_urban rail rail_electric rail_fast ship" speed="36.11" length="34.36" width="3.50" customShape="1" shape="171.07,536.23 169.17,553.33 167.27,570.38"/>
    </edge>
    <edge id="328" from="28" to="34" priority="3" type="highway.residential" spreadType="center" length="1.47">
        <lane id="328_0" index="0" disallow="pedestrian tram rail_urban rail rail_electric rail_fast ship" speed="36.11" length="1.47" width="3.50" customShape="1" shape="176.37,426.96 174.92,426.75"/>
    </edge>
    <edge id="330" from="7" to="34" priority="3" type="highway.residential" spreadType="center" length="60.17" shape="92.99,412.65 162.25,424.96">
        <lane id="330_0" index="0" disallow="pedestrian tram rail_urban rail rail_electric rail_fast ship" speed="36.11" length="60.17" width="3.50" customShape="1" shape="92.99,412.65 95.03,412.59 102.19,412.61 108.33,413.01 117.86,414.02 128.83,415.61 152.62,419.78"/>
    </edge>
    <edge id="331" from="34" to="21" priority="3" type="highway.residential" spreadType="center" length="59.48" shape="161.63,428.41 93.07,416.14">
        <lane id="331_0" index="0" disallow="pedestrian tram rail_urban rail rail_electric rail_fast ship" speed="36.11" length="59.48" width="3.50" customShape="1" shape="152.01,423.22 128.27,419.06 117.43,417.49 108.03,416.49 102.07,416.11 95.09,416.09 93.07,416.14"/>
    </edge>
    <edge id="460" from="17" to="33" priority="3" type="highway.residential" spreadType="center" length="40.26" shape="122.39,521.24 167.31,525.52">
        <lane id="460_0" index="0" disallow="pedestrian tram rail_urban rail rail_electric rail_fast ship" speed="36.11" length="40.26" width="3.50" customShape="1" shape="122.39,521.24 142.39,523.35 162.43,525.47"/>
    </edge>
    <edge id="461" from="33" to="23" priority="3" type="highway.residential" spreadType="center" length="40.23" shape="166.97,529.00 122.02,524.72">
        <lane id="461_0" index="0" disallow="pedestrian tram rail_urban rail rail_electric rail_fast ship" speed="36.11" length="40.23" width="3.50" customShape="1" shape="162.03,528.95 142.03,526.83 122.02,524.72"/>
    </edge>
    <edge id="876" from="29" to="36" priority="3" type="highway.residential" spreadType="center" length="22.61" shape="129.95,472.60 160.93,474.92">
        <lane id="876_0" index="0" disallow="pedestrian tram rail_urban rail rail_electric rail_fast ship" speed="36.11" length="22.61" width="3.50" customShape="1" shape="129.95,472.60 146.34,474.94 152.37,475.49"/>
    </edge>
    <edge id="877" from="36" to="14" priority="3" type="highway.residential" spreadType="center" length="22.77" shape="160.66,478.40 129.48,476.07">
        <lane id="877_0" index="0" disallow="pedestrian tram rail_urban rail rail_electric rail_fast ship" speed="36.11" length="22.77" width="3.50" customShape="1" shape="152.06,478.98 145.92,478.41 129.48,476.07"/>
    </edge>
    <edge id="879" from="30" to="36" priority="3" type="highway.residential" spreadType="center" length="15.63" shape="183.95,479.70 160.47,478.39">
        <lane id="879_0" index="0" disallow="pedestrian tram rail_urban rail rail_electric rail_fast ship" speed="36.11" length="15.63" width="3.50" customShape="1" shape="183.95,479.70 172.45,478.10 168.44,477.81"/>
    </edge>
    <edge id="880" from="36" to="3" priority="3" type="highway.residential" spreadType="center" length="15.83" shape="160.67,474.90 184.39,476.23">
        <lane id="880_0" index="0" disallow="pedestrian tram rail_urban rail rail_electric rail_fast ship" speed="36.11" length="15.83" width="3.50" customShape="1" shape="168.68,474.33 172.82,474.62 184.39,476.23"/>
    </edge>

    <junction id="14" type="dead_end" x="129.48" y="476.07" incLanes="877_0" intLanes="" shape="129.23,477.80 129.73,474.34" rightOfWay="edgePriority"/>
    <junction id="17" type="dead_end" x="122.39" y="521.24" incLanes="" intLanes="" shape="122.20,522.98 122.57,519.50" rightOfWay="edgePriority"/>
    <junction id="21" type="dead_end" x="93.07" y="416.14" incLanes="331_0" intLanes="" shape="93.12,417.89 93.03,414.40" rightOfWay="edgePriority"/>
    <junction id="23" type="dead_end" x="122.02" y="524.72" incLanes="461_0" intLanes="" shape="121.84,526.46 122.20,522.98" rightOfWay="edgePriority"/>
    <junction id="24" type="dead_end" x="167.27" y="570.38" incLanes="187_0" intLanes="" shape="169.01,570.57 165.53,570.18" rightOfWay="edgePriority"/>
    <junction id="26" type="dead_end" x="163.80" y="569.95" incLanes="" intLanes="" shape="165.53,570.15 162.06,569.76" rightOfWay="edgePriority"/>
    <junction id="28" type="dead_end" x="176.37" y="426.96" incLanes="" intLanes="" shape="176.62,425.23 176.11,428.69" rightOfWay="edgePriority"/>
    <junction id="29" type="dead_end" x="129.95" y="472.60" incLanes="" intLanes="" shape="129.70,474.34 130.20,470.87" rightOfWay="edgePriority"/>
    <junction id="3" type="dead_end" x="184.39" y="476.23" incLanes="880_0" intLanes="" shape="184.64,474.50 184.15,477.96" rightOfWay="edgePriority"/>
    <junction id="30" type="dead_end" x="183.95" y="479.70" incLanes="" intLanes="" shape="184.19,477.97 183.71,481.43" rightOfWay="edgePriority"/>
    <junction id="33" type="priority" x="167.07" y="527.26" incLanes="184_0 460_0 186_0" intLanes=":33_0_0 :33_1_0 :33_2_0 :33_3_0 :33_4_0 :33_5_0" shape="173.10,517.83 166.21,519.05 166.21,521.86 165.76,522.80 165.01,523.42 163.95,523.73 162.59,523.73 161.85,530.69 164.30,531.45 165.10,532.17 165.63,533.11 165.88,534.27 165.85,535.65 172.81,536.43 173.30,532.48 173.70,529.53 173.94,527.10 173.97,524.67 173.71,521.75">
        <request index="0" response="000000" foes="001000" cont="0"/>
        <request index="1" response="110000" foes="111000" cont="0"/>
        <request index="2" response="100000" foes="100000" cont="0"/>
        <request index="3" response="100011" foes="100011" cont="0"/>
        <request index="4" response="000000" foes="000010" cont="0"/>
        <request index="5" response="000000" foes="001110" cont="0"/>
    </junction>
    <junction id="34" type="priority" x="161.90" y="426.68" incLanes="328_0 330_0 180_0" intLanes=":34_0_0 :34_1_0 :34_2_0 :34_3_0 :34_4_0 :34_5_0" shape="174.66,428.48 175.17,425.02 175.20,424.69 170.36,420.90 159.66,420.32 152.56,420.11 149.06,420.24 149.16,420.74 152.86,421.58 160.26,422.79 160.78,419.33 152.92,418.05 151.71,424.95 154.28,425.52 156.35,426.28 157.91,427.20 158.98,428.29 159.54,429.56 159.60,431.00 166.54,431.86 167.69,429.50 168.85,428.78 170.40,428.37 172.34,428.27">
        <request index="0" response="000000" foes="001000" cont="0"/>
        <request index="1" response="000000" foes="111000" cont="0"/>
        <request index="2" response="000000" foes="000000" cont="0"/>
        <request index="3" response="000011" foes="100011" cont="0"/>
        <request index="4" response="000010" foes="000010" cont="0"/>
        <request index="5" response="001010" foes="001010" cont="0"/>
    </junction>
    <junction id="35" type="dead_end" x="171.41" y="422.71" incLanes="1377_0 1524_0" intLanes="" shape="171.51,420.96 171.30,424.45 171.67,420.98 171.15,424.44"/>
    <junction id="36" type="priority" x="160.70" y="476.65" incLanes="183_0 879_0 181_0 876_0" intLanes=":36_0_0 :36_1_0 :36_2_0 :36_3_0 :36_4_0 :36_5_0 :36_6_0 :36_7_0 :36_8_0 :36_9_0 :36_10_0 :36_11_0" shape="158.31,485.99 165.17,484.64 165.05,481.69 165.43,480.68 166.10,479.99 167.06,479.62 168.31,479.56 168.81,472.58 165.81,471.89 164.75,471.22 163.97,470.33 163.49,469.22 163.29,467.90 156.31,468.15 155.98,471.42 155.47,472.53 154.72,473.29 153.75,473.70 152.53,473.75 151.90,480.72 155.04,481.53 156.24,482.29 157.18,483.28 157.87,484.52">
        <request index="0" response="000000010000" foes="000100010000" cont="0"/>
        <request index="1" response="111000110000" foes="111100110000" cont="0"/>
        <request index="2" response="110011110000" foes="110111110000" cont="0"/>
        <request index="3" response="000000000000" foes="100010000000" cont="0"/>
        <request index="4" response="000000000000" foes="100110000111" cont="0"/>
        <request index="5" response="011000000000" foes="011110000110" cont="0"/>
        <request index="6" response="010000000000" foes="010000000100" cont="0"/>
        <request index="7" response="110000111000" foes="110000111100" cont="0"/>
        <request index="8" response="110000110111" foes="110000110111" cont="0"/>
        <request index="9" response="000000000000" foes="000000100010" cont="0"/>
        <request index="10" response="000000000000" foes="000111100110" cont="0"/>
        <request index="11" response="000000011000" foes="000110011110" cont="0"/>
    </junction>
    <junction id="7" type="dead_end" x="92.99" y="412.65" incLanes="" intLanes="" shape="93.03,414.40 92.94,410.90" rightOfWay="edgePriority"/>

    <connection from="180" to="331" fromLane="0" toLane="0" contPos="-4.00" shape="161.33,431.20 161.42,429.79 161.29,428.39 161.03,427.48 160.62,426.64 160.06,425.88 159.36,425.26 158.56,424.76 157.26,424.23 155.88,423.90" via=":34_4_0" dir="r" state="m"/>
    <connection from="180" to="1377" fromLane="0" toLane="0" contPos="-4.00" via=":34_5_0" dir="l" state="m"/>
    <connection from="181" to="880" fromLane="0" toLane="0" contPos="-4.00" shape="161.54,467.87 161.73,469.26 162.13,470.61 162.56,471.44 163.12,472.20 163.80,472.84 164.59,473.35 165.89,473.89 167.27,474.20 168.68,474.33" via=":36_6_0" dir="r" state="m"/>
    <connection from="181" to="184" fromLane="0" toLane="0" contPos="-4.00" shape="161.54,467.87 162.17,475.45 163.14,482.99 163.45,484.98" via=":36_7_0" dir="s" state="m"/>
    <connection from="181" to="877" fromLane="0" toLane="0" contPos="-4.00" shape="161.54,467.87 161.54,470.81 161.23,472.99 160.82,474.40 160.18,475.72 159.30,476.90 158.17,477.83 156.86,478.49 155.44,478.88 153.25,479.05 152.53,479.02" via=":36_8_0" dir="l" state="m"/>
    <connection from="183" to="877" fromLane="0" toLane="0" contPos="-4.00" shape="160.01,485.57 159.68,484.18 159.16,482.86 158.39,481.67 157.74,480.97 156.59,480.14 155.30,479.55 153.92,479.19 152.53,479.02" via=":36_0_0" dir="r" state="m"/>
    <connection from="183" to="180" fromLane="0" toLane="0" contPos="-4.00" shape="160.01,485.57 159.68,483.50 158.69,475.81 158.05,468.08" via=":36_1_0" dir="s" state="m"/>
    <connection from="183" to="880" fromLane="0" toLane="0" contPos="-4.00" shape="160.01,485.57 159.74,483.25 159.79,480.91 160.07,479.38 160.61,477.92 161.01,477.25 162.05,476.10 162.67,475.63 164.06,474.94 165.56,474.53 167.89,474.32 168.68,474.33" via=":36_2_0" dir="l" state="m"/>
    <connection from="184" to="187" fromLane="0" toLane="0" contPos="-4.00" shape="171.39,518.24 171.76,521.85 171.80,526.49 171.42,532.68 171.07,536.23" via=":33_0_0" dir="s" state="M"/>
    <connection from="184" to="461" fromLane="0" toLane="0" contPos="-4.00" shape="171.39,518.24 171.66,520.64 171.58,523.03 171.26,524.59 170.62,526.05 170.16,526.70 169.61,527.28 168.99,527.78 168.30,528.19 166.80,528.73 165.22,529.00 162.83,529.02 162.03,528.95" via=":33_1_0" dir="l" state="m"/>
    <connection from="186" to="461" fromLane="0" toLane="0" contPos="-4.00" shape="167.59,535.89 167.65,534.50 167.49,533.12 167.23,532.23 166.81,531.40 166.24,530.68 165.53,530.08 164.72,529.64 163.40,529.19 162.03,528.95" via=":33_4_0" dir="r" state="M"/>
    <connection from="186" to="183" fromLane="0" toLane="0" contPos="-4.00" shape="167.59,535.89 167.93,532.44 168.30,526.51 168.27,522.13 167.93,518.75" via=":33_5_0" dir="s" state="M"/>
    <connection from="328" to="181" fromLane="0" toLane="0" contPos="-4.00" shape="170.97,426.18 169.46,426.09 168.60,426.17 167.79,426.40 167.09,426.75 166.48,427.29 165.96,427.96 165.56,428.74 165.08,430.15 164.80,431.64" via=":34_0_0" dir="r" state="M"/>
    <connection from="328" to="331" fromLane="0" toLane="0" contPos="-4.00" shape="170.97,426.18 170.18,426.06 169.40,425.94 168.61,425.82 167.83,425.71 167.04,425.59 166.26,425.47 165.47,425.35 164.69,425.23 163.90,425.11 163.12,424.99 162.33,424.88 161.55,424.76 160.76,424.64 159.98,424.52 159.19,424.40 158.41,424.28 157.62,424.17 156.84,424.05 156.05,423.93" via=":34_1_0" dir="s" state="M"/>
    <connection from="330" to="1524" fromLane="0" toLane="0" contPos="-4.00" via=":34_2_0" dir="s" state="M"/>