<routes>
	<vehicle depart="0.1" departLane="0" departPos="22.342957589411956" departSpeed="0.030020806" id="39" type="passenger">
		<route edges=":118_3 5847"/>
	</vehicle>
	<vehicle depart="0.1" departLane="0" departPos="24.74500926585491" departSpeed="0.0" id="328" type="passenger">
		<route edges="5844 6259"/>
	</vehicle>
	<vehicle depart="0.1" departLane="0" departPos="9.46234786636154" departSpeed="1.5676674" id="375" type="passenger">
		<route edges=":118_3 5847"/>
	</vehicle>
	<vehicle depart="0.1" departLane="0" departPos="71.22210227466383" departSpeed="0.57677139" id="388" type="passenger">
		<route edges="6256 6259 6262"/>
	</vehicle>
	<vehicle depart="0.1" departLane="0" departPos="63.57599939437354" departSpeed="0.63842636" id="398" type="passenger">
		<route edges="6256 6259"/>
	</vehicle>
	<vehicle depart="0.1" departLane="0" departPos="54.662805826073246" departSpeed="0.40803001" id="3107" type="passenger">
		<route edges="6256 6259"/>
	</vehicle>
	<vehicle depart="0.1" departLane="0" departPos="41.87382442428908" departSpeed="1.9445398" id="3116" type="passenger">
		<route edges="6256 6259"/>
	</vehicle>
	<vehicle depart="0.1" departLane="0" departPos="34.275849845841776" departSpeed="2.0419977" id="3123" type="passenger">
		<route edges="6256 6259"/>
	</vehicle>
	<vehicle depart="0.1" departLane="0" departPos="13.580370857937064" departSpeed="2.1223636" id="3133" type="passenger">
		<route edges="6256 6259"/>
	</vehicle>
	<vehicle depart="0.1" departLane="0" departPos="34.74492557974689" departSpeed="0.0" id="30" type="truck">
		<route edges="5844 6259"/>
	</vehicle>
</routes>
