<routes>
	<vehicle depart="0.1" departLane="0" departPos="28.871913714972365" departSpeed="7.1335486" id="332" type="bicycle">
		<route edges="89365 89368"/>
	</vehicle>
	<vehicle depart="0.1" departLane="0" departPos="32.40151874556233" departSpeed="0.0" id="35" type="passenger">
		<route edges=":30_4 89558"/>
	</vehicle>
	<vehicle depart="0.1" departLane="0" departPos="22.408023817541135" departSpeed="21.24379" id="346" type="passenger">
		<route edges="89365 89368"/>
	</vehicle>
	<vehicle depart="0.1" departLane="0" departPos="56.94214490751614" departSpeed="20.64353" id="353" type="passenger">
		<route edges="89411 89365 89368"/>
	</vehicle>
</routes>
