<!-- generated on Tue Feb  9 22:10:28 2021 by Eclipse SUMO netconvert Version 1.8.0
<configuration xmlns:xsi="http://www.w3.org/2001/XMLSchema-instance" xsi:noNamespaceSchemaLocation="http://sumo.dlr.de/xsd/netconvertConfiguration.xsd">

    <input>
        <node-files value="./converted_scenarios/scenario-factory/ESP_Cambre-5_6_I-1-1/ESP_Cambre-5_6_I-1-1.nod.xml"/>
        <edge-files value="./converted_scenarios/scenario-factory/ESP_Cambre-5_6_I-1-1/ESP_Cambre-5_6_I-1-1.edg.xml"/>
        <connection-files value="./converted_scenarios/scenario-factory/ESP_Cambre-5_6_I-1-1/ESP_Cambre-5_6_I-1-1.con.xml"/>
        <tllogic-files value="./converted_scenarios/scenario-factory/ESP_Cambre-5_6_I-1-1/ESP_Cambre-5_6_I-1-1.tll.xml"/>
        <type-files value="/home/zen/commonroad-interactive-benchmarks/install/commonroad-map-tool/crmapconverter/sumo_map/templates/DEU.typ.xml"/>
    </input>

    <output>
        <output-file value="./converted_scenarios/scenario-factory/ESP_Cambre-5_6_I-1-1/ESP_Cambre-5_6_I-1-1.net.xml"/>
    </output>

    <processing>
        <geometry.remove.keep-edges.explicit value="true"/>
        <geometry.avoid-overlap value="true"/>
        <offset.disable-normalization value="true"/>
    </processing>

    <junctions>
        <no-turnarounds value="true"/>
        <junctions.internal-link-detail value="20"/>
    </junctions>

    <report>
        <aggregate-warnings value="5"/>
    </report>

    <random_number>
        <seed value="1234"/>
    </random_number>

</configuration>
--><net xmlns:xsi="http://www.w3.org/2001/XMLSchema-instance" version="1.6" junctionCornerDetail="5" junctionLinkDetail="20" limitTurnSpeed="5.50" xsi:noNamespaceSchemaLocation="http://sumo.dlr.de/xsd/net_file.xsd">

    <location netOffset="0.00,0.00" convBoundary="-162.30,-750.25,80.99,-507.48" origBoundary="-162.30,-750.25,80.99,-507.48" projParameter="!"/>

    <type id="highway.bridleway" priority="1" speed="2.78" allow="pedestrian" oneway="1" width="2.00"/>
    <type id="highway.bus_guideway" priority="1" speed="27.78" allow="bus" oneway="1"/>
    <type id="highway.cycleway" priority="1" speed="8.33" allow="bicycle" oneway="0" width="1.00"/>
    <type id="highway.footway" priority="1" speed="2.78" allow="pedestrian" oneway="1" width="2.00"/>
    <type id="highway.ford" priority="1" speed="2.78" allow="army" oneway="0"/>
    <type id="highway.living_street" priority="2" speed="2.78" disallow="tram rail_urban rail rail_electric rail_fast ship" oneway="0"/>
    <type id="highway.motorway" priority="14" speed="39.44" allow="private emergency authority army vip passenger hov taxi bus coach delivery truck trailer motorcycle evehicle custom1 custom2" oneway="1"/>
    <type id="highway.motorway_link" priority="9" speed="22.22" allow="private emergency authority army vip passenger hov taxi bus coach delivery truck trailer motorcycle evehicle custom1 custom2" oneway="1"/>
    <type id="highway.path" priority="1" speed="2.78" allow="pedestrian bicycle" oneway="0" width="2.00"/>
    <type id="highway.pedestrian" priority="1" speed="2.78" allow="pedestrian" oneway="1" width="2.00"/>
    <type id="highway.primary" priority="12" speed="27.78" disallow="pedestrian tram rail_urban rail rail_electric rail_fast ship" oneway="0"/>
    <type id="highway.primary_link" priority="7" speed="22.22" disallow="pedestrian tram rail_urban rail rail_electric rail_fast ship" oneway="0"/>
    <type id="highway.raceway" priority="15" speed="83.33" allow="vip" oneway="0"/>
    <type id="highway.residential" priority="3" speed="13.89" disallow="pedestrian tram rail_urban rail rail_electric rail_fast ship" oneway="0"/>
    <type id="highway.secondary" priority="11" speed="27.78" disallow="pedestrian tram rail_urban rail rail_electric rail_fast ship" oneway="0"/>
    <type id="highway.secondary_link" priority="6" speed="22.22" disallow="pedestrian tram rail_urban rail rail_electric rail_fast ship" oneway="0"/>
    <type id="highway.service" priority="1" speed="5.56" allow="pedestrian delivery bicycle" oneway="0"/>
    <type id="highway.stairs" priority="1" speed="1.39" allow="pedestrian" oneway="1" width="2.00"/>
    <type id="highway.step" priority="1" speed="1.39" allow="pedestrian" oneway="1" width="2.00"/>
    <type id="highway.steps" priority="1" speed="1.39" allow="pedestrian" oneway="1" width="2.00"/>
    <type id="highway.tertiary" priority="10" speed="22.22" disallow="pedestrian tram rail_urban rail rail_electric rail_fast ship" oneway="0"/>
    <type id="highway.tertiary_link" priority="5" speed="22.22" disallow="pedestrian tram rail_urban rail rail_electric rail_fast ship" oneway="0"/>
    <type id="highway.track" priority="1" speed="5.56" allow="pedestrian motorcycle moped bicycle" oneway="0"/>
    <type id="highway.trunk" priority="13" speed="27.78" disallow="pedestrian bicycle tram rail_urban rail rail_electric rail_fast ship" oneway="0"/>
    <type id="highway.trunk_link" priority="8" speed="22.22" disallow="pedestrian bicycle tram rail_urban rail rail_electric rail_fast ship" oneway="0"/>
    <type id="highway.unclassified" priority="4" speed="13.89" disallow="pedestrian tram rail_urban rail rail_electric rail_fast ship" oneway="0"/>
    <type id="highway.unsurfaced" priority="1" speed="8.33" disallow="tram rail_urban rail rail_electric rail_fast ship" oneway="0"/>
    <type id="railway.highspeed" priority="21" speed="69.44" allow="rail_fast" oneway="1"/>
    <type id="railway.light_rail" priority="19" speed="27.78" allow="rail_urban" oneway="1"/>
    <type id="railway.preserved" priority="16" speed="27.78" allow="rail" oneway="1"/>
    <type id="railway.rail" priority="20" speed="44.44" allow="rail" oneway="1"/>
    <type id="railway.subway" priority="18" speed="27.78" allow="rail_urban" oneway="1"/>
    <type id="railway.tram" priority="17" speed="13.89" allow="tram" oneway="1"/>

    <edge id=":29_0" function="internal">
        <lane id=":29_0_0" index="0" disallow="pedestrian tram rail_urban rail rail_electric rail_fast ship" speed="36.11" length="83.64" width="3.50" shape="-54.29,-617.78 -65.90,-633.27 -85.71,-659.22 -94.74,-671.57 -102.27,-682.48 -103.98,-685.04"/>
    </edge>
    <edge id=":29_1" function="internal">
        <lane id=":29_1_0" index="0" disallow="pedestrian tram rail_urban rail rail_electric rail_fast ship" speed="36.11" length="83.47" width="3.50" shape="-101.05,-686.96 -99.37,-684.43 -91.86,-673.56 -82.86,-661.25 -63.09,-635.34 -51.46,-619.84"/>
    </edge>
    <edge id=":29_2" function="internal">
        <lane id=":29_2_0" index="0" disallow="pedestrian tram rail_urban rail rail_electric rail_fast ship" speed="36.11" length="69.78" width="3.50" shape="-101.05,-686.96 -96.60,-679.91 -92.44,-672.69 -88.59,-665.30 -85.06,-657.76 -81.87,-650.06 -79.04,-642.22 -76.58,-634.26 -74.49,-626.20 -73.80,-623.15"/>
    </edge>
    <edge id=":29_3" function="internal">
        <lane id=":29_3_0" index="0" disallow="pedestrian tram rail_urban rail rail_electric rail_fast ship" speed="36.11" length="68.51" width="3.50" shape="-77.22,-622.40 -77.89,-625.39 -79.94,-633.31 -82.36,-641.12 -85.14,-648.81 -88.27,-656.36 -91.73,-663.77 -95.51,-671.02 -99.60,-678.11 -103.98,-685.04"/>
    </edge>
    <edge id=":30_0" function="internal">
        <lane id=":30_0_0" index="0" disallow="pedestrian tram rail_urban rail rail_electric rail_fast ship" speed="17.34" length="37.18" width="3.50" shape="-73.14,-591.17 -73.32,-592.16 -73.65,-593.10 -74.62,-594.87 -75.79,-596.50 -77.78,-598.77 -80.65,-601.59 -84.44,-604.89 -89.17,-608.64 -95.66,-613.40 -99.76,-616.27"/>
    </edge>
    <edge id=":30_1" function="internal">
        <lane id=":30_1_0" index="0" disallow="pedestrian tram rail_urban rail rail_electric rail_fast ship" speed="36.11" length="31.31" width="3.50" shape="-73.14,-591.17 -74.01,-601.56 -75.16,-610.87 -76.54,-619.10 -77.17,-622.19"/>
    </edge>
    <edge id=":30_2" function="internal">
        <lane id=":30_2_0" index="0" disallow="pedestrian tram rail_urban rail rail_electric rail_fast ship" speed="36.11" length="31.76" width="3.50" shape="-73.75,-622.94 -73.10,-619.77 -71.70,-611.40 -70.53,-601.94 -69.66,-591.47"/>
    </edge>
    <edge id=":30_3" function="internal">
        <lane id=":30_3_0" index="0" disallow="pedestrian tram rail_urban rail rail_electric rail_fast ship" speed="10.90" length="43.00" width="3.50" shape="-73.75,-622.94 -73.08,-619.22 -72.86,-617.36 -72.75,-615.50 -72.79,-613.62 -73.04,-611.77 -73.60,-609.99 -74.59,-608.42 -76.07,-607.29 -77.84,-606.75 -79.71,-606.69 -81.56,-606.95 -83.37,-607.42 -85.14,-608.03 -88.57,-609.53 -91.87,-611.29 -96.67,-614.20 -99.76,-616.27"/>
    </edge>
    <edge id=":30_4" function="internal">
        <lane id=":30_4_0" index="0" disallow="pedestrian tram rail_urban rail rail_electric rail_fast ship" speed="9.67" length="33.51" width="3.50" shape="-97.93,-619.24 -95.13,-617.38 -91.01,-614.86 -88.22,-613.36 -85.35,-612.05 -83.93,-611.52 -82.49,-611.10 -81.08,-610.84 -79.75,-610.79 -78.62,-611.01 -77.78,-611.48 -77.16,-612.24 -76.72,-613.31 -76.47,-614.62 -76.39,-616.06 -76.46,-617.55 -76.62,-619.06 -77.17,-622.19"/>
    </edge>
    <edge id=":30_5" function="internal">
        <lane id=":30_5_0" index="0" disallow="pedestrian tram rail_urban rail rail_electric rail_fast ship" speed="18.10" length="40.40" width="3.50" shape="-97.93,-619.24 -93.48,-616.15 -86.68,-611.13 -81.73,-607.14 -77.74,-603.58 -74.71,-600.50 -72.61,-597.96 -71.33,-596.06 -70.28,-593.98 -69.88,-592.74 -69.66,-591.47"/>
    </edge>
    <edge id=":31_0" function="internal">
        <lane id=":31_0_0" index="0" disallow="pedestrian tram rail_urban rail rail_electric rail_fast ship" speed="36.11" length="46.76" width="3.50" shape="-3.40,-559.13 -6.49,-562.17 -9.98,-566.19 -13.19,-570.41 -20.28,-580.70 -23.93,-585.66 -27.20,-589.53 -30.03,-592.39 -33.12,-595.02"/>
    </edge>
    <edge id=":31_1" function="internal">
        <lane id=":31_1_0" index="0" disallow="pedestrian tram rail_urban rail rail_electric rail_fast ship" speed="28.83" length="50.71" width="3.50" shape="14.64,-580.05 7.29,-580.83 -0.01,-581.95 -6.21,-583.23 -12.33,-584.86 -17.34,-586.53 -22.22,-588.53 -26.00,-590.40 -29.64,-592.55 -33.12,-595.02"/>
    </edge>
    <edge id=":31_2" function="internal">
        <lane id=":31_2_0" index="0" disallow="pedestrian tram rail_urban rail rail_electric rail_fast ship" speed="28.26" length="48.70" width="3.50" shape="-30.96,-597.77 -27.68,-595.45 -24.23,-593.43 -20.63,-591.65 -15.96,-589.75 -11.15,-588.15 -5.25,-586.60 0.74,-585.37 7.81,-584.29 14.96,-583.53"/>
    </edge>
    <edge id=":31_3" function="internal">
        <lane id=":31_3_0" index="0" disallow="pedestrian tram rail_urban rail rail_electric rail_fast ship" speed="36.11" length="46.97" width="3.50" shape="-30.96,-597.77 -27.76,-595.04 -24.82,-592.08 -21.45,-588.10 -17.73,-583.06 -10.62,-572.76 -7.47,-568.61 -4.04,-564.67 -1.07,-561.75"/>
    </edge>

    <edge id="89361" from="31" to="24" priority="3" type="highway.residential" spreadType="center" length="70.00" shape="-6.16,-581.26 80.99,-562.04">
        <lane id="89361_0" index="0" disallow="pedestrian tram rail_urban rail rail_electric rail_fast ship" speed="36.11" length="70.00" width="3.50" customShape="1" shape="14.96,-583.53 20.45,-583.02 26.93,-582.18 32.37,-581.14 39.68,-579.29 47.38,-576.94 55.91,-573.89 63.39,-570.92 69.32,-568.17 80.99,-562.04"/>
    </edge>
    <edge id="89362" from="27" to="31" priority="3" type="highway.residential" spreadType="center" length="70.00" shape="80.58,-558.31 -6.91,-577.85">
        <lane id="89362_0" index="0" disallow="pedestrian tram rail_urban rail rail_electric rail_fast ship" speed="36.11" length="70.00" width="3.50" customShape="1" shape="80.58,-558.31 68.40,-564.72 62.56,-567.46 55.16,-570.43 46.70,-573.47 39.08,-575.82 31.85,-577.67 26.52,-578.70 20.11,-579.54 14.64,-580.05"/>
    </edge>
    <edge id="89364" from="29" to="31" priority="3" type="highway.residential" spreadType="center" length="30.38" shape="-75.80,-643.83 -5.31,-580.83">
        <lane id="89364_0" index="0" disallow="pedestrian tram rail_urban rail rail_electric rail_fast ship" speed="36.11" length="30.38" width="3.50" customShape="1" shape="-51.46,-619.84 -46.82,-613.21 -44.30,-610.05 -40.84,-606.37 -36.77,-602.59 -30.89,-597.71"/>
    </edge>
    <edge id="89365" from="31" to="29" priority="3" type="highway.residential" spreadType="center" length="31.32" shape="-7.64,-578.22 -78.13,-641.22">
        <lane id="89365_0" index="0" disallow="pedestrian tram rail_urban rail rail_electric rail_fast ship" speed="36.11" length="31.32" width="3.50" customShape="1" shape="-33.12,-595.02 -39.09,-599.97 -43.30,-603.89 -46.91,-607.72 -49.56,-611.02 -54.33,-617.83"/>
    </edge>
    <edge id="89367" from="26" to="29" priority="3" type="highway.residential" spreadType="center" length="70.00" shape="-129.66,-750.25 -75.39,-643.30">
        <lane id="89367_0" index="0" disallow="pedestrian tram rail_urban rail rail_electric rail_fast ship" speed="36.11" length="70.00" width="3.50" customShape="1" shape="-129.66,-750.25 -128.26,-745.02 -125.51,-734.79 -123.23,-727.57 -120.91,-721.43 -118.24,-715.45 -114.53,-708.27 -111.25,-702.59 -101.05,-686.95"/>
    </edge>
    <edge id="89368" from="29" to="11" priority="3" type="highway.residential" spreadType="center" length="70.00" shape="-78.51,-641.71 -132.75,-748.27">
        <lane id="89368_0" index="0" disallow="pedestrian tram rail_urban rail rail_electric rail_fast ship" speed="36.11" length="70.00" width="3.50" customShape="1" shape="-103.98,-685.04 -114.18,-700.69 -117.51,-706.43 -121.26,-713.67 -124.00,-719.73 -126.37,-725.94 -128.70,-733.22 -131.47,-743.48 -132.75,-748.27"/>
    </edge>
    <edge id="89410" from="31" to="25" priority="3" type="highway.residential" spreadType="center" length="70.00" shape="-5.07,-580.55 41.91,-510.37">
        <lane id="89410_0" index="0" disallow="pedestrian tram rail_urban rail rail_electric rail_fast ship" speed="36.11" length="70.00" width="3.50" customShape="1" shape="-1.07,-561.75 0.82,-560.07 6.68,-555.25 18.39,-546.42 25.15,-541.12 30.12,-536.81 35.19,-531.87 36.84,-529.96 37.97,-528.28 38.86,-526.47 39.47,-524.54 40.55,-518.57 41.56,-513.10 41.91,-510.37"/>
    </edge>
    <edge id="89411" from="28" to="31" priority="3" type="highway.residential" spreadType="center" length="70.00" shape="38.66,-507.48 -7.98,-578.62">
        <lane id="89411_0" index="0" disallow="pedestrian tram rail_urban rail rail_electric rail_fast ship" speed="36.11" length="70.00" width="3.50" customShape="1" shape="38.66,-507.48 38.26,-511.44 37.32,-516.85 36.25,-522.81 35.81,-524.54 35.15,-526.12 34.22,-527.61 32.72,-529.39 27.74,-534.24 22.85,-538.48 16.13,-543.74 4.41,-552.58 -1.49,-557.44 -3.44,-559.18"/>
    </edge>
    <edge id="89494" from="14" to="30" priority="3" type="highway.residential" spreadType="center" length="68.41" shape="-160.45,-645.65 -81.17,-612.12">
        <lane id="89494_0" index="0" disallow="pedestrian tram rail_urban rail rail_electric rail_fast ship" speed="36.11" length="68.41" width="3.50" customShape="1" shape="-160.45,-645.65 -152.79,-640.83 -145.01,-636.15 -139.22,-633.06 -133.73,-630.54 -129.46,-628.98 -124.13,-627.47 -113.32,-624.98 -107.48,-623.38 -103.20,-621.88 -99.52,-620.23 -97.93,-619.24"/>
    </edge>
    <edge id="89495" from="30" to="6" priority="3" type="highway.residential" spreadType="center" length="68.42" shape="-82.53,-608.90 -162.30,-642.68">
        <lane id="89495_0" index="0" disallow="pedestrian tram rail_urban rail rail_electric rail_fast ship" speed="36.11" length="68.42" width="3.50" customShape="1" shape="-99.76,-616.27 -101.32,-617.22 -104.84,-618.76 -109.00,-620.19 -114.76,-621.72 -125.57,-624.23 -131.00,-625.80 -135.36,-627.43 -140.96,-630.02 -146.81,-633.15 -154.64,-637.86 -162.30,-642.68"/>
    </edge>
    <edge id="89554" from="30" to="8" priority="3" type="highway.residential" spreadType="center" length="70.00" shape="-80.16,-610.84 -65.77,-521.58">
        <lane id="89554_0" index="0" disallow="pedestrian tram rail_urban rail rail_electric rail_fast ship" speed="36.11" length="70.00" width="3.50" customShape="1" shape="-69.66,-591.47 -67.88,-564.71 -66.94,-549.10 -65.87,-526.92 -65.77,-521.58"/>
    </edge>
    <edge id="89555" from="15" to="30" priority="3" type="highway.residential" spreadType="center" length="70.07" shape="-69.27,-521.28 -83.61,-610.28">
        <lane id="89555_0" index="0" disallow="pedestrian tram rail_urban rail rail_electric rail_fast ship" speed="36.11" length="70.07" width="3.50" customShape="1" shape="-69.27,-521.28 -69.37,-526.84 -70.43,-548.95 -71.38,-564.52 -73.15,-591.24"/>
    </edge>
    <edge id="89557" from="29" to="30" priority="3" type="highway.residential" spreadType="center" length="0.26" shape="-75.24,-642.26 -80.17,-610.17">
        <lane id="89557_0" index="0" disallow="pedestrian tram rail_urban rail rail_electric rail_fast ship" speed="36.11" length="0.26" width="3.50" customShape="1" shape="-73.80,-623.15 -73.77,-623.03 -73.75,-622.90"/>
    </edge>
    <edge id="89558" from="30" to="29" priority="3" type="highway.residential" spreadType="center" length="0.23" shape="-83.62,-610.70 -78.70,-642.79">
        <lane id="89558_0" index="0" disallow="pedestrian tram rail_urban rail rail_electric rail_fast ship" speed="36.11" length="0.23" width="3.50" customShape="1" shape="-77.17,-622.19 -77.19,-622.29 -77.22,-622.41"/>
    </edge>

    <junction id="11" type="dead_end" x="-132.75" y="-748.27" incLanes="89368_0" intLanes="" shape="-134.44,-747.82 -131.06,-748.72" rightOfWay="edgePriority"/>
    <junction id="14" type="dead_end" x="-160.45" y="-645.65" incLanes="" intLanes="" shape="-161.38,-644.17 -159.52,-647.13" rightOfWay="edgePriority"/>
    <junction id="15" type="dead_end" x="-69.27" y="-521.28" incLanes="" intLanes="" shape="-67.52,-521.32 -71.01,-521.25" rightOfWay="edgePriority"/>
    <junction id="24" type="dead_end" x="80.99" y="-562.04" incLanes="89361_0" intLanes="" shape="81.80,-563.59 80.17,-560.49" rightOfWay="edgePriority"/>
    <junction id="25" type="dead_end" x="41.91" y="-510.37" incLanes="89410_0" intLanes="" shape="43.64,-510.59 40.17,-510.15" rightOfWay="edgePriority"/>
    <junction id="26" type="dead_end" x="-129.66" y="-750.25" incLanes="" intLanes="" shape="-131.35,-749.80 -127.97,-750.70" rightOfWay="edgePriority"/>
    <junction id="27" type="dead_end" x="80.58" y="-558.31" incLanes="" intLanes="" shape="81.39,-559.86 79.76,-556.77" rightOfWay="edgePriority"/>
    <junction id="28" type="dead_end" x="38.66" y="-507.48" incLanes="" intLanes="" shape="40.40,-507.66 36.92,-507.31" rightOfWay="edgePriority"/>
    <junction id="29" type="priority" x="-76.97" y="-642.53" incLanes="89365_0 89367_0 89558_0" intLanes=":29_0_0 :29_1_0 :29_2_0 :29_3_0" shape="-55.76,-616.83 -50.03,-620.84 -99.58,-687.91 -105.44,-684.08 -99.10,-673.91 -93.67,-664.12 -89.04,-654.37 -85.11,-644.33 -81.78,-633.67 -78.93,-622.04 -72.09,-623.52 -71.99,-626.91 -70.03,-627.83 -66.81,-626.78 -62.96,-624.26 -59.07,-620.77">
        <request index="0" response="0000" foes="1100" cont="0"/>
        <request index="1" response="0000" foes="0000" cont="0"/>
        <request index="2" response="0001" foes="0001" cont="0"/>
        <request index="3" response="0001" foes="0001" cont="0"/>
    </junction>
    <junction id="30" type="priority" x="-81.88" y="-610.53" incLanes="89555_0 89557_0 89494_0" intLanes=":30_0_0 :30_1_0 :30_2_0 :30_3_0 :30_4_0 :30_5_0" shape="-74.89,-591.12 -67.91,-591.58 -68.35,-598.39 -68.70,-603.43 -69.11,-607.57 -69.71,-611.69 -70.64,-616.64 -72.05,-623.32 -78.88,-621.81 -78.87,-617.94 -80.71,-615.97 -83.91,-615.59 -88.01,-616.47 -92.54,-618.29 -97.01,-620.73 -100.68,-614.78 -92.95,-609.80 -86.59,-605.24 -81.61,-601.09 -78.00,-597.35 -75.76,-594.03">
        <request index="0" response="000000" foes="001000" cont="0"/>
        <request index="1" response="000000" foes="111000" cont="0"/>
        <request index="2" response="000000" foes="100000" cont="0"/>
        <request index="3" response="000011" foes="100011" cont="0"/>
        <request index="4" response="000010" foes="000010" cont="0"/>
        <request index="5" response="001110" foes="001110" cont="0"/>
    </junction>
    <junction id="31" type="priority" x="-6.50" y="-579.55" incLanes="89411_0 89362_0 89364_0" intLanes=":31_0_0 :31_1_0 :31_2_0 :31_3_0" shape="-4.56,-557.83 0.09,-563.06 -2.67,-566.95 -2.62,-570.69 -0.33,-573.99 3.66,-576.55 8.78,-578.09 14.47,-578.30 15.12,-585.27 4.94,-586.01 -2.89,-586.49 -9.31,-587.36 -15.29,-589.31 -21.79,-592.98 -29.77,-599.05 -34.23,-593.67 -27.02,-586.93 -22.44,-581.22 -19.20,-575.98 -15.99,-570.70 -11.55,-564.83">
        <request index="0" response="0000" foes="0010" cont="0"/>
        <request index="1" response="1001" foes="1001" cont="0"/>
        <request index="2" response="0000" foes="0000" cont="0"/>
        <request index="3" response="0000" foes="0010" cont="0"/>
    </junction>
    <junction id="6" type="dead_end" x="-162.30" y="-642.68" incLanes="89495_0" intLanes="" shape="-163.23,-641.20 -161.37,-644.16" rightOfWay="edgePriority"/>
    <junction id="8" type="dead_end" x="-65.77" y="-521.58" incLanes="89554_0" intLanes="" shape="-64.02,-521.61 -67.52,-521.55" rightOfWay="edgePriority"/>

    <connection from="89362" to="89365" fromLane="0" toLane="0" contPos="-4.00" shape="14.64,-580.05 7.29,-580.83 -0.01,-581.95 -6.21,-583.23 -12.33,-584.86 -17.34,-586.53 -22.22,-588.53 -26.00,-590.40 -29.64,-592.55 -33.12,-595.02" via=":31_1_0" dir="s" state="m"/>
    <connection from="89364" to="89361" fromLane="0" toLane="0" contPos="-4.00" shape="-30.96,-597.77 -27.68,-595.45 -24.23,-593.43 -20.63,-591.65 -15.96,-589.75 -11.15,-588.15 -5.25,-586.60 0.74,-585.37 7.81,-584.29 14.96,-583.53" via=":31_2_0" dir="R" state="M"/>
    <connection from="89364" to="89410" fromLane="0" toLane="0" contPos="-4.00" shape="-30.96,-597.77 -27.76,-595.04 -24.82,-592.08 -21.45,-588.10 -17.73,-583.06 -10.62,-572.76 -7.47,-568.61 -4.04,-564.67 -1.07,-561.75" via=":31_3_0" dir="s" state="M"/>
    <connection from="89365" to="89368" fromLane="0" toLane="0" contPos="-4.00" shape="-54.29,-617.78 -65.90,-633.27 -85.71,-659.22 -94.74,-671.57 -102.27,-682.48 -103.98,-685.04" via=":29_0_0" dir="s" state="M"/>
    <connection from="89367" to="89364" fromLane="0" toLane="0" contPos="-4.00" shape="-101.05,-686.96 -99.37,-684.43 -91.86,-673.56 -82.86,-661.25 -63.09,-635.34 -51.46,-619.84" via=":29_1_0" dir="s" state="M"/>
    <connection from="89367" to="89557" fromLane="0" toLane="0" contPos="-4.00" shape="-101.05,-686.96 -96.60,-679.91 -92.44,-672.69 -88.59,-665.30 -85.06,-657.76 -81.87,-650.06 -79.04,-642.22 -76.58,-634.26 -74.49,-626.20 -73.80,-623.15" via=":29_2_0" dir="L" state="m"/>
    <connection from="89411" to="89365" fromLane="0" toLane="0" contPos="-4.00" shape="-3.44,-559.18 -6.49,-562.17 -9.98,-566.19 -13.19,-570.41 -20.28,-580.70 -23.93,-585.66 -27.20,-589.53 -30.03,-592.39 -33.12,-595.02" via=":31_0_0" dir="s" state="M"/>
    <connection from="89494" to="89558" fromLane="0" toLane="0" contPos="-4.00" shape="-97.81,-619.17 -95.13,-617.38 -91.01,-614.86 -88.22,-613.36 -85.35,-612.05 -83.93,-611.52 -82.49,-611.10 -81.08,-610.84 -79.75,-610.79 -78.62,-611.01 -77.78,-611.48 -77.16,-612.24 -76.72,-613.31 -76.47,-614.62 -76.39,-616.06 -76.46,-617.55 -76.62,-619.06 -77.17,-622.19" via=":30_4_0" dir="r" state="m"/>
    <connection from="89494" to="89554" fromLane="0" toLane="0" contPos="-4.00" shape="-97.81,-619.17 -93.48,-616.15 -86.68,-611.13 -81.73,-607.14 -77.74,-603.58 -74.71,-600.50 -72.61,-597.96 -71.33,-596.06 -70.28,-593.98 -69.88,-592.74 -69.66,-591.47" via=":30_5_0" dir="l" state="m"/>
    <connection from="89555" to="89495" fromLane="0" toLane="0" contPos="-4.00" shape="-73.14,-591.17 -73.32,-592.16 -73.65,-593.10 -74.62,-594.87 -75.79,-596.50 -77.78,-598.77 -80.65,-601.59 -84.44,-604.89 -89.17,-608.64 -95.66,-613.40 -99.76,-616.27" via=":30_0_0" dir="r" state="M"/>
    <connection from="89555" to="89558" fromLane="0" toLane="0" contPos="-4.00" shape="-73.14,-591.17 -74.01,-601.56 -75.16,-610.87 -76.54,-619.10 -77.17,-622.19" via=":30_1_0" dir="s" state="M"/>
    <connection from="89557" to="89554" fromLane="0" toLane="0" contPos="-4.00" shape="-73.75,-622.90 -73.10,-619.77 -71.70,-611.40 -70.53,-601.94 -69.66,-591.47" via=":30_2_0" dir="s" state="M"/>
    <connection from="89557" to="89495" fromLane="0" toLane="0" contPos="-4.00" shape="-73.75,-622.90 -73.08,-619.22 -72.86,-617.36 -72.75,-615.50 -72.79,-613.62 -73.04,-611.77 -73.60,-609.99 -74.59,-608.42 -76.07,-607.29 -77.84,-606.75 -79.71,-606.69 -81.56,-606.95 -83.37,-607.42 -85.14,-608.03 -88.57,-609.53 -91.87,-611.29 -96.67,-614.20 -99.76,-616.27" via=":30_3_0" dir="l" state="m"/>
    <connection from="89558" to="89368" fromLane="0" toLane="0" contPos="-4.00" shape="-77.22,-622.40 -77.89,-625.39 -79.94,-633.31 -82.36,-641.12 -85.14,-648.81 -88.27,-656.36 -91.73,-663.77 -95.51,-671.02 -99.60,-678.11 -103.98,-685.04" via=":29_3_0" dir="s" state="m"/>

    <connection from=":29_0" to="89368" fromLane="0" toLane="0" dir="s" state="M"/>
    <connection from=":29_1" to="89364" fromLane="0" toLane="0" dir="s" state="M"/>
    <connection from=":29_2" to="89557" fromLane="0" toLane="0" dir="L" state="M"/>
    <connection from=":29_3" to="89368" fromLane="0" toLane="0" dir="s" state="M"/>
    <connection from=":30_0" to="89495" fromLane="0" toLane="0" dir="r" state="M"/>
    <connection from=":30_1" to="89558" fromLane="0" toLane="0" dir="s" state="M"/>
    <connection from=":30_2" to="89554" fromLane="0" toLane="0" dir="s" state="M"/>
    <connection from=":30_3" to="89495" fromLane="0" toLane="0" dir="l" state="M"/>
    <connection from=":30_4" to="89558" fromLane="0" toLane="0" dir="r" state="M"/>
    <connection from=":30_5" to="89554" fromLane="0" toLane="0" dir="l" state="M"/>
    <connection from=":31_0" to="89365" fromLane="0" toLane="0" dir="s" state="M"/>
    <connection from=":31_1" to="89365" fromLane="0" toLane="0" dir="s" state="M"/>
    <connection from=":31_2" to="89361" fromLane="0" toLane="0" dir="R" state="M"/>
    <connection from=":31_3" to="89410" fromLane="0" toLane="0" dir="s" state="M"/>

</net>