<!-- generated on Tue Feb  9 22:16:14 2021 by Eclipse SUMO netconvert Version 1.8.0
<configuration xmlns:xsi="http://www.w3.org/2001/XMLSchema-instance" xsi:noNamespaceSchemaLocation="http://sumo.dlr.de/xsd/netconvertConfiguration.xsd">

    <input>
        <node-files value="./converted_scenarios/scenario-factory/HRV_Pula-24_1_I-1-1/HRV_Pula-24_1_I-1-1.nod.xml"/>
        <edge-files value="./converted_scenarios/scenario-factory/HRV_Pula-24_1_I-1-1/HRV_Pula-24_1_I-1-1.edg.xml"/>
        <connection-files value="./converted_scenarios/scenario-factory/HRV_Pula-24_1_I-1-1/HRV_Pula-24_1_I-1-1.con.xml"/>
        <tllogic-files value="./converted_scenarios/scenario-factory/HRV_Pula-24_1_I-1-1/HRV_Pula-24_1_I-1-1.tll.xml"/>
        <type-files value="/home/zen/commonroad-interactive-benchmarks/install/commonroad-map-tool/crmapconverter/sumo_map/templates/DEU.typ.xml"/>
    </input>

    <output>
        <output-file value="./converted_scenarios/scenario-factory/HRV_Pula-24_1_I-1-1/HRV_Pula-24_1_I-1-1.net.xml"/>
    </output>

    <processing>
        <geometry.remove.keep-edges.explicit value="true"/>
        <geometry.avoid-overlap value="true"/>
        <offset.disable-normalization value="true"/>
    </processing>

    <junctions>
        <no-turnarounds value="true"/>
        <junctions.internal-link-detail value="20"/>
    </junctions>

    <report>
        <aggregate-warnings value="5"/>
    </report>

    <random_number>
        <seed value="1234"/>
    </random_number>

</configuration>
--><net xmlns:xsi="http://www.w3.org/2001/XMLSchema-instance" version="1.6" junctionCornerDetail="5" junctionLinkDetail="20" limitTurnSpeed="5.50" xsi:noNamespaceSchemaLocation="http://sumo.dlr.de/xsd/net_file.xsd">

    <location netOffset="0.00,0.00" convBoundary="694.14,-1080.69,835.42,-810.14" origBoundary="692.80,-1080.69,835.42,-810.14" projParameter="!"/>

    <type id="highway.bridleway" priority="1" speed="2.78" allow="pedestrian" oneway="1" width="2.00"/>
    <type id="highway.bus_guideway" priority="1" speed="27.78" allow="bus" oneway="1"/>
    <type id="highway.cycleway" priority="1" speed="8.33" allow="bicycle" oneway="0" width="1.00"/>
    <type id="highway.footway" priority="1" speed="2.78" allow="pedestrian" oneway="1" width="2.00"/>
    <type id="highway.ford" priority="1" speed="2.78" allow="army" oneway="0"/>
    <type id="highway.living_street" priority="2" speed="2.78" disallow="tram rail_urban rail rail_electric rail_fast ship" oneway="0"/>
    <type id="highway.motorway" priority="14" speed="39.44" allow="private emergency authority army vip passenger hov taxi bus coach delivery truck trailer motorcycle evehicle custom1 custom2" oneway="1"/>
    <type id="highway.motorway_link" priority="9" speed="22.22" allow="private emergency authority army vip passenger hov taxi bus coach delivery truck trailer motorcycle evehicle custom1 custom2" oneway="1"/>
    <type id="highway.path" priority="1" speed="2.78" allow="pedestrian bicycle" oneway="0" width="2.00"/>
    <type id="highway.pedestrian" priority="1" speed="2.78" allow="pedestrian" oneway="1" width="2.00"/>
    <type id="highway.primary" priority="12" speed="27.78" disallow="pedestrian tram rail_urban rail rail_electric rail_fast ship" oneway="0"/>
    <type id="highway.primary_link" priority="7" speed="22.22" disallow="pedestrian tram rail_urban rail rail_electric rail_fast ship" oneway="0"/>
    <type id="highway.raceway" priority="15" speed="83.33" allow="vip" oneway="0"/>
    <type id="highway.residential" priority="3" speed="13.89" disallow="pedestrian tram rail_urban rail rail_electric rail_fast ship" oneway="0"/>
    <type id="highway.secondary" priority="11" speed="27.78" disallow="pedestrian tram rail_urban rail rail_electric rail_fast ship" oneway="0"/>
    <type id="highway.secondary_link" priority="6" speed="22.22" disallow="pedestrian tram rail_urban rail rail_electric rail_fast ship" oneway="0"/>
    <type id="highway.service" priority="1" speed="5.56" allow="pedestrian delivery bicycle" oneway="0"/>
    <type id="highway.stairs" priority="1" speed="1.39" allow="pedestrian" oneway="1" width="2.00"/>
    <type id="highway.step" priority="1" speed="1.39" allow="pedestrian" oneway="1" width="2.00"/>
    <type id="highway.steps" priority="1" speed="1.39" allow="pedestrian" oneway="1" width="2.00"/>
    <type id="highway.tertiary" priority="10" speed="22.22" disallow="pedestrian tram rail_urban rail rail_electric rail_fast ship" oneway="0"/>
    <type id="highway.tertiary_link" priority="5" speed="22.22" disallow="pedestrian tram rail_urban rail rail_electric rail_fast ship" oneway="0"/>
    <type id="highway.track" priority="1" speed="5.56" allow="pedestrian motorcycle moped bicycle" oneway="0"/>
    <type id="highway.trunk" priority="13" speed="27.78" disallow="pedestrian bicycle tram rail_urban rail rail_electric rail_fast ship" oneway="0"/>
    <type id="highway.trunk_link" priority="8" speed="22.22" disallow="pedestrian bicycle tram rail_urban rail rail_electric rail_fast ship" oneway="0"/>
    <type id="highway.unclassified" priority="4" speed="13.89" disallow="pedestrian tram rail_urban rail rail_electric rail_fast ship" oneway="0"/>
    <type id="highway.unsurfaced" priority="1" speed="8.33" disallow="tram rail_urban rail rail_electric rail_fast ship" oneway="0"/>
    <type id="railway.highspeed" priority="21" speed="69.44" allow="rail_fast" oneway="1"/>
    <type id="railway.light_rail" priority="19" speed="27.78" allow="rail_urban" oneway="1"/>
    <type id="railway.preserved" priority="16" speed="27.78" allow="rail" oneway="1"/>
    <type id="railway.rail" priority="20" speed="44.44" allow="rail" oneway="1"/>
    <type id="railway.subway" priority="18" speed="27.78" allow="rail_urban" oneway="1"/>
    <type id="railway.tram" priority="17" speed="13.89" allow="tram" oneway="1"/>

    <edge id=":32_0" function="internal">
        <lane id=":32_0_0" index="0" disallow="pedestrian tram rail_urban rail rail_electric rail_fast ship" speed="36.11" length="0.10" width="3.49" shape="696.04,-881.88 696.04,-881.88"/>
    </edge>
    <edge id=":43_0" function="internal">
        <lane id=":43_0_0" index="0" disallow="pedestrian tram rail_urban rail rail_electric rail_fast ship" speed="36.11" length="19.23" width="3.50" shape="734.97,-941.73 735.09,-941.10 737.96,-928.29 739.28,-922.99"/>
        <lane id=":43_0_1" index="1" disallow="pedestrian tram rail_urban rail rail_electric rail_fast ship" speed="36.11" length="19.44" width="3.50" shape="734.62,-941.68 734.97,-938.97 736.85,-922.37"/>
    </edge>
    <edge id=":43_2" function="internal">
        <lane id=":43_2_0" index="0" disallow="pedestrian tram rail_urban rail rail_electric rail_fast ship" speed="15.68" length="18.66" width="3.50" shape="734.11,-941.60 734.11,-941.33 733.76,-937.22 733.07,-933.15 731.93,-928.64 730.29,-923.75 730.17,-923.45"/>
    </edge>
    <edge id=":44_0" function="internal">
        <lane id=":44_0_0" index="0" disallow="pedestrian tram rail_urban rail rail_electric rail_fast ship" speed="36.11" length="23.45" width="3.43" shape="763.74,-898.03 743.85,-892.52 741.13,-891.80"/>
    </edge>
    <edge id=":44_1" function="internal">
        <lane id=":44_1_0" index="0" disallow="pedestrian tram rail_urban rail rail_electric rail_fast ship" speed="8.41" length="15.93" width="3.50" shape="747.25,-901.30 747.50,-901.14 749.11,-900.50 750.80,-900.12 753.11,-899.93 756.00,-900.07 759.43,-900.61 762.82,-901.41"/>
    </edge>
    <edge id=":44_2" function="internal">
        <lane id=":44_2_0" index="0" disallow="pedestrian tram rail_urban rail rail_electric rail_fast ship" speed="6.97" length="10.68" width="3.43" shape="742.47,-900.00 743.60,-897.68 744.20,-896.05 744.44,-894.91 744.46,-894.33 744.39,-893.76 744.17,-893.22 743.82,-892.77 743.35,-892.43 741.13,-891.80"/>
    </edge>
    <edge id=":44_3" function="internal">
        <lane id=":44_3_0" index="0" disallow="pedestrian tram rail_urban rail rail_electric rail_fast ship" speed="36.11" length="21.11" width="3.50" shape="742.48,-895.77 742.80,-895.85 762.82,-901.41"/>
    </edge>
    <edge id=":45_0" function="internal">
        <lane id=":45_0_0" index="0" disallow="pedestrian tram rail_urban rail rail_electric rail_fast ship" speed="4.31" length="1.48" width="3.50" shape="763.43,-983.20 763.91,-983.15 764.91,-983.14"/>
    </edge>
    <edge id=":46_0" function="internal">
        <lane id=":46_0_0" index="0" disallow="pedestrian tram rail_urban rail rail_electric rail_fast ship" speed="3.14" length="1.32" width="3.50" shape="803.57,-995.85 803.67,-996.02 804.08,-997.07"/>
    </edge>
    <edge id=":46_1" function="internal">
        <lane id=":46_1_0" index="0" disallow="pedestrian tram rail_urban rail rail_electric rail_fast ship" speed="36.11" length="11.54" width="3.50" shape="804.82,-991.71 815.86,-995.07"/>
    </edge>
    <edge id=":48_0" function="internal">
        <lane id=":48_0_0" index="0" disallow="pedestrian tram rail_urban rail rail_electric rail_fast ship" speed="8.53" length="15.95" width="3.50" shape="787.86,-899.27 786.79,-899.92 785.17,-900.63 782.90,-901.22 780.57,-901.47 777.63,-901.38 774.73,-900.95 772.43,-900.40"/>
    </edge>
    <edge id=":48_1" function="internal">
        <lane id=":48_1_0" index="0" disallow="pedestrian tram rail_urban rail rail_electric rail_fast ship" speed="8.89" length="17.79" width="3.50" shape="793.21,-900.82 793.28,-901.50 793.85,-903.79 794.53,-905.42 795.43,-906.95 796.54,-908.33 797.83,-909.54 799.77,-910.88 801.89,-911.93 804.67,-912.89"/>
    </edge>
    <edge id=":48_2" function="internal">
        <lane id=":48_2_0" index="0" disallow="pedestrian tram rail_urban rail rail_electric rail_fast ship" speed="36.11" length="34.42" width="3.50" shape="805.62,-909.52 789.03,-904.96 772.43,-900.40"/>
    </edge>
    <edge id=":48_3" function="internal">
        <lane id=":48_3_0" index="0" disallow="pedestrian tram rail_urban rail rail_electric rail_fast ship" speed="36.11" length="34.39" width="3.50" shape="771.51,-903.78 788.10,-908.33 804.67,-912.89"/>
    </edge>
    <edge id=":49_0" function="internal">
        <lane id=":49_0_0" index="0" disallow="pedestrian tram rail_urban rail rail_electric rail_fast ship" speed="5.19" length="5.47" width="3.50" shape="740.93,-891.75 742.19,-891.77 742.01,-891.28 741.91,-889.72 742.16,-887.61"/>
    </edge>
    <edge id=":49_1" function="internal">
        <lane id=":49_1_0" index="0" disallow="pedestrian tram rail_urban rail rail_electric rail_fast ship" speed="36.11" length="14.76" width="3.50" shape="728.54,-890.45 733.30,-891.76 737.12,-893.54 740.47,-895.07 742.29,-895.71"/>
    </edge>
    <edge id=":49_2" function="internal">
        <lane id=":49_2_0" index="0" disallow="pedestrian tram rail_urban rail rail_electric rail_fast ship" speed="7.91" length="13.22" width="3.50" shape="728.54,-890.45 732.47,-891.22 734.16,-891.15 735.79,-890.72 737.30,-889.95 738.64,-888.90 740.15,-887.22 740.25,-887.07"/>
    </edge>
    <edge id=":50_0" function="internal">
        <lane id=":50_0_0" index="0" disallow="pedestrian tram rail_urban rail rail_electric rail_fast ship" speed="36.11" length="25.42" width="3.50" shape="830.36,-916.32 818.10,-912.95 805.85,-909.58"/>
    </edge>
    <edge id=":50_1" function="internal">
        <lane id=":50_1_0" index="0" disallow="pedestrian tram rail_urban rail rail_electric rail_fast ship" speed="36.11" length="25.42" width="3.50" shape="804.91,-912.96 817.18,-916.33 829.42,-919.69"/>
    </edge>
    <edge id=":51_0" function="internal">
        <lane id=":51_0_0" index="0" disallow="pedestrian tram rail_urban rail rail_electric rail_fast ship" speed="36.11" length="1.72" width="3.49" shape="712.47,-886.57 714.14,-886.97"/>
    </edge>
    <edge id=":52_0" function="internal">
        <lane id=":52_0_0" index="0" disallow="pedestrian tram rail_urban rail rail_electric rail_fast ship" speed="36.11" length="15.95" width="3.50" shape="711.65,-1013.08 716.13,-1009.86 724.80,-1004.05"/>
    </edge>
    <edge id=":52_1" function="internal">
        <lane id=":52_1_0" index="0" disallow="pedestrian tram rail_urban rail rail_electric rail_fast ship" speed="15.51" length="13.74" width="3.50" shape="710.61,-1011.89 712.75,-1009.08 715.56,-1004.81 718.08,-1000.38"/>
    </edge>

    <edge id="18446" from="33" to="52" priority="3" type="highway.residential" spreadType="center" length="18.33">
        <lane id="18446_0" index="0" disallow="pedestrian tram rail_urban rail rail_electric rail_fast ship" speed="36.11" length="18.33" width="3.50" customShape="1" shape="697.45,-1024.68 700.69,-1021.82 711.20,-1012.56"/>
    </edge>
    <edge id="18448" from="52" to="45" priority="3" type="highway.residential" spreadType="center" length="43.80">
        <lane id="18448_0" index="0" disallow="pedestrian tram rail_urban rail rail_electric rail_fast ship" speed="36.11" length="43.80" width="3.50" customShape="1" shape="724.65,-1003.80 749.39,-988.26 761.74,-980.50"/>
    </edge>
    <edge id="18459" from="43" to="44" priority="3" type="highway.residential" spreadType="center" length="23.03">
        <lane id="18459_0" index="0" disallow="pedestrian tram rail_urban rail rail_electric rail_fast ship" speed="36.11" length="23.03" width="3.50" customShape="1" shape="739.28,-922.99 744.86,-900.65"/>
        <lane id="18459_1" index="1" disallow="pedestrian tram rail_urban rail rail_electric rail_fast ship" speed="36.11" length="23.07" width="3.50" customShape="1" shape="735.76,-922.09 739.98,-905.74 741.60,-899.77"/>
    </edge>
    <edge id="18529" from="49" to="22" priority="3" type="highway.residential" spreadType="center" length="80.39">
        <lane id="18529_0" index="0" disallow="pedestrian tram rail_urban rail rail_electric rail_fast ship" speed="36.11" length="80.39" width="3.50" customShape="1" shape="741.70,-887.48 761.38,-818.04 763.62,-810.14"/>
    </edge>
    <edge id="18541" from="52" to="43" priority="3" type="highway.residential" spreadType="center" length="61.12">
        <lane id="18541_0" index="0" disallow="pedestrian tram rail_urban rail rail_electric rail_fast ship" speed="36.11" length="61.12" width="3.50" customShape="1" shape="721.15,-1001.21 730.10,-968.34 731.61,-961.27 733.40,-950.58 734.76,-941.70"/>
    </edge>
    <edge id="18647" from="37" to="48" priority="3" type="highway.residential" spreadType="center" length="66.05">
        <lane id="18647_0" index="0" disallow="pedestrian tram rail_urban rail rail_electric rail_fast ship" speed="36.11" length="66.05" width="3.50" customShape="1" shape="809.68,-836.82 802.08,-863.04 791.29,-900.26"/>
    </edge>
    <edge id="18683" from="32" to="51" priority="3" type="highway.residential" spreadType="center" length="16.97">
        <lane id="18683_0" index="0" disallow="pedestrian tram rail_urban rail rail_electric rail_fast ship" speed="36.11" length="16.97" width="3.49" customShape="1" shape="696.04,-881.88 696.16,-881.93 711.73,-888.35"/>
    </edge>
    <edge id="18685" from="51" to="49" priority="3" type="highway.residential" spreadType="center" length="14.82">
        <lane id="18685_0" index="0" disallow="pedestrian tram rail_urban rail rail_electric rail_fast ship" speed="36.11" length="14.82" width="3.49" customShape="1" shape="714.10,-887.12 728.54,-890.45"/>
    </edge>
    <edge id="18700" from="39" to="40" priority="3" type="highway.residential" spreadType="center" length="70.00">
        <lane id="18700_0" index="0" disallow="pedestrian tram rail_urban rail rail_electric rail_fast ship" speed="36.11" length="70.00" width="3.49" customShape="1" shape="752.59,-1080.69 753.18,-1079.86 758.58,-1071.89 770.76,-1052.60 776.35,-1044.15 781.12,-1037.59 785.59,-1032.08 790.01,-1027.20 793.31,-1023.97"/>
    </edge>
    <edge id="18701" from="46" to="31" priority="3" type="highway.residential" spreadType="center" length="82.11">
        <lane id="18701_0" index="0" disallow="pedestrian tram rail_urban rail rail_electric rail_fast ship" speed="36.11" length="82.11" width="3.50" customShape="1" shape="808.05,-998.91 801.74,-1012.50 800.54,-1014.49 799.52,-1015.88 798.59,-1016.74 797.02,-1017.69 794.34,-1019.04 792.52,-1020.12 791.20,-1021.13 787.11,-1025.18 782.65,-1030.13 778.17,-1035.70 773.38,-1042.30 767.78,-1050.76 759.60,-1063.72"/>
    </edge>
    <edge id="18703" from="45" to="46" priority="3" type="highway.residential" spreadType="center" length="40.68">
        <lane id="18703_0" index="0" disallow="pedestrian tram rail_urban rail rail_electric rail_fast ship" speed="36.11" length="40.68" width="3.50" customShape="1" shape="765.88,-979.94 791.71,-987.75 804.82,-991.71"/>
    </edge>
    <edge id="18833" from="43" to="6" priority="3" type="highway.residential" spreadType="center" length="23.44">
        <lane id="18833_0" index="0" disallow="pedestrian tram rail_urban rail rail_electric rail_fast ship" speed="36.11" length="23.44" width="3.50" customShape="1" shape="731.41,-922.71 722.07,-906.96 722.01,-906.85 719.45,-902.55"/>
    </edge>
    <edge id="18845" from="44" to="49" priority="3" type="highway.residential" spreadType="center" length="0.21" shape="751.71,-897.37 740.83,-887.60">
        <lane id="18845_0" index="0" disallow="pedestrian tram rail_urban rail rail_electric rail_fast ship" speed="36.11" length="0.21" width="3.43" customShape="1" shape="741.13,-891.80 740.93,-891.75"/>
    </edge>
    <edge id="18846" from="49" to="44" priority="3" type="highway.residential" spreadType="center" length="0.20" shape="738.52,-890.15 749.39,-899.94">
        <lane id="18846_0" index="0" disallow="pedestrian tram rail_urban rail rail_electric rail_fast ship" speed="36.11" length="0.20" width="3.50" customShape="1" shape="742.29,-895.71 742.48,-895.77"/>
    </edge>
    <edge id="18848" from="48" to="44" priority="3" type="highway.residential" spreadType="center" length="9.02" shape="790.02,-901.44 750.76,-896.90">
        <lane id="18848_0" index="0" disallow="pedestrian tram rail_urban rail rail_electric rail_fast ship" speed="36.11" length="9.02" width="3.50" customShape="1" shape="772.43,-900.40 768.09,-899.22 763.73,-898.03"/>
    </edge>
    <edge id="18849" from="44" to="48" priority="3" type="highway.residential" spreadType="center" length="9.02" shape="750.36,-900.38 789.62,-904.92">
        <lane id="18849_0" index="0" disallow="pedestrian tram rail_urban rail rail_electric rail_fast ship" speed="36.11" length="9.02" width="3.50" customShape="1" shape="762.82,-901.41 767.17,-902.59 771.52,-903.78"/>
    </edge>
    <edge id="18851" from="50" to="48" priority="3" type="highway.residential" spreadType="center" length="0.25" shape="818.40,-913.06 790.41,-901.55">
        <lane id="18851_0" index="0" disallow="pedestrian tram rail_urban rail rail_electric rail_fast ship" speed="36.11" length="0.25" width="3.50" customShape="1" shape="805.85,-909.58 805.73,-909.55 805.61,-909.52"/>
    </edge>
    <edge id="18852" from="48" to="50" priority="3" type="highway.residential" spreadType="center" length="0.27" shape="789.08,-904.79 817.07,-916.29">
        <lane id="18852_0" index="0" disallow="pedestrian tram rail_urban rail rail_electric rail_fast ship" speed="36.11" length="0.27" width="3.50" customShape="1" shape="804.67,-912.89 804.80,-912.92 804.93,-912.96"/>
    </edge>
    <edge id="18854" from="41" to="50" priority="3" type="highway.residential" spreadType="center" length="5.25" shape="835.42,-917.69 817.93,-912.92">
        <lane id="18854_0" index="0" disallow="pedestrian tram rail_urban rail rail_electric rail_fast ship" speed="36.11" length="5.25" width="3.50" customShape="1" shape="835.42,-917.69 830.59,-916.38 830.47,-916.35 830.35,-916.32"/>
    </edge>
    <edge id="18855" from="50" to="36" priority="3" type="highway.residential" spreadType="center" length="5.27" shape="817.02,-916.27 834.51,-921.06">
        <lane id="18855_0" index="0" disallow="pedestrian tram rail_urban rail rail_electric rail_fast ship" speed="36.11" length="5.27" width="3.50" customShape="1" shape="829.42,-919.69 829.56,-919.73 829.68,-919.76 834.51,-921.06"/>
    </edge>
    <edge id="19637" from="46" to="47" priority="3" type="highway.residential" spreadType="center" length="2.28">
        <lane id="19637_0" index="0" disallow="pedestrian tram rail_urban rail rail_electric rail_fast ship" speed="36.11" length="2.28" width="3.50" customShape="1" shape="815.86,-995.07 818.04,-995.73"/>
    </edge>
    <edge id="20983" from="34" to="32" priority="3" type="highway.residential" spreadType="center" length="15.68">
        <lane id="20983_0" index="0" disallow="pedestrian tram rail_urban rail rail_electric rail_fast ship" speed="36.11" length="15.68" width="3.49" customShape="1" shape="694.14,-867.59 693.21,-871.40 692.83,-874.18 692.80,-876.42 693.04,-878.08 693.61,-879.66 694.23,-880.59 695.06,-881.34 696.04,-881.88"/>
    </edge>

    <junction id="22" type="dead_end" x="763.62" y="-810.14" incLanes="18529_0" intLanes="" shape="765.31,-810.61 761.94,-809.66" rightOfWay="edgePriority"/>
    <junction id="31" type="dead_end" x="759.60" y="-1063.72" incLanes="18701_0" intLanes="" shape="758.12,-1062.78 761.08,-1064.65" rightOfWay="edgePriority"/>
    <junction id="32" type="priority" x="696.04" y="-881.88" incLanes="20983_0" intLanes=":32_0_0" shape="696.80,-880.30 695.46,-883.53 695.35,-883.48 695.25,-883.44 695.19,-883.41" rightOfWay="edgePriority">
        <request index="0" response="0" foes="0" cont="0"/>
    </junction>
    <junction id="33" type="dead_end" x="697.45" y="-1024.68" incLanes="" intLanes="" shape="696.29,-1023.37 698.60,-1025.99" rightOfWay="edgePriority"/>
    <junction id="34" type="dead_end" x="694.14" y="-867.59" incLanes="" intLanes="" shape="695.83,-868.00 692.44,-867.17" rightOfWay="edgePriority"/>
    <junction id="36" type="dead_end" x="834.51" y="-921.06" incLanes="18855_0" intLanes="" shape="834.05,-922.75 834.96,-919.38" rightOfWay="edgePriority"/>
    <junction id="37" type="dead_end" x="809.68" y="-836.82" incLanes="" intLanes="" shape="811.36,-837.30 808.00,-836.33" rightOfWay="edgePriority"/>
    <junction id="39" type="dead_end" x="752.59" y="-1080.69" incLanes="" intLanes="" shape="751.17,-1079.68 754.01,-1081.70" rightOfWay="edgePriority"/>
    <junction id="40" type="dead_end" x="793.31" y="-1023.97" incLanes="18700_0" intLanes="" shape="794.53,-1025.22 792.09,-1022.72" rightOfWay="edgePriority"/>
    <junction id="41" type="dead_end" x="835.42" y="-917.69" incLanes="" intLanes="" shape="834.97,-919.37 835.88,-916.00" rightOfWay="edgePriority"/>
    <junction id="43" type="priority" x="733.06" y="-920.78" incLanes="18541_0" intLanes=":43_0_0 :43_0_1 :43_2_0" shape="734.06,-921.65 740.98,-923.42 739.95,-927.35 739.11,-930.25 738.41,-932.63 737.79,-935.02 737.17,-937.96 736.49,-941.96 733.04,-941.43 733.60,-937.55 733.86,-934.56 733.72,-932.08 733.08,-929.70 731.84,-927.00 729.91,-923.60 732.92,-921.81 733.38,-922.37 733.59,-922.42 733.77,-922.32 733.92,-922.06">
        <request index="0" response="000" foes="000" cont="0"/>
        <request index="1" response="000" foes="000" cont="0"/>
        <request index="2" response="000" foes="000" cont="0"/>
    </junction>
    <junction id="44" type="priority" x="750.56" y="-898.64" incLanes="18848_0 18459_0 18459_1 18846_0" intLanes=":44_0_0 :44_1_0 :44_2_0 :44_3_0" shape="764.19,-896.35 762.36,-903.10 757.68,-901.89 753.81,-901.03 750.77,-900.53 748.55,-900.37 747.14,-900.56 746.55,-901.11 739.91,-899.31 736.61,-895.27 737.95,-889.29">
        <request index="0" response="0100" foes="0100" cont="0"/>
        <request index="1" response="0000" foes="1000" cont="0"/>
        <request index="2" response="0000" foes="1001" cont="0"/>
        <request index="3" response="0110" foes="0110" cont="0"/>
    </junction>
    <junction id="45" type="priority" x="771.78" y="-986.95" incLanes="18448_0" intLanes=":45_0_0" shape="766.39,-978.27 765.37,-981.62 764.44,-981.47 763.98,-981.49 763.53,-981.59 763.10,-981.75 762.67,-981.98 760.81,-979.02 762.59,-978.20 763.51,-978.01 764.45,-977.95 765.41,-978.04">
        <request index="0" response="0" foes="0" cont="0"/>
    </junction>
    <junction id="46" type="priority" x="797.63" y="-998.91" incLanes="18703_0" intLanes=":46_0_0 :46_1_0" shape="816.37,-993.40 815.35,-996.74 813.01,-996.55 812.01,-996.89 811.11,-997.52 810.32,-998.44 809.64,-999.65 806.46,-998.18 806.97,-996.03 806.77,-995.16 806.26,-994.44 805.44,-993.84 804.32,-993.39 805.33,-990.04">
        <request index="0" response="00" foes="00" cont="0"/>
        <request index="1" response="00" foes="00" cont="0"/>
    </junction>
    <junction id="47" type="dead_end" x="818.04" y="-995.73" incLanes="19637_0" intLanes="" shape="817.53,-997.40 818.55,-994.06"/>
    <junction id="48" type="priority" x="789.74" y="-903.17" incLanes="18647_0 18851_0 18849_0" intLanes=":48_0_0 :48_1_0 :48_2_0 :48_3_0" shape="789.61,-899.77 792.97,-900.75 794.01,-902.96 795.78,-904.13 798.38,-905.33 801.82,-906.56 806.09,-907.83 804.20,-914.57 771.06,-905.47 772.89,-898.71 777.74,-899.93 781.76,-900.74 784.96,-901.12 787.34,-901.09 788.89,-900.64">
        <request index="0" response="0100" foes="0100" cont="0"/>
        <request index="1" response="1100" foes="1100" cont="0"/>
        <request index="2" response="0000" foes="0011" cont="0"/>
        <request index="3" response="0000" foes="0010" cont="0"/>
    </junction>
    <junction id="49" type="priority" x="739.84" y="-889.00" incLanes="18845_0 18685_0" intLanes=":49_0_0 :49_1_0 :49_2_0" shape="740.01,-887.00 743.38,-887.96 745.16,-890.98 742.38,-897.59 728.15,-892.16 728.93,-888.75">
        <request index="0" response="000" foes="100" cont="0"/>
        <request index="1" response="000" foes="000" cont="0"/>
        <request index="2" response="001" foes="001" cont="0"/>
    </junction>
    <junction id="50" type="priority" x="817.64" y="-914.64" incLanes="18854_0 18852_0" intLanes=":50_0_0 :50_1_0" shape="830.82,-914.63 828.95,-921.38 804.44,-914.64 806.32,-907.90">
        <request index="0" response="00" foes="00" cont="0"/>
        <request index="1" response="00" foes="00" cont="0"/>
    </junction>
    <junction id="51" type="priority" x="713.41" y="-886.45" incLanes="18683_0" intLanes=":51_0_0" shape="714.50,-885.42 713.71,-888.82 711.06,-889.97 712.39,-886.74">
        <request index="0" response="0" foes="0" cont="0"/>
    </junction>
    <junction id="52" type="priority" x="726.19" y="-994.66" incLanes="18446_0" intLanes=":52_0_0 :52_1_0" shape="719.46,-1000.75 722.84,-1001.67 722.76,-1002.39 722.86,-1002.56 723.05,-1002.60 723.34,-1002.52 723.72,-1002.32 725.58,-1005.28 722.69,-1007.01 720.49,-1008.21 718.68,-1009.20 716.93,-1010.26 714.92,-1011.72 712.35,-1013.87 710.04,-1011.25 712.45,-1009.33 714.42,-1007.97 716.04,-1006.80 717.37,-1005.46 718.49,-1003.57">
        <request index="0" response="00" foes="00" cont="0"/>
        <request index="1" response="00" foes="00" cont="0"/>
    </junction>
    <junction id="6" type="dead_end" x="719.45" y="-902.55" incLanes="18833_0" intLanes="" shape="720.96,-901.66 717.95,-903.44" rightOfWay="edgePriority"/>

    <connection from="18446" to="18448" fromLane="0" toLane="0" contPos="-4.00" shape="703.93,-1018.97 708.29,-1015.48 716.13,-1009.86 728.35,-1001.67 746.31,-990.19" via=":52_0_0" dir="s" state="M"/>
    <connection from="18446" to="18541" fromLane="0" toLane="0" contPos="-4.00" shape="703.93,-1018.97 706.90,-1016.16 709.97,-1012.74 712.75,-1009.08 715.56,-1004.81 718.34,-999.93 721.04,-994.43 723.84,-987.85 726.46,-980.65 728.34,-974.81" via=":52_1_0" dir="L" state="M"/>
    <connection from="18448" to="18703" fromLane="0" toLane="0" contPos="-4.00" shape="752.46,-986.33 754.77,-985.12 757.22,-984.23 760.28,-983.54 763.91,-983.15 768.09,-983.13 772.77,-983.50 777.93,-984.29 784.06,-985.62 791.10,-987.57" via=":45_0_0" dir="s" state="M"/>
    <connection from="18459" to="18849" fromLane="0" toLane="0" contPos="-4.00" shape="743.39,-906.53 743.98,-904.85 744.86,-903.36 746.05,-902.10 747.50,-901.14 749.11,-900.50 750.80,-900.12 753.11,-899.93 756.00,-900.07 759.43,-900.61 762.82,-901.41" via=":44_1_0" dir="r" state="M"/>
    <connection from="18459" to="18845" fromLane="1" toLane="0" contPos="-4.00" shape="740.03,-905.58 740.81,-903.44 743.60,-897.68 744.20,-896.05 744.44,-894.91 744.46,-894.33 744.39,-893.76 744.17,-893.22 743.82,-892.77 743.35,-892.43 742.83,-892.20" via=":44_2_0" dir="l" state="M"/>
    <connection from="18541" to="18459" fromLane="0" toLane="0" contPos="-4.00" shape="733.72,-948.54 735.09,-941.10 737.96,-928.29 742.96,-908.20 743.34,-906.73" via=":43_0_0" dir="s" state="M"/>
    <connection from="18541" to="18459" fromLane="0" toLane="1" contPos="-4.00" shape="733.72,-948.54 734.97,-938.97 736.86,-922.32 738.02,-914.79 739.35,-908.32 739.95,-905.86" via=":43_0_1" dir="s" state="M"/>
    <connection from="18541" to="18833" fromLane="0" toLane="0" contPos="-4.00" shape="733.72,-948.54 734.08,-944.95 734.11,-941.33 733.76,-937.22 733.07,-933.15 731.93,-928.64 730.29,-923.75 728.12,-918.50 725.41,-912.93 722.13,-907.07" via=":43_2_0" dir="L" state="M"/>
    <connection from="18647" to="18848" fromLane="0" toLane="0" contPos="-4.00" shape="794.48,-889.26 793.51,-892.04 792.49,-894.15 791.22,-896.13 789.65,-897.88 788.29,-899.00 786.79,-899.92 785.17,-900.63 782.90,-901.22 780.57,-901.47 777.63,-901.38 774.73,-900.95 772.43,-900.40" via=":48_0_0" dir="r" state="m"/>
    <connection from="18647" to="18852" fromLane="0" toLane="0" contPos="-4.00" shape="794.48,-889.26 793.63,-892.70 793.12,-896.20 793.04,-899.15 793.28,-901.50 793.85,-903.79 794.53,-905.42 795.43,-906.95 796.54,-908.33 797.83,-909.54 799.77,-910.88 801.89,-911.93 804.67,-912.89" via=":48_1_0" dir="l" state="m"/>
    <connection from="18683" to="18685" fromLane="0" toLane="0" contPos="-4.00" shape="696.27,-881.98 700.11,-883.28 709.38,-885.82 727.59,-890.23 730.55,-890.92" via=":51_0_0" dir="s" state="M"/>