<routes>
	<vehicle depart="0.1" departLane="0" departPos="25.5654453913869" departSpeed="8.349894" id="319" type="bicycle">
		<route edges=":52_1 18541 18459"/>
	</vehicle>
	<vehicle depart="0.1" departLane="0" departPos="47.09780963799788" departSpeed="14.654357" id="325" type="passenger">
		<route edges=":52_0 18448 18703"/>
	</vehicle>
	<vehicle depart="0.1" departLane="0" departPos="4.324973577180051" departSpeed="3.4990787" id="333" type="motorcycle">
		<route edges="18446 18541 18459"/>
	</vehicle>
	<vehicle depart="0.1" departLane="0" departPos="13.737203757760698" departSpeed="3.6851552" id="328" type="truck">
		<route edges=":52_0 18448"/>
	</vehicle>
</routes>
