<!-- generated on Tue Feb  9 22:12:10 2021 by Eclipse SUMO netconvert Version 1.8.0
<configuration xmlns:xsi="http://www.w3.org/2001/XMLSchema-instance" xsi:noNamespaceSchemaLocation="http://sumo.dlr.de/xsd/netconvertConfiguration.xsd">

    <input>
        <node-files value="./converted_scenarios/scenario-factory/ESP_Ceuta-5_2_I-1-1/ESP_Ceuta-5_2_I-1-1.nod.xml"/>
        <edge-files value="./converted_scenarios/scenario-factory/ESP_Ceuta-5_2_I-1-1/ESP_Ceuta-5_2_I-1-1.edg.xml"/>
        <connection-files value="./converted_scenarios/scenario-factory/ESP_Ceuta-5_2_I-1-1/ESP_Ceuta-5_2_I-1-1.con.xml"/>
        <tllogic-files value="./converted_scenarios/scenario-factory/ESP_Ceuta-5_2_I-1-1/ESP_Ceuta-5_2_I-1-1.tll.xml"/>
        <type-files value="/home/zen/commonroad-interactive-benchmarks/install/commonroad-map-tool/crmapconverter/sumo_map/templates/DEU.typ.xml"/>
    </input>

    <output>
        <output-file value="./converted_scenarios/scenario-factory/ESP_Ceuta-5_2_I-1-1/ESP_Ceuta-5_2_I-1-1.net.xml"/>
    </output>

    <processing>
        <geometry.remove.keep-edges.explicit value="true"/>
        <geometry.avoid-overlap value="true"/>
        <offset.disable-normalization value="true"/>
    </processing>

    <junctions>
        <no-turnarounds value="true"/>
        <junctions.internal-link-detail value="20"/>
    </junctions>

    <report>
        <aggregate-warnings value="5"/>
    </report>

    <random_number>
        <seed value="1234"/>
    </random_number>

</configuration>
--><net xmlns:xsi="http://www.w3.org/2001/XMLSchema-instance" version="1.6" junctionCornerDetail="5" junctionLinkDetail="20" limitTurnSpeed="5.50" xsi:noNamespaceSchemaLocation="http://sumo.dlr.de/xsd/net_file.xsd">

    <location netOffset="0.00,0.00" convBoundary="494.46,609.96,744.25,848.06" origBoundary="494.46,608.05,744.25,848.06" projParameter="!"/>

    <type id="highway.bridleway" priority="1" speed="2.78" allow="pedestrian" oneway="1" width="2.00"/>
    <type id="highway.bus_guideway" priority="1" speed="27.78" allow="bus" oneway="1"/>
    <type id="highway.cycleway" priority="1" speed="8.33" allow="bicycle" oneway="0" width="1.00"/>
    <type id="highway.footway" priority="1" speed="2.78" allow="pedestrian" oneway="1" width="2.00"/>
    <type id="highway.ford" priority="1" speed="2.78" allow="army" oneway="0"/>
    <type id="highway.living_street" priority="2" speed="2.78" disallow="tram rail_urban rail rail_electric rail_fast ship" oneway="0"/>
    <type id="highway.motorway" priority="14" speed="39.44" allow="private emergency authority army vip passenger hov taxi bus coach delivery truck trailer motorcycle evehicle custom1 custom2" oneway="1"/>
    <type id="highway.motorway_link" priority="9" speed="22.22" allow="private emergency authority army vip passenger hov taxi bus coach delivery truck trailer motorcycle evehicle custom1 custom2" oneway="1"/>
    <type id="highway.path" priority="1" speed="2.78" allow="pedestrian bicycle" oneway="0" width="2.00"/>
    <type id="highway.pedestrian" priority="1" speed="2.78" allow="pedestrian" oneway="1" width="2.00"/>
    <type id="highway.primary" priority="12" speed="27.78" disallow="pedestrian tram rail_urban rail rail_electric rail_fast ship" oneway="0"/>
    <type id="highway.primary_link" priority="7" speed="22.22" disallow="pedestrian tram rail_urban rail rail_electric rail_fast ship" oneway="0"/>
    <type id="highway.raceway" priority="15" speed="83.33" allow="vip" oneway="0"/>
    <type id="highway.residential" priority="3" speed="13.89" disallow="pedestrian tram rail_urban rail rail_electric rail_fast ship" oneway="0"/>
    <type id="highway.secondary" priority="11" speed="27.78" disallow="pedestrian tram rail_urban rail rail_electric rail_fast ship" oneway="0"/>
    <type id="highway.secondary_link" priority="6" speed="22.22" disallow="pedestrian tram rail_urban rail rail_electric rail_fast ship" oneway="0"/>
    <type id="highway.service" priority="1" speed="5.56" allow="pedestrian delivery bicycle" oneway="0"/>
    <type id="highway.stairs" priority="1" speed="1.39" allow="pedestrian" oneway="1" width="2.00"/>
    <type id="highway.step" priority="1" speed="1.39" allow="pedestrian" oneway="1" width="2.00"/>
    <type id="highway.steps" priority="1" speed="1.39" allow="pedestrian" oneway="1" width="2.00"/>
    <type id="highway.tertiary" priority="10" speed="22.22" disallow="pedestrian tram rail_urban rail rail_electric rail_fast ship" oneway="0"/>
    <type id="highway.tertiary_link" priority="5" speed="22.22" disallow="pedestrian tram rail_urban rail rail_electric rail_fast ship" oneway="0"/>
    <type id="highway.track" priority="1" speed="5.56" allow="pedestrian motorcycle moped bicycle" oneway="0"/>
    <type id="highway.trunk" priority="13" speed="27.78" disallow="pedestrian bicycle tram rail_urban rail rail_electric rail_fast ship" oneway="0"/>
    <type id="highway.trunk_link" priority="8" speed="22.22" disallow="pedestrian bicycle tram rail_urban rail rail_electric rail_fast ship" oneway="0"/>
    <type id="highway.unclassified" priority="4" speed="13.89" disallow="pedestrian tram rail_urban rail rail_electric rail_fast ship" oneway="0"/>
    <type id="highway.unsurfaced" priority="1" speed="8.33" disallow="tram rail_urban rail rail_electric rail_fast ship" oneway="0"/>
    <type id="railway.highspeed" priority="21" speed="69.44" allow="rail_fast" oneway="1"/>
    <type id="railway.light_rail" priority="19" speed="27.78" allow="rail_urban" oneway="1"/>
    <type id="railway.preserved" priority="16" speed="27.78" allow="rail" oneway="1"/>
    <type id="railway.rail" priority="20" speed="44.44" allow="rail" oneway="1"/>
    <type id="railway.subway" priority="18" speed="27.78" allow="rail_urban" oneway="1"/>
    <type id="railway.tram" priority="17" speed="13.89" allow="tram" oneway="1"/>

    <edge id=":62_0" function="internal">
        <lane id=":62_0_0" index="0" disallow="pedestrian tram rail_urban rail rail_electric rail_fast ship" speed="11.17" length="28.69" width="3.50" shape="673.30,716.94 672.65,714.75 671.83,712.64 670.84,710.64 669.64,708.80 668.19,707.15 667.42,706.47 666.58,705.83 665.69,705.27 664.74,704.79 663.76,704.40 662.74,704.08 661.72,703.85 659.52,703.60 657.30,703.63 655.07,703.88 651.68,704.60"/>
    </edge>
    <edge id=":62_1" function="internal">
        <lane id=":62_1_0" index="0" disallow="pedestrian tram rail_urban rail rail_electric rail_fast ship" speed="36.11" length="33.54" width="3.50" shape="673.30,716.94 665.96,689.61 664.55,684.56"/>
    </edge>
    <edge id=":62_2" function="internal">
        <lane id=":62_2_0" index="0" disallow="pedestrian tram rail_urban rail rail_electric rail_fast ship" speed="12.06" length="34.15" width="3.50" shape="673.30,716.94 672.53,713.22 672.27,710.64 672.28,708.03 672.61,705.43 672.94,704.09 673.37,702.81 673.91,701.56 674.57,700.36 675.32,699.23 676.18,698.17 677.11,697.19 678.14,696.28 680.28,694.77 682.58,693.54 684.98,692.56 688.62,691.48"/>
    </edge>
    <edge id=":62_3" function="internal">
        <lane id=":62_3_0" index="0" disallow="pedestrian tram rail_urban rail rail_electric rail_fast ship" speed="11.05" length="28.50" width="3.50" shape="689.44,694.88 686.29,695.81 684.26,696.64 682.33,697.68 680.54,698.94 679.72,699.67 678.96,700.46 678.27,701.31 677.66,702.22 677.13,703.19 676.70,704.19 676.35,705.23 676.09,706.29 675.80,708.47 675.80,710.66 676.02,712.84 676.69,716.06"/>
    </edge>
    <edge id=":62_4" function="internal">
        <lane id=":62_4_0" index="0" disallow="pedestrian tram rail_urban rail rail_electric rail_fast ship" speed="36.11" length="38.99" width="3.50" shape="689.44,694.88 678.50,697.59 651.68,704.60"/>
    </edge>
    <edge id=":62_5" function="internal">
        <lane id=":62_5_0" index="0" disallow="pedestrian tram rail_urban rail rail_electric rail_fast ship" speed="11.69" length="30.47" width="3.50" shape="689.44,694.88 685.54,695.66 681.59,696.06 678.94,696.05 676.31,695.75 675.01,695.47 673.74,695.09 672.51,694.60 671.33,693.99 670.22,693.28 669.18,692.45 668.24,691.52 667.39,690.50 666.64,689.41 665.98,688.26 664.95,685.82 664.55,684.56"/>
    </edge>
    <edge id=":62_6" function="internal">
        <lane id=":62_6_0" index="0" disallow="pedestrian tram rail_urban rail rail_electric rail_fast ship" speed="10.68" length="25.04" width="3.50" shape="667.92,683.61 668.23,684.62 669.11,686.65 669.63,687.53 670.23,688.38 670.90,689.16 671.65,689.86 672.47,690.48 673.35,691.02 674.29,691.47 675.28,691.84 676.30,692.12 677.34,692.33 679.56,692.55 681.79,692.54 685.22,692.17 688.62,691.48"/>
    </edge>
    <edge id=":62_7" function="internal">
        <lane id=":62_7_0" index="0" disallow="pedestrian tram rail_urban rail rail_electric rail_fast ship" speed="36.11" length="33.61" width="3.50" shape="667.92,683.61 669.33,688.68 676.69,716.06"/>
    </edge>
    <edge id=":62_8" function="internal">
        <lane id=":62_8_0" index="0" disallow="pedestrian tram rail_urban rail rail_electric rail_fast ship" speed="11.42" length="30.26" width="3.50" shape="667.92,683.61 668.24,684.90 668.60,687.46 668.64,688.85 668.54,690.21 668.30,691.56 667.92,692.90 667.40,694.18 666.74,695.40 665.96,696.53 665.09,697.57 664.12,698.53 662.08,700.15 659.87,701.49 657.59,702.59 655.24,703.51 651.68,704.60"/>
    </edge>
    <edge id=":62_9" function="internal">
        <lane id=":62_9_0" index="0" disallow="pedestrian tram rail_urban rail rail_electric rail_fast ship" speed="10.38" length="24.64" width="3.50" shape="650.78,701.23 653.86,700.28 655.86,699.51 657.80,698.60 659.65,697.52 661.36,696.23 662.14,695.49 662.85,694.69 663.48,693.83 664.03,692.91 664.46,691.93 664.79,690.91 665.00,689.86 665.10,688.79 665.09,687.72 664.81,685.60 664.55,684.56"/>
    </edge>
    <edge id=":62_10" function="internal">
        <lane id=":62_10_0" index="0" disallow="pedestrian tram rail_urban rail rail_electric rail_fast ship" speed="36.11" length="39.08" width="3.50" shape="650.78,701.23 677.64,694.19 688.62,691.48"/>
    </edge>
    <edge id=":62_11" function="internal">
        <lane id=":62_11_0" index="0" disallow="pedestrian tram rail_urban rail rail_electric rail_fast ship" speed="12.18" length="34.29" width="3.50" shape="650.78,701.22 654.65,700.39 657.28,700.10 659.91,700.07 662.53,700.37 663.82,700.66 665.08,701.05 666.30,701.54 667.48,702.14 668.60,702.84 669.65,703.64 670.63,704.52 672.36,706.50 673.80,708.71 674.98,711.07 675.93,713.53 676.69,716.06"/>
    </edge>
    <edge id=":63_0" function="internal">
        <lane id=":63_0_0" index="0" disallow="pedestrian tram rail_urban rail rail_electric rail_fast ship" speed="36.11" length="38.86" width="3.50" shape="603.57,735.04 599.53,716.03 595.48,697.03"/>
    </edge>
    <edge id=":63_1" function="internal">
        <lane id=":63_1_0" index="0" disallow="pedestrian tram rail_urban rail rail_electric rail_fast ship" speed="12.48" length="34.41" width="3.50" shape="603.57,735.04 603.15,732.59 602.92,730.10 602.93,727.56 603.22,725.01 603.86,722.50 604.86,720.11 605.52,718.94 606.28,717.82 607.96,715.87 609.90,714.17 612.02,712.74 614.25,711.56 616.56,710.58 620.08,709.46"/>
    </edge>
    <edge id=":63_2" function="internal">
        <lane id=":63_2_0" index="0" disallow="pedestrian tram rail_urban rail rail_electric rail_fast ship" speed="11.50" length="29.04" width="3.50" shape="620.99,712.84 617.91,713.82 615.92,714.65 614.02,715.66 612.24,716.85 610.61,718.26 609.20,719.89 608.60,720.78 608.07,721.71 607.23,723.69 606.69,725.77 606.44,727.91 606.43,730.06 606.63,732.20 607.00,734.32"/>
    </edge>
    <edge id=":63_3" function="internal">
        <lane id=":63_3_0" index="0" disallow="pedestrian tram rail_urban rail rail_electric rail_fast ship" speed="12.08" length="34.84" width="3.50" shape="620.99,712.84 617.05,713.68 614.39,713.96 611.71,713.96 609.05,713.61 607.75,713.28 606.48,712.85 605.26,712.30 604.09,711.64 602.99,710.88 601.97,710.01 601.03,709.06 600.16,708.04 598.67,705.81 597.47,703.42 596.53,700.91 595.48,697.03"/>
    </edge>
    <edge id=":63_4" function="internal">
        <lane id=":63_4_0" index="0" disallow="pedestrian tram rail_urban rail rail_electric rail_fast ship" speed="11.07" length="29.10" width="3.50" shape="598.89,696.26 599.81,699.68 600.62,701.81 601.62,703.82 602.87,705.69 603.55,706.50 604.31,707.27 605.13,707.96 606.00,708.57 606.93,709.09 607.90,709.53 608.92,709.88 609.94,710.14 612.15,710.43 614.40,710.43 616.66,710.19 620.08,709.46"/>
    </edge>
    <edge id=":63_5" function="internal">
        <lane id=":63_5_0" index="0" disallow="pedestrian tram rail_urban rail rail_electric rail_fast ship" speed="36.11" length="38.91" width="3.50" shape="598.89,696.26 602.95,715.31 607.00,734.32"/>
    </edge>
    <edge id=":64_0" function="internal">
        <lane id=":64_0_0" index="0" disallow="pedestrian tram rail_urban rail rail_electric rail_fast ship" speed="11.06" length="28.78" width="3.50" shape="684.17,763.15 683.32,759.77 682.55,757.66 681.57,755.66 680.35,753.82 679.67,753.03 678.92,752.27 678.11,751.59 677.25,750.99 676.33,750.48 675.36,750.04 674.35,749.69 673.34,749.42 671.14,749.10 668.91,749.06 666.67,749.24 663.26,749.87"/>
    </edge>
    <edge id=":64_1" function="internal">
        <lane id=":64_1_0" index="0" disallow="pedestrian tram rail_urban rail rail_electric rail_fast ship" speed="36.11" length="39.21" width="3.50" shape="684.17,763.15 680.99,747.99 677.44,732.93 675.40,724.94"/>
    </edge>
    <edge id=":64_2" function="internal">
        <lane id=":64_2_0" index="0" disallow="pedestrian tram rail_urban rail rail_electric rail_fast ship" speed="12.68" length="30.87" width="3.50" shape="684.17,763.14 683.83,761.21 683.61,759.35 683.49,757.55 683.48,755.82 683.57,754.15 683.77,752.55 684.08,751.01 684.49,749.54 685.02,748.14 685.64,746.79 686.38,745.52 687.22,744.31 688.16,743.16 689.22,742.08 690.38,741.07 691.64,740.12 693.02,739.23 694.49,738.41 696.08,737.66"/>
    </edge>
    <edge id=":64_3" function="internal">
        <lane id=":64_3_0" index="0" disallow="pedestrian tram rail_urban rail rail_electric rail_fast ship" speed="9.11" length="17.11" width="3.50" shape="690.29,746.13 689.80,746.72 688.71,748.52 687.89,750.48 687.35,752.55 687.05,754.69 686.98,756.89 687.10,759.10 687.60,762.46"/>
    </edge>
    <edge id=":64_4" function="internal">
        <lane id=":64_4_0" index="0" disallow="pedestrian tram rail_urban rail rail_electric rail_fast ship" speed="36.11" length="27.16" width="3.50" shape="689.53,743.00 677.45,746.34 663.26,749.87"/>
    </edge>
    <edge id=":64_5" function="internal">
        <lane id=":64_5_0" index="0" disallow="pedestrian tram rail_urban rail rail_electric rail_fast ship" speed="9.73" length="22.08" width="3.50" shape="688.98,740.77 688.55,740.69 687.24,740.34 685.98,739.86 684.76,739.27 683.61,738.56 682.53,737.74 681.53,736.83 680.61,735.84 679.01,733.66 677.69,731.30 676.63,728.81 675.40,724.94"/>
    </edge>
    <edge id=":64_6" function="internal">
        <lane id=":64_6_0" index="0" disallow="pedestrian tram rail_urban rail rail_electric rail_fast ship" speed="36.11" length="4.03" width="3.50" shape="678.79,724.06 678.86,724.35 678.93,724.61 678.99,724.85 679.05,725.07 679.10,725.26 679.15,725.45 679.19,725.61 679.24,725.78 679.29,725.93 679.34,726.08 679.39,726.24 679.44,726.39 679.50,726.56 679.57,726.73 679.64,726.92 679.73,727.13 679.82,727.35 679.93,727.61 680.05,727.88"/>
    </edge>
    <edge id=":64_7" function="internal">
        <lane id=":64_7_0" index="0" disallow="pedestrian tram rail_urban rail rail_electric rail_fast ship" speed="36.11" length="39.41" width="3.50" shape="678.79,724.05 680.84,732.09 684.41,747.23 687.60,762.46"/>
    </edge>
    <edge id=":64_8" function="internal">
        <lane id=":64_8_0" index="0" disallow="pedestrian tram rail_urban rail rail_electric rail_fast ship" speed="12.15" length="34.66" width="3.50" shape="678.79,724.05 679.57,727.83 679.84,730.45 679.84,733.10 679.50,735.74 679.18,737.09 678.75,738.40 678.20,739.66 677.54,740.88 676.77,742.04 675.91,743.11 674.96,744.10 673.91,745.03 671.74,746.56 669.40,747.80 666.96,748.79 663.26,749.87"/>
    </edge>
    <edge id=":64_9" function="internal">
        <lane id=":64_9_0" index="0" disallow="pedestrian tram rail_urban rail rail_electric rail_fast ship" speed="11.15" length="28.99" width="3.50" shape="662.45,746.46 665.67,745.53 667.73,744.69 669.70,743.65 671.52,742.36 672.36,741.62 673.13,740.82 673.83,739.95 674.45,739.02 674.98,738.04 675.42,737.02 675.77,735.96 676.03,734.87 676.31,732.66 676.31,730.43 676.08,728.22 675.40,724.94"/>
    </edge>
    <edge id=":64_10" function="internal">
        <lane id=":64_10_0" index="0" disallow="pedestrian tram rail_urban rail rail_electric rail_fast ship" speed="36.11" length="27.12" width="3.50" shape="662.46,746.46 688.70,739.60"/>
    </edge>
    <edge id=":64_11" function="internal">
        <lane id=":64_11_0" index="0" disallow="pedestrian tram rail_urban rail rail_electric rail_fast ship" speed="12.07" length="34.50" width="3.50" shape="662.45,746.46 666.37,745.75 669.01,745.53 671.66,745.59 674.29,745.97 675.57,746.31 676.82,746.74 678.03,747.29 679.19,747.94 680.28,748.70 681.29,749.55 682.23,750.49 683.08,751.51 684.55,753.72 685.71,756.10 686.63,758.59 687.60,762.46"/>
    </edge>
    <edge id=":66_0" function="internal">
        <lane id=":66_0_0" index="0" disallow="pedestrian tram rail_urban rail rail_electric rail_fast ship" speed="12.56" length="23.70" width="3.50" shape="664.50,684.38 663.83,682.41 662.95,680.61 661.85,678.94 660.54,677.42 659.05,676.07 657.39,674.88 655.62,673.86 652.74,672.59 649.72,671.63 646.60,670.92"/>
    </edge>
    <edge id=":66_1" function="internal">
        <lane id=":66_1_0" index="0" disallow="pedestrian tram rail_urban rail rail_electric rail_fast ship" speed="12.19" length="27.78" width="3.50" shape="664.50,684.38 663.97,681.85 663.85,680.59 663.83,679.33 663.92,678.08 664.11,676.83 664.42,675.61 664.82,674.42 665.93,672.16 667.35,670.08 669.01,668.19 670.86,666.47 673.87,664.19 677.09,662.20"/>
    </edge>
    <edge id=":66_2" function="internal">
        <lane id=":66_2_0" index="0" disallow="pedestrian tram rail_urban rail rail_electric rail_fast ship" speed="11.10" length="23.10" width="3.50" shape="678.83,665.24 675.99,666.99 673.34,668.97 671.76,670.40 670.34,671.97 669.14,673.66 668.20,675.51 667.87,676.42 667.61,677.38 667.44,678.36 667.35,679.35 667.35,680.35 667.44,681.33 667.86,683.41"/>
    </edge>
    <edge id=":66_3" function="internal">
        <lane id=":66_3_0" index="0" disallow="pedestrian tram rail_urban rail rail_electric rail_fast ship" speed="20.53" length="33.44" width="3.50" shape="678.83,665.24 677.82,665.80 673.86,667.74 669.73,669.35 666.51,670.31 663.25,671.03 659.93,671.51 656.59,671.73 653.24,671.70 649.90,671.43 646.60,670.92"/>
    </edge>
    <edge id=":66_4" function="internal">
        <lane id=":66_4_0" index="0" disallow="pedestrian tram rail_urban rail rail_electric rail_fast ship" speed="19.76" length="30.96" width="3.50" shape="647.25,667.48 650.31,667.96 653.40,668.21 656.49,668.23 659.58,668.02 662.65,667.58 665.67,666.91 668.63,666.02 672.48,664.52 676.18,662.71 677.09,662.20"/>
    </edge>
    <edge id=":66_5" function="internal">
        <lane id=":66_5_0" index="0" disallow="pedestrian tram rail_urban rail rail_electric rail_fast ship" speed="13.60" length="27.57" width="3.50" shape="647.25,667.48 650.75,668.29 654.17,669.39 657.45,670.86 659.51,672.07 661.44,673.49 663.20,675.11 664.74,676.94 666.04,678.95 667.08,681.10 667.86,683.41"/>
    </edge>
    <edge id=":67_0" function="internal">
        <lane id=":67_0_0" index="0" disallow="pedestrian tram rail_urban rail rail_electric rail_fast ship" speed="36.11" length="34.11" width="3.50" shape="592.36,682.59 589.91,671.44 586.57,657.37 584.39,649.43"/>
    </edge>
    <edge id=":67_1" function="internal">
        <lane id=":67_1_0" index="0" disallow="pedestrian tram rail_urban rail rail_electric rail_fast ship" speed="11.44" length="39.17" width="3.50" shape="592.36,682.59 591.60,678.11 591.36,675.11 591.42,672.10 591.61,670.61 591.91,669.13 592.36,667.70 592.97,666.32 593.76,665.04 594.72,663.88 595.84,662.89 597.10,662.06 598.46,661.41 599.88,660.92 601.34,660.58 602.83,660.36 605.84,660.21 608.84,660.37 613.33,661.03"/>
    </edge>
    <edge id=":67_2" function="internal">
        <lane id=":67_2_0" index="0" disallow="pedestrian tram rail_urban rail rail_electric rail_fast ship" speed="10.37" length="31.93" width="3.50" shape="612.68,664.47 608.78,663.90 606.23,663.76 603.69,663.88 602.51,664.06 601.34,664.33 600.23,664.71 599.21,665.20 598.27,665.81 597.45,666.54 596.75,667.39 596.16,668.34 595.70,669.38 595.36,670.50 595.12,671.68 594.97,672.87 594.91,675.41 595.12,677.96 595.78,681.85"/>
    </edge>
    <edge id=":67_3" function="internal">
        <lane id=":67_3_0" index="0" disallow="pedestrian tram rail_urban rail rail_electric rail_fast ship" speed="15.11" length="33.37" width="3.50" shape="612.68,664.47 607.04,663.26 601.49,661.74 597.16,660.21 594.00,658.82 590.99,657.13 589.12,655.81 587.40,654.28 585.92,652.52 585.31,651.55 584.79,650.52 584.39,649.43"/>
    </edge>
    <edge id=":67_4" function="internal">
        <lane id=":67_4_0" index="0" disallow="pedestrian tram rail_urban rail rail_electric rail_fast ship" speed="14.18" length="29.62" width="3.50" shape="587.73,648.38 588.04,649.22 588.45,650.01 588.93,650.74 590.21,652.18 591.70,653.42 593.36,654.52 596.09,655.97 598.96,657.18 602.95,658.54 608.09,659.92 613.33,661.03"/>
    </edge>
    <edge id=":67_5" function="internal">
        <lane id=":67_5_0" index="0" disallow="pedestrian tram rail_urban rail rail_electric rail_fast ship" speed="36.11" length="34.43" width="3.50" shape="587.73,648.38 589.94,656.45 593.31,670.64 595.78,681.85"/>
    </edge>
    <edge id=":68_0" function="internal">
        <lane id=":68_0_0" index="0" disallow="pedestrian tram rail_urban rail rail_electric rail_fast ship" speed="36.11" length="38.51" width="3.50" shape="612.33,779.21 608.03,756.72 604.91,741.42"/>
    </edge>
    <edge id=":68_1" function="internal">
        <lane id=":68_1_0" index="0" disallow="pedestrian tram rail_urban rail rail_electric rail_fast ship" speed="12.41" length="34.14" width="3.50" shape="612.33,779.21 611.96,776.68 611.80,774.11 611.90,771.50 612.30,768.89 613.06,766.36 613.61,765.08 614.24,763.89 614.98,762.75 615.81,761.67 616.73,760.65 618.72,758.91 620.92,757.45 623.24,756.27 625.65,755.32 629.30,754.27"/>
    </edge>
    <edge id=":68_2" function="internal">
        <lane id=":68_2_0" index="0" disallow="pedestrian tram rail_urban rail rail_electric rail_fast ship" speed="11.42" length="28.74" width="3.50" shape="630.10,757.67 626.91,758.59 624.85,759.40 622.88,760.40 621.04,761.62 619.37,763.07 618.63,763.89 617.95,764.76 617.35,765.69 616.82,766.67 616.38,767.68 615.74,769.80 615.40,771.98 615.32,774.19 615.45,776.40 615.77,778.58"/>
    </edge>
    <edge id=":68_3" function="internal">
        <lane id=":68_3_0" index="0" disallow="pedestrian tram rail_urban rail rail_electric rail_fast ship" speed="12.14" length="34.59" width="3.50" shape="630.10,757.67 626.17,758.38 623.52,758.58 620.86,758.50 618.23,758.07 616.95,757.72 615.70,757.25 614.50,756.68 613.36,756.01 612.28,755.23 611.27,754.36 610.34,753.41 608.72,751.29 607.41,748.98 606.36,746.54 605.54,744.00 604.91,741.42"/>
    </edge>
    <edge id=":68_4" function="internal">
        <lane id=":68_4_0" index="0" disallow="pedestrian tram rail_urban rail rail_electric rail_fast ship" speed="11.14" length="28.94" width="3.50" shape="608.33,740.68 608.88,742.95 609.59,745.14 610.48,747.22 611.57,749.15 612.92,750.91 613.65,751.65 614.45,752.35 615.31,752.97 616.23,753.51 617.19,753.97 618.19,754.34 619.20,754.63 621.40,754.98 623.63,755.05 625.88,754.88 629.30,754.27"/>
    </edge>
    <edge id=":68_5" function="internal">
        <lane id=":68_5_0" index="0" disallow="pedestrian tram rail_urban rail rail_electric rail_fast ship" speed="36.11" length="38.62" width="3.50" shape="608.33,740.68 611.47,756.04 615.77,778.58"/>
    </edge>
    <edge id=":69_0" function="internal">
        <lane id=":69_0_0" index="0" disallow="pedestrian tram rail_urban rail rail_electric rail_fast ship" speed="16.91" length="35.41" width="3.50" shape="584.32,649.22 583.67,647.19 582.19,643.20 580.43,639.35 578.92,636.60 577.22,633.97 575.33,631.50 573.22,629.23 570.91,627.20 568.39,625.44 565.69,623.98 562.81,622.84"/>
    </edge>
    <edge id=":69_1" function="internal">
        <lane id=":69_1_0" index="0" disallow="pedestrian tram rail_urban rail rail_electric rail_fast ship" speed="36.11" length="46.16" width="3.50" shape="606.54,637.63 602.69,636.28 562.81,622.84"/>
    </edge>
    <edge id=":69_2" function="internal">
        <lane id=":69_2_0" index="0" disallow="pedestrian tram rail_urban rail rail_electric rail_fast ship" speed="36.11" length="46.26" width="3.50" shape="563.91,619.52 603.85,632.97 607.73,634.34"/>
    </edge>
    <edge id=":69_3" function="internal">
        <lane id=":69_3_0" index="0" disallow="pedestrian tram rail_urban rail rail_electric rail_fast ship" speed="17.63" length="38.74" width="3.50" shape="563.91,619.51 567.12,620.79 570.13,622.40 572.94,624.34 575.52,626.58 577.86,629.07 579.95,631.76 581.82,634.62 583.47,637.61 585.37,641.75 586.97,646.01 587.67,648.18"/>
    </edge>

    <edge id="66479" from="66" to="67" priority="3" type="highway.residential" spreadType="center" length="34.54" shape="663.49,674.01 597.46,666.35">
        <lane id="66479_0" index="0" disallow="pedestrian tram rail_urban rail rail_electric rail_fast ship" speed="36.11" length="34.54" width="3.50" customShape="1" shape="646.60,670.92 629.63,667.69 612.67,664.46"/>
    </edge>
    <edge id="66480" from="67" to="66" priority="3" type="highway.residential" spreadType="center" length="34.53" shape="597.87,662.88 663.89,670.53">
        <lane id="66480_0" index="0" disallow="pedestrian tram rail_urban rail rail_electric rail_fast ship" speed="36.11" length="34.53" width="3.50" customShape="1" shape="613.33,661.03 630.28,664.25 647.25,667.48"/>
    </edge>
    <edge id="66482" from="51" to="66" priority="3" type="highway.residential" spreadType="center" length="62.61" shape="733.29,634.39 664.52,673.81">
        <lane id="66482_0" index="0" disallow="pedestrian tram rail_urban rail rail_electric rail_fast ship" speed="36.11" length="62.61" width="3.50" customShape="1" shape="733.29,634.39 706.05,649.82 678.81,665.25"/>
    </edge>
    <edge id="66483" from="66" to="22" priority="3" type="highway.residential" spreadType="center" length="62.61" shape="662.78,670.77 731.57,631.35">
        <lane id="66483_0" index="0" disallow="pedestrian tram rail_urban rail rail_electric rail_fast ship" speed="36.11" length="62.61" width="3.50" customShape="1" shape="677.09,662.20 704.33,646.78 731.57,631.35"/>
    </edge>
    <edge id="66488" from="52" to="64" priority="3" type="highway.residential" spreadType="center" length="16.76" shape="705.56,738.14 679.29,746.08">
        <lane id="66488_0" index="0" disallow="pedestrian tram rail_urban rail rail_electric rail_fast ship" speed="36.11" length="16.76" width="3.50" customShape="1" shape="705.56,738.14 700.79,739.63 700.67,739.67 689.55,743.11"/>
    </edge>
    <edge id="66553" from="67" to="69" priority="3" type="highway.residential" spreadType="center" length="0.25" shape="596.10,665.29 583.85,635.87">
        <lane id="66553_0" index="0" disallow="pedestrian tram rail_urban rail rail_electric rail_fast ship" speed="36.11" length="0.25" width="3.50" customShape="1" shape="584.39,649.43 584.36,649.33 584.31,649.19"/>
    </edge>
    <edge id="66554" from="69" to="67" priority="3" type="highway.residential" spreadType="center" length="0.23" shape="587.08,634.53 599.33,663.95">
        <lane id="66554_0" index="0" disallow="pedestrian tram rail_urban rail rail_electric rail_fast ship" speed="36.11" length="0.23" width="3.50" customShape="1" shape="587.67,648.18 587.73,648.40"/>
    </edge>
    <edge id="66556" from="63" to="67" priority="3" type="highway.residential" spreadType="center" length="14.80" shape="605.95,714.50 595.99,664.90">
        <lane id="66556_0" index="0" disallow="pedestrian tram rail_urban rail rail_electric rail_fast ship" speed="36.11" length="14.80" width="3.50" customShape="1" shape="595.48,697.03 593.92,689.79 592.36,682.56"/>
    </edge>
    <edge id="66557" from="67" to="63" priority="3" type="highway.residential" spreadType="center" length="14.77" shape="599.41,664.22 609.38,713.81">
        <lane id="66557_0" index="0" disallow="pedestrian tram rail_urban rail rail_electric rail_fast ship" speed="36.11" length="14.77" width="3.50" customShape="1" shape="595.78,681.85 597.34,689.05 598.90,696.29"/>
    </edge>
    <edge id="66559" from="68" to="63" priority="3" type="highway.residential" spreadType="center" length="6.54" shape="615.09,759.05 605.95,714.51">
        <lane id="66559_0" index="0" disallow="pedestrian tram rail_urban rail rail_electric rail_fast ship" speed="36.11" length="6.54" width="3.50" customShape="1" shape="604.91,741.42 604.24,738.23 603.57,735.02"/>
    </edge>
    <edge id="66560" from="63" to="68" priority="3" type="highway.residential" spreadType="center" length="6.52" shape="609.38,713.80 618.52,758.35">
        <lane id="66560_0" index="0" disallow="pedestrian tram rail_urban rail rail_electric rail_fast ship" speed="36.11" length="6.52" width="3.50" customShape="1" shape="607.00,734.32 607.66,737.51 608.33,740.70"/>
    </edge>
    <edge id="66562" from="57" to="68" priority="3" type="highway.residential" spreadType="center" length="70.01" shape="624.88,848.06 615.05,758.79">