<routes>
	<vehicle depart="0.1" departLane="0" departPos="12.695955187274574" departSpeed="11.514513" id="31" type="passenger">
		<route edges=":63_4 66726 66619"/>
	</vehicle>
	<vehicle depart="0.1" departLane="0" departPos="25.93859960424593" departSpeed="13.957861" id="344" type="passenger">
		<route edges=":62_0 66725 66556"/>
	</vehicle>
	<vehicle depart="0.1" departLane="0" departPos="20.496922786433164" departSpeed="8.9051902" id="325" type="motorcycle">
		<route edges="66725 66560"/>
	</vehicle>
	<vehicle depart="0.1" departLane="0" departPos="33.949199935993434" departSpeed="8.9492769" id="350" type="truck">
		<route edges=":63_0 66556 66553"/>
	</vehicle>
</routes>
