<!-- generated on Tue Feb  9 22:07:44 2021 by Eclipse SUMO netconvert Version 1.8.0
<configuration xmlns:xsi="http://www.w3.org/2001/XMLSchema-instance" xsi:noNamespaceSchemaLocation="http://sumo.dlr.de/xsd/netconvertConfiguration.xsd">

    <input>
        <node-files value="./converted_scenarios/scenario-factory/DEU_Guetersloh-21_2_I-1-1/DEU_Guetersloh-21_2_I-1-1.nod.xml"/>
        <edge-files value="./converted_scenarios/scenario-factory/DEU_Guetersloh-21_2_I-1-1/DEU_Guetersloh-21_2_I-1-1.edg.xml"/>
        <connection-files value="./converted_scenarios/scenario-factory/DEU_Guetersloh-21_2_I-1-1/DEU_Guetersloh-21_2_I-1-1.con.xml"/>
        <tllogic-files value="./converted_scenarios/scenario-factory/DEU_Guetersloh-21_2_I-1-1/DEU_Guetersloh-21_2_I-1-1.tll.xml"/>
        <type-files value="/home/zen/commonroad-interactive-benchmarks/install/commonroad-map-tool/crmapconverter/sumo_map/templates/DEU.typ.xml"/>
    </input>

    <output>
        <output-file value="./converted_scenarios/scenario-factory/DEU_Guetersloh-21_2_I-1-1/DEU_Guetersloh-21_2_I-1-1.net.xml"/>
    </output>

    <processing>
        <geometry.remove.keep-edges.explicit value="true"/>
        <geometry.avoid-overlap value="true"/>
        <offset.disable-normalization value="true"/>
    </processing>

    <junctions>
        <no-turnarounds value="true"/>
        <junctions.internal-link-detail value="20"/>
    </junctions>

    <report>
        <aggregate-warnings value="5"/>
    </report>

    <random_number>
        <seed value="1234"/>
    </random_number>

</configuration>
--><net xmlns:xsi="http://www.w3.org/2001/XMLSchema-instance" version="1.6" junctionCornerDetail="5" junctionLinkDetail="20" limitTurnSpeed="5.50" xsi:noNamespaceSchemaLocation="http://sumo.dlr.de/xsd/net_file.xsd">

    <location netOffset="0.00,0.00" convBoundary="-521.96,-42.66,-326.65,86.49" origBoundary="-521.96,-42.66,-326.65,86.49" projParameter="!"/>

    <type id="highway.bridleway" priority="1" speed="2.78" allow="pedestrian" oneway="1" width="2.00"/>
    <type id="highway.bus_guideway" priority="1" speed="27.78" allow="bus" oneway="1"/>
    <type id="highway.cycleway" priority="1" speed="8.33" allow="bicycle" oneway="0" width="1.00"/>
    <type id="highway.footway" priority="1" speed="2.78" allow="pedestrian" oneway="1" width="2.00"/>
    <type id="highway.ford" priority="1" speed="2.78" allow="army" oneway="0"/>
    <type id="highway.living_street" priority="2" speed="2.78" disallow="tram rail_urban rail rail_electric rail_fast ship" oneway="0"/>
    <type id="highway.motorway" priority="14" speed="39.44" allow="private emergency authority army vip passenger hov taxi bus coach delivery truck trailer motorcycle evehicle custom1 custom2" oneway="1"/>
    <type id="highway.motorway_link" priority="9" speed="22.22" allow="private emergency authority army vip passenger hov taxi bus coach delivery truck trailer motorcycle evehicle custom1 custom2" oneway="1"/>
    <type id="highway.path" priority="1" speed="2.78" allow="pedestrian bicycle" oneway="0" width="2.00"/>
    <type id="highway.pedestrian" priority="1" speed="2.78" allow="pedestrian" oneway="1" width="2.00"/>
    <type id="highway.primary" priority="12" speed="27.78" disallow="pedestrian tram rail_urban rail rail_electric rail_fast ship" oneway="0"/>
    <type id="highway.primary_link" priority="7" speed="22.22" disallow="pedestrian tram rail_urban rail rail_electric rail_fast ship" oneway="0"/>
    <type id="highway.raceway" priority="15" speed="83.33" allow="vip" oneway="0"/>
    <type id="highway.residential" priority="3" speed="13.89" disallow="pedestrian tram rail_urban rail rail_electric rail_fast ship" oneway="0"/>
    <type id="highway.secondary" priority="11" speed="27.78" disallow="pedestrian tram rail_urban rail rail_electric rail_fast ship" oneway="0"/>
    <type id="highway.secondary_link" priority="6" speed="22.22" disallow="pedestrian tram rail_urban rail rail_electric rail_fast ship" oneway="0"/>
    <type id="highway.service" priority="1" speed="5.56" allow="pedestrian delivery bicycle" oneway="0"/>
    <type id="highway.stairs" priority="1" speed="1.39" allow="pedestrian" oneway="1" width="2.00"/>
    <type id="highway.step" priority="1" speed="1.39" allow="pedestrian" oneway="1" width="2.00"/>
    <type id="highway.steps" priority="1" speed="1.39" allow="pedestrian" oneway="1" width="2.00"/>
    <type id="highway.tertiary" priority="10" speed="22.22" disallow="pedestrian tram rail_urban rail rail_electric rail_fast ship" oneway="0"/>
    <type id="highway.tertiary_link" priority="5" speed="22.22" disallow="pedestrian tram rail_urban rail rail_electric rail_fast ship" oneway="0"/>
    <type id="highway.track" priority="1" speed="5.56" allow="pedestrian motorcycle moped bicycle" oneway="0"/>
    <type id="highway.trunk" priority="13" speed="27.78" disallow="pedestrian bicycle tram rail_urban rail rail_electric rail_fast ship" oneway="0"/>
    <type id="highway.trunk_link" priority="8" speed="22.22" disallow="pedestrian bicycle tram rail_urban rail rail_electric rail_fast ship" oneway="0"/>
    <type id="highway.unclassified" priority="4" speed="13.89" disallow="pedestrian tram rail_urban rail rail_electric rail_fast ship" oneway="0"/>
    <type id="highway.unsurfaced" priority="1" speed="8.33" disallow="tram rail_urban rail rail_electric rail_fast ship" oneway="0"/>
    <type id="railway.highspeed" priority="21" speed="69.44" allow="rail_fast" oneway="1"/>
    <type id="railway.light_rail" priority="19" speed="27.78" allow="rail_urban" oneway="1"/>
    <type id="railway.preserved" priority="16" speed="27.78" allow="rail" oneway="1"/>
    <type id="railway.rail" priority="20" speed="44.44" allow="rail" oneway="1"/>
    <type id="railway.subway" priority="18" speed="27.78" allow="rail_urban" oneway="1"/>
    <type id="railway.tram" priority="17" speed="13.89" allow="tram" oneway="1"/>

    <edge id=":11_0" function="internal">
        <lane id=":11_0_0" index="0" disallow="pedestrian tram rail_urban rail rail_electric rail_fast ship" speed="36.11" length="2.95" width="3.50" shape="-434.54,-1.92 -431.60,-2.14"/>
    </edge>
    <edge id=":14_0" function="internal">
        <lane id=":14_0_0" index="0" disallow="pedestrian tram rail_urban rail rail_electric rail_fast ship" speed="36.11" length="2.93" width="3.50" shape="-463.43,-3.75 -460.51,-3.57"/>
    </edge>
    <edge id=":17_0" function="internal">
        <lane id=":17_0_0" index="0" disallow="pedestrian tram rail_urban rail rail_electric rail_fast ship" speed="15.88" length="31.91" width="3.50" shape="-390.31,-10.64 -391.17,-10.18 -392.83,-9.08 -394.34,-7.81 -395.71,-6.37 -396.95,-4.81 -398.59,-2.21 -399.96,0.55 -401.11,3.44 -402.34,7.46 -403.30,11.57 -404.17,16.80"/>
    </edge>
    <edge id=":17_1" function="internal">
        <lane id=":17_1_0" index="0" disallow="pedestrian tram rail_urban rail rail_electric rail_fast ship" speed="36.11" length="38.57" width="3.50" shape="-390.31,-10.64 -396.15,-7.88 -402.08,-5.43 -408.14,-3.30 -414.31,-1.51 -420.57,-0.09 -425.86,0.78 -426.92,0.92"/>
    </edge>
    <edge id=":17_2" function="internal">
        <lane id=":17_2_0" index="0" disallow="pedestrian tram rail_urban rail rail_electric rail_fast ship" speed="36.11" length="37.35" width="3.50" shape="-427.34,-2.56 -426.35,-2.69 -421.23,-3.53 -415.16,-4.90 -409.18,-6.64 -403.31,-8.71 -397.55,-11.09 -391.89,-13.76"/>
    </edge>
    <edge id=":17_3" function="internal">
        <lane id=":17_3_0" index="0" disallow="pedestrian tram rail_urban rail rail_electric rail_fast ship" speed="11.70" length="36.93" width="3.50" shape="-427.34,-2.56 -426.00,-2.71 -421.99,-2.95 -419.24,-2.89 -416.48,-2.58 -413.76,-1.95 -412.37,-1.46 -411.04,-0.85 -409.76,-0.10 -408.56,0.81 -407.47,1.86 -406.51,3.03 -405.72,4.31 -405.08,5.66 -404.60,7.05 -404.25,8.49 -403.91,11.28 -403.91,14.07 -404.17,16.80"/>
    </edge>
    <edge id=":17_4" function="internal">
        <lane id=":17_4_0" index="0" disallow="pedestrian tram rail_urban rail rail_electric rail_fast ship" speed="10.65" length="30.36" width="3.50" shape="-407.64,16.35 -407.42,14.01 -407.42,11.68 -407.72,9.36 -408.01,8.23 -408.41,7.14 -408.93,6.09 -409.57,5.11 -410.32,4.22 -411.18,3.44 -412.13,2.76 -413.15,2.19 -414.22,1.72 -415.33,1.35 -417.61,0.85 -419.93,0.61 -422.26,0.57 -425.76,0.79 -426.92,0.92"/>
    </edge>
    <edge id=":17_5" function="internal">
        <lane id=":17_5_0" index="0" disallow="pedestrian tram rail_urban rail rail_electric rail_fast ship" speed="16.69" length="35.31" width="3.50" shape="-407.64,16.35 -406.69,10.72 -405.65,6.29 -404.28,1.95 -403.00,-1.22 -401.45,-4.26 -399.59,-7.12 -398.15,-8.89 -396.56,-10.52 -394.81,-11.97 -392.91,-13.22 -391.89,-13.76"/>
    </edge>
    <edge id=":18_0" function="internal">
        <lane id=":18_0_0" index="0" disallow="pedestrian tram rail_urban rail rail_electric rail_fast ship" speed="36.11" length="7.22" width="3.50" shape="-443.90,2.25 -451.10,2.74"/>
        <lane id=":18_0_1" index="1" disallow="pedestrian tram rail_urban rail rail_electric rail_fast ship" speed="36.11" length="7.08" width="3.50" shape="-443.98,1.42 -444.52,1.39 -451.03,0.75"/>
    </edge>

    <edge id="77209" from="16" to="14" priority="3" type="highway.residential" spreadType="center" length="58.62">
        <lane id="77209_0" index="0" disallow="pedestrian tram rail_urban rail rail_electric rail_fast ship" speed="36.11" length="58.62" width="3.50" customShape="1" shape="-521.96,-3.23 -517.92,-3.69 -508.79,-4.49 -500.14,-4.87 -491.48,-4.85 -463.43,-3.75"/>
    </edge>
    <edge id="77211" from="18" to="13" priority="3" type="highway.residential" spreadType="center" length="70.11">
        <lane id="77211_0" index="0" disallow="pedestrian tram rail_urban rail rail_electric rail_fast ship" speed="36.11" length="70.11" width="3.50" customShape="1" shape="-451.14,3.75 -491.31,2.16 -499.75,2.12 -508.20,2.48 -517.15,3.26 -521.15,3.72"/>
        <lane id="77211_1" index="1" disallow="pedestrian tram rail_urban rail rail_electric rail_fast ship" speed="36.11" length="70.65" width="3.50" customShape="1" shape="-451.01,0.25 -491.46,-1.35 -500.00,-1.37 -508.53,-1.00 -517.55,-0.21 -521.56,0.25"/>
    </edge>
    <edge id="77326" from="17" to="18" priority="3" type="highway.residential" spreadType="center" length="17.02" shape="-407.99,2.93 -447.54,2.40">
        <lane id="77326_0" index="0" disallow="pedestrian tram rail_urban rail rail_electric rail_fast ship" speed="36.11" length="17.02" width="3.50" customShape="1" shape="-426.92,0.92 -429.85,1.21 -443.86,2.58"/>
    </edge>
    <edge id="77327" from="11" to="17" priority="3" type="highway.residential" spreadType="center" length="4.36" shape="-433.07,-1.99 -407.83,-0.55">
        <lane id="77327_0" index="0" disallow="pedestrian tram rail_urban rail rail_electric rail_fast ship" speed="36.11" length="4.36" width="3.50" customShape="1" shape="-431.60,-2.14 -430.20,-2.28 -427.26,-2.56"/>
    </edge>
    <edge id="77329" from="15" to="17" priority="3" type="highway.residential" spreadType="center" length="70.00" shape="-326.65,-39.50 -407.26,2.75">
        <lane id="77329_0" index="0" disallow="pedestrian tram rail_urban rail rail_electric rail_fast ship" speed="36.11" length="70.00" width="3.50" customShape="1" shape="-326.65,-39.50 -334.13,-36.99 -342.56,-33.76 -351.76,-29.81 -362.63,-24.67 -390.32,-10.64"/>
    </edge>
    <edge id="77330" from="17" to="9" priority="3" type="highway.residential" spreadType="center" length="70.00" shape="-408.89,-0.35 -328.23,-42.66">
        <lane id="77330_0" index="0" disallow="pedestrian tram rail_urban rail rail_electric rail_fast ship" speed="36.11" length="70.00" width="3.50" customShape="1" shape="-391.89,-13.76 -364.09,-27.85 -353.13,-33.03 -343.83,-37.02 -335.32,-40.28 -328.23,-42.66"/>
    </edge>
    <edge id="77669" from="17" to="3" priority="3" type="highway.residential" spreadType="center" length="70.00" shape="-406.30,1.24 -410.63,86.49">
        <lane id="77669_0" index="0" disallow="pedestrian tram rail_urban rail rail_electric rail_fast ship" speed="36.11" length="70.00" width="3.50" customShape="1" shape="-404.17,16.80 -405.41,26.27 -410.63,86.49"/>
    </edge>
    <edge id="77670" from="12" to="17" priority="3" type="highway.residential" spreadType="center" length="70.00" shape="-414.10,86.03 -409.79,1.06">
        <lane id="77670_0" index="0" disallow="pedestrian tram rail_urban rail rail_electric rail_fast ship" speed="36.11" length="70.00" width="3.50" customShape="1" shape="-414.10,86.03 -408.88,25.86 -407.64,16.34"/>
    </edge>
    <edge id="79871" from="14" to="11" priority="3" type="highway.residential" spreadType="center" length="26.04">
        <lane id="79871_0" index="0" disallow="pedestrian tram rail_urban rail rail_electric rail_fast ship" speed="36.11" length="26.04" width="3.50" customShape="1" shape="-460.51,-3.57 -454.74,-3.12 -444.43,-2.11 -439.26,-1.84 -434.54,-1.92"/>
    </edge>

    <junction id="11" type="priority" x="-433.07" y="-1.99" incLanes="79871_0" intLanes=":11_0_0" shape="-431.43,-0.40 -431.77,-3.88 -434.65,-3.67 -434.42,-0.17" rightOfWay="edgePriority">
        <request index="0" response="0" foes="0" cont="0"/>
    </junction>
    <junction id="12" type="dead_end" x="-414.10" y="86.03" incLanes="" intLanes="" shape="-412.36,86.18 -415.85,85.88" rightOfWay="edgePriority"/>
    <junction id="13" type="dead_end" x="-521.35" y="1.98" incLanes="77211_0 77211_1" intLanes="" shape="-520.95,5.46 -521.74,-1.49" rightOfWay="edgePriority"/>
    <junction id="14" type="priority" x="-461.97" y="-3.69" incLanes="77209_0" intLanes=":14_0_0" shape="-460.65,-1.83 -460.37,-5.32 -463.36,-5.49 -463.50,-2.00" rightOfWay="edgePriority">
        <request index="0" response="0" foes="0" cont="0"/>
    </junction>
    <junction id="15" type="dead_end" x="-326.65" y="-39.50" incLanes="" intLanes="" shape="-327.20,-41.16 -326.09,-37.84" rightOfWay="edgePriority"/>
    <junction id="16" type="dead_end" x="-521.96" y="-3.23" incLanes="" intLanes="" shape="-521.76,-1.49 -522.16,-4.97" rightOfWay="edgePriority"/>
    <junction id="17" type="priority" x="-408.05" y="1.18" incLanes="77329_0 77327_0 77670_0" intLanes=":17_0_0 :17_1_0 :17_2_0 :17_3_0 :17_4_0 :17_5_0" shape="-389.52,-9.08 -392.68,-15.32 -399.64,-11.77 -404.89,-9.20 -409.35,-7.39 -413.97,-6.12 -419.69,-5.17 -427.43,-4.30 -426.75,2.66 -420.88,2.51 -416.20,3.31 -412.71,5.07 -410.41,7.80 -409.30,11.48 -409.37,16.12 -402.44,17.03 -401.32,10.48 -399.78,4.82 -397.84,0.03 -395.48,-3.89 -392.70,-6.92">
        <request index="0" response="000000" foes="001000" cont="0"/>
        <request index="1" response="000000" foes="111000" cont="0"/>
        <request index="2" response="000000" foes="100000" cont="0"/>
        <request index="3" response="000011" foes="100011" cont="0"/>
        <request index="4" response="000010" foes="000010" cont="0"/>
        <request index="5" response="001110" foes="001110" cont="0"/>
    </junction>
    <junction id="18" type="priority" x="-447.54" y="2.40" incLanes="77326_0" intLanes=":18_0_0 :18_0_1" shape="-443.69,4.32 -444.03,0.84 -446.63,0.42 -447.48,-0.14 -448.34,-0.75 -449.42,-1.25 -450.94,-1.50 -451.20,5.49 -448.41,5.34 -447.44,5.10 -446.48,4.82 -445.30,4.55">
        <request index="0" response="00" foes="00" cont="0"/>
        <request index="1" response="00" foes="00" cont="0"/>
    </junction>
    <junction id="3" type="dead_end" x="-410.63" y="86.49" incLanes="77669_0" intLanes="" shape="-408.89,86.65 -412.38,86.34" rightOfWay="edgePriority"/>
    <junction id="9" type="dead_end" x="-328.23" y="-42.66" incLanes="77330_0" intLanes="" shape="-328.79,-44.32 -327.68,-41.00" rightOfWay="edgePriority"/>

    <connection from="77209" to="79871" fromLane="0" toLane="0" contPos="-4.00" via=":14_0_0" dir="s" state="M"/>
    <connection from="77326" to="77211" fromLane="0" toLane="0" contPos="-4.00" shape="-432.80,1.50 -456.70,3.12 -462.29,3.30" via=":18_0_0" dir="s" state="M"/>
    <connection from="77326" to="77211" fromLane="0" toLane="1" contPos="-4.00" shape="-432.80,1.50 -433.89,1.57 -439.21,1.65 -444.52,1.39 -454.92,0.37 -462.17,-0.19" via=":18_0_1" dir="s" state="M"/>
    <connection from="77327" to="77330" fromLane="0" toLane="0" contPos="-4.00" shape="-427.34,-2.56 -426.35,-2.69 -421.23,-3.53 -415.16,-4.90 -409.18,-6.64 -403.31,-8.71 -397.55,-11.09 -391.89,-13.76" via=":17_2_0" dir="s" state="M"/>
    <connection from="77327" to="77669" fromLane="0" toLane="0" contPos="-4.00" shape="-427.34,-2.56 -426.00,-2.71 -421.99,-2.95 -419.24,-2.89 -416.48,-2.58 -413.76,-1.95 -412.37,-1.46 -411.04,-0.85 -409.76,-0.10 -408.56,0.81 -407.47,1.86 -406.51,3.03 -405.72,4.31 -405.08,5.66 -404.60,7.05 -404.25,8.49 -403.91,11.28 -403.91,14.07 -404.17,16.80" via=":17_3_0" dir="l" state="m"/>
    <connection from="77329" to="77669" fromLane="0" toLane="0" contPos="-4.00" shape="-390.32,-10.64 -391.17,-10.18 -392.83,-9.08 -394.34,-7.81 -395.71,-6.37 -396.95,-4.81 -398.59,-2.21 -399.96,0.55 -401.11,3.44 -402.34,7.46 -403.30,11.57 -404.17,16.80" via=":17_0_0" dir="r" state="M"/>
    <connection from="77329" to="77326" fromLane="0" toLane="0" contPos="-4.00" shape="-390.32,-10.64 -396.15,-7.88 -402.08,-5.43 -408.14,-3.30 -414.31,-1.51 -420.57,-0.09 -425.86,0.78 -426.92,0.92" via=":17_1_0" dir="s" state="M"/>
    <connection from="77670" to="77326" fromLane="0" toLane="0" contPos="-4.00" shape="-407.64,16.34 -407.42,14.01 -407.42,11.68 -407.72,9.36 -408.01,8.23 -408.41,7.14 -408.93,6.09 -409.57,5.11 -410.32,4.22 -411.18,3.44 -412.13,2.76 -413.15,2.19 -414.22,1.72 -415.33,1.35 -417.61,0.85 -419.93,0.61 -422.26,0.57 -425.76,0.79 -426.92,0.92" via=":17_4_0" dir="r" state="m"/>
    <connection from="77670" to="77330" fromLane="0" toLane="0" contPos="-4.00" shape="-407.64,16.34 -406.69,10.72 -405.65,6.29 -404.28,1.95 -403.00,-1.22 -401.45,-4.26 -399.59,-7.12 -398.15,-8.89 -396.56,-10.52 -394.81,-11.97 -392.91,-13.22 -391.89,-13.76" via=":17_5_0" dir="l" state="m"/>
    <connection from="79871" to="77327" fromLane="0" toLane="0" contPos="-4.00" via=":11_0_0" dir="s" state="M"/>

    <connection from=":11_0" to="77327" fromLane="0" toLane="0" dir="s" state="M"/>
    <connection from=":14_0" to="79871" fromLane="0" toLane="0" dir="s" state="M"/>
    <connection from=":17_0" to="77669" fromLane="0" toLane="0" dir="r" state="M"/>
    <connection from=":17_1" to="77326" fromLane="0" toLane="0" dir="s" state="M"/>
    <connection from=":17_2" to="77330" fromLane="0" toLane="0" dir="s" state="M"/>
    <connection from=":17_3" to="77669" fromLane="0" toLane="0" dir="l" state="M"/>
    <connection from=":17_4" to="77326" fromLane="0" toLane="0" dir="r" state="M"/>
    <connection from=":17_5" to="77330" fromLane="0" toLane="0" dir="l" state="M"/>
    <connection from=":18_0" to="77211" fromLane="0" toLane="0" dir="s" state="M"/>
    <connection from=":18_0" to="77211" fromLane="1" toLane="1" dir="s" state="M"/>

</net>