<routes>
	<vehicle depart="0.1" departLane="0" departPos="6.595997313481047" departSpeed="4.9989167" id="38" type="bicycle">
		<route edges="46853 46874"/>
	</vehicle>
	<vehicle depart="0.1" departLane="0" departPos="5.096093235636764" departSpeed="5.0391751" id="311" type="bicycle">
		<route edges=":39_5 46849"/>
	</vehicle>
	<vehicle depart="0.1" departLane="0" departPos="11.30798739744374" departSpeed="0.020676085" id="314" type="passenger">
		<route edges=":39_1 46813"/>
	</vehicle>
	<vehicle depart="0.1" departLane="0" departPos="43.07535131767452" departSpeed="1.8791002" id="338" type="passenger">
		<route edges=":38_4 46850 46853"/>
	</vehicle>
	<vehicle depart="0.1" departLane="0" departPos="19.942338494730713" departSpeed="4.4727819" id="343" type="passenger">
		<route edges="46852 46849"/>
	</vehicle>
	<vehicle depart="0.1" departLane="0" departPos="6.824644857396729" departSpeed="2.9089204" id="348" type="passenger">
		<route edges="46852 46813"/>
	</vehicle>
	<vehicle depart="0.1" departLane="0" departPos="8.734257356281756" departSpeed="3.2888003" id="353" type="passenger">
		<route edges="46850 46853"/>
	</vehicle>
	<vehicle depart="0.1" departLane="0" departPos="8.124155235271203" departSpeed="4.0052481" id="354" type="passenger">
		<route edges=":37_11 46852"/>
	</vehicle>
	<vehicle depart="0.1" departLane="0" departPos="30.440689566406142" departSpeed="7.4375526" id="340" type="motorcycle">
		<route edges="46850 46853"/>
	</vehicle>
	<vehicle depart="0.1" departLane="0" departPos="35.15568272696406" departSpeed="1.5692182" id="30" type="truck">
		<route edges=":39_3 46853 46874"/>
	</vehicle>
</routes>
