<!-- generated on 2020-12-18 15:54:49.685854 by ipykernel_launcher.py v1_2_0+5214-53edc58fcd
-->
<nodes>
	<node id="1" type="from" x="-36.848499999999994" y="43.436275"/>
	<node id="2" type="to" x="101.432825" y="-77.60230833333333"/>
	<node id="3" type="to" x="111.77458000000001" y="-84.35108"/>
	<node id="4" type="to" x="104.61134999999999" y="-92.34125"/>
</nodes>
