<?xml version="1.0" encoding="UTF-8"?>

<!-- generated on Fri Dec 18 15:54:49 2020 by Eclipse SUMO netconvert Version 1.8.0
<configuration xmlns:xsi="http://www.w3.org/2001/XMLSchema-instance" xsi:noNamespaceSchemaLocation="http://sumo.dlr.de/xsd/netconvertConfiguration.xsd">

    <input>
        <node-files value="./converted_scenarios/NGSIM/US101/USA_US101-28_3_I-1-1/nodes.net.xml"/>
        <edge-files value="./converted_scenarios/NGSIM/US101/USA_US101-28_3_I-1-1/edges.net.xml"/>
        <connection-files value="./converted_scenarios/NGSIM/US101/USA_US101-28_3_I-1-1/_connections.net.xml"/>
        <tllogic-files value="./converted_scenarios/NGSIM/US101/USA_US101-28_3_I-1-1/_tll.net.xml"/>
    </input>

    <output>
        <output-file value="./converted_scenarios/NGSIM/US101/USA_US101-28_3_I-1-1/USA_US101-28_3_I-1-1.net.xml"/>
    </output>

    <processing>
        <plain.extend-edge-shape value="true"/>
        <geometry.remove.keep-edges.explicit value="true"/>
        <geometry.avoid-overlap value="true"/>
        <offset.disable-normalization value="true"/>
    </processing>

    <junctions>
        <no-turnarounds value="true"/>
        <junctions.internal-link-detail value="20"/>
    </junctions>

    <report>
        <aggregate-warnings value="5"/>
    </report>

    <random_number>
        <seed value="1234"/>
    </random_number>

</configuration>
-->

<net version="1.6" junctionCornerDetail="5" junctionLinkDetail="20" limitTurnSpeed="5.50" xmlns:xsi="http://www.w3.org/2001/XMLSchema-instance" xsi:noNamespaceSchemaLocation="http://sumo.dlr.de/xsd/net_file.xsd">

    <location netOffset="0.00,0.00" convBoundary="-36.85,-92.34,111.77,43.44" origBoundary="-42.51,-92.34,116.27,49.99" projParameter="!"/>

    <edge id=":2_0" function="internal">
        <lane id=":2_0_0" index="0" disallow="bus truck rail_fast" speed="36.11" length="13.53" width="3.96" shape="84.84,-74.65 94.98,-83.61"/>
    </edge>
    <edge id=":2_1" function="internal">
        <lane id=":2_1_0" index="0" disallow="bus truck rail_fast" speed="36.11" length="13.54" width="3.51" shape="87.31,-71.87 97.49,-80.80"/>
        <lane id=":2_1_1" index="1" disallow="bus truck rail_fast" speed="36.11" length="13.54" width="3.29" shape="89.56,-69.34 99.75,-78.27"/>
        <lane id=":2_1_2" index="2" disallow="bus rail_fast" speed="36.11" length="13.54" width="3.15" shape="91.79,-66.85 101.97,-75.77"/>
        <lane id=":2_1_3" index="3" disallow="bus truck rail_fast" speed="36.11" length="13.54" width="3.36" shape="94.02,-64.33 104.21,-73.24"/>
        <lane id=":2_1_4" index="4" disallow="bus truck rail_fast" speed="36.11" length="13.54" width="3.49" shape="96.28,-61.81 106.49,-70.68"/>
    </edge>

    <edge id="22" from="2" to="4" priority="1" spreadType="center" length="12.19">
        <lane id="22_0" index="0" disallow="rail_fast" speed="36.11" length="12.19" width="3.96" customShape="1" shape="94.98,-83.61 100.99,-89.02 104.61,-92.34"/>
    </edge>
    <edge id="23" from="1" to="2" priority="1" spreadType="center" length="183.53">
        <lane id="23_0" index="0" disallow="bus truck rail_fast" speed="36.11" length="183.53" width="3.68" customShape="1" shape="-42.51,36.72 -41.51,35.84 -40.79,35.19 -38.04,32.79 -37.32,32.15 -34.74,29.92 -34.02,29.28 -31.30,26.94 -30.58,26.30 -27.74,23.79 -27.01,23.14 -24.36,20.79 -23.63,20.14 -20.82,17.72 -20.10,17.07 -17.47,14.77 -16.74,14.12 -14.04,11.76 -13.39,11.18 -13.31,11.11 -10.48,8.72 -9.76,8.08 -7.14,5.72 -6.42,5.08 -3.75,2.76 -3.02,2.12 -0.23,-0.33 0.49,-0.98 3.00,-3.14 3.73,-3.78 6.50,-6.21 7.23,-6.85 9.92,-9.12 10.65,-9.76 13.39,-12.22 14.11,-12.86 14.77,-13.43 16.85,-15.23 17.57,-15.88 20.22,-18.17 20.95,-18.81 23.64,-21.13 24.36,-21.78 28.87,-25.68 29.59,-26.33 32.46,-28.79 33.19,-29.43 36.07,-31.91 36.79,-32.56 39.61,-35.03 40.34,-35.68 43.01,-37.99 43.73,-38.64 46.31,-40.86 46.54,-41.06 47.24,-41.72 47.74,-42.18 50.05,-44.22 50.77,-44.87 53.63,-47.43 54.35,-48.08 57.20,-50.61 57.92,-51.26 60.67,-53.68 61.39,-54.33 63.28,-55.96 64.12,-56.69 65.84,-58.23 72.07,-63.52 74.66,-65.73 75.38,-66.37 78.21,-68.81 78.93,-69.45 79.58,-70.00 81.63,-71.80 82.35,-72.45 84.84,-74.65"/>
        <lane id="23_1" index="1" disallow="bus truck rail_fast" speed="36.11" length="183.53" width="3.45" customShape="1" shape="-40.13,39.54 -35.66,35.69 -34.98,35.10 -34.88,35.01 -33.98,34.24 -32.24,32.69 -31.53,32.03 -31.01,31.58 -28.86,29.75 -28.21,29.16 -25.32,26.63 -24.63,26.02 -22.97,24.56 -21.86,23.54 -21.15,22.89 -20.00,21.86 -18.40,20.51 -17.76,19.94 -15.06,17.60 -14.39,17.01 -12.00,14.93 -11.59,14.57 -10.86,13.92 -8.92,12.29 -8.03,11.54 -7.36,10.94 -4.76,8.61 -4.02,7.94 -1.29,5.57 -1.15,5.44 -0.64,4.99 1.91,2.76 2.24,2.47 2.96,1.82 5.46,-0.36 6.15,-0.99 8.94,-3.45 9.66,-4.10 10.61,-4.91 12.33,-6.35 12.99,-6.94 13.45,-7.35 15.70,-9.34 16.43,-9.99 16.51,-10.06 19.25,-12.42 19.90,-12.99 20.00,-13.07 21.42,-14.29 22.67,-15.36 23.32,-15.94 23.41,-16.01 24.42,-16.88 26.10,-18.35 26.82,-19.00 31.30,-22.92 32.02,-23.57 32.10,-23.64 34.88,-26.01 34.99,-26.11 35.44,-26.51 35.55,-26.60 38.45,-29.02 38.77,-29.30 38.86,-29.38 39.18,-29.66 41.91,-32.05 42.10,-32.22 42.82,-32.87 45.48,-35.20 46.20,-35.85 47.33,-36.83 49.05,-38.32 49.71,-38.90 50.29,-39.41 52.56,-41.41 53.25,-42.03 56.14,-44.62 56.83,-45.24 59.35,-47.47 59.68,-47.76 60.36,-48.36 62.35,-50.09 63.19,-50.81 63.84,-51.39 63.94,-51.48 66.73,-53.85 67.38,-54.43 70.01,-56.74 70.15,-56.86 70.85,-57.49 70.94,-57.57 73.11,-59.41 73.82,-60.02 74.49,-60.62 77.11,-62.89 77.79,-63.50 80.63,-66.00 80.79,-66.14 81.28,-66.59 83.85,-68.82 84.10,-69.03 84.79,-69.65 87.31,-71.87"/>
        <lane id="23_2" index="2" disallow="bus truck rail_fast" speed="36.11" length="183.53" width="3.22" customShape="1" shape="-37.86,42.23 -35.87,40.46 -31.68,36.91 -28.84,34.36 -28.74,34.28 -27.74,33.41 -24.79,30.76 -20.68,27.24 -17.82,24.69 -17.71,24.60 -16.59,23.64 -13.64,21.00 -9.67,17.53 -6.70,14.91 -5.57,13.92 -2.59,11.32 1.22,7.99 4.22,5.38 5.32,4.41 8.29,1.79 12.82,-2.22 15.83,-4.84 16.42,-5.36 19.43,-7.94 23.71,-11.63 26.70,-14.22 34.35,-20.94 37.37,-23.57 38.91,-24.87 41.23,-26.82 41.89,-27.41 44.22,-29.46 49.57,-34.25 52.55,-36.84 60.41,-43.85 61.57,-44.87 63.41,-46.47 64.52,-47.42 72.08,-53.82 72.41,-54.11 75.11,-56.46 75.44,-56.75 82.75,-63.33 83.08,-63.63 85.74,-65.94 86.10,-66.26 89.56,-69.34"/>
        <lane id="23_3" index="3" disallow="bus rail_fast" speed="36.11" length="183.53" width="3.05" customShape="1" shape="-35.71,44.79 -33.78,43.06 -33.69,42.98 -30.63,40.32 -27.67,37.68 -25.63,35.96 -22.77,33.44 -22.64,33.33 -19.50,30.69 -16.54,28.06 -14.38,26.19 -11.52,23.62 -8.27,20.76 -5.34,18.09 -3.46,16.44 -0.43,13.81 2.79,11.02 5.79,8.41 7.56,6.85 10.54,4.23 13.73,1.41 16.72,-1.20 18.60,-2.86 21.57,-5.48 24.97,-8.48 27.96,-11.07 36.03,-18.03 39.04,-20.64 41.01,-22.33 44.00,-24.92 47.30,-27.80 50.29,-30.44 51.81,-31.79 54.79,-34.40 58.30,-37.53 61.25,-40.13 62.64,-41.37 65.60,-43.99 69.09,-47.01 72.11,-49.57 74.26,-51.40 77.25,-53.99 80.79,-57.15 83.75,-59.80 84.84,-60.78 87.91,-63.44 91.64,-66.72 91.79,-66.85"/>
        <lane id="23_4" index="4" disallow="bus truck rail_fast" speed="36.11" length="183.53" width="3.27" customShape="1" shape="-33.55,47.35 -28.42,42.94 -25.56,40.27 -17.31,33.22 -17.19,33.11 -14.37,30.49 -14.24,30.38 -6.09,23.38 -5.98,23.27 -3.24,20.72 4.73,13.80 5.01,13.56 7.72,11.20 8.01,10.95 15.79,4.08 15.91,3.97 18.82,1.44 18.95,1.33 27.06,-5.91 27.14,-5.98 30.07,-8.53 38.20,-15.56 38.34,-15.68 41.19,-18.16 41.34,-18.29 49.46,-25.28 49.56,-25.37 52.44,-27.87 52.57,-27.98 60.53,-35.05 63.51,-37.63 71.21,-44.47 71.45,-44.68 74.23,-47.09 74.45,-47.28 82.83,-54.48 83.10,-54.71 85.84,-57.09 86.12,-57.34 93.76,-64.10 93.90,-64.23 94.02,-64.33"/>
        <lane id="23_5" index="5" disallow="bus truck rail_fast" speed="36.11" length="183.53" width="3.48" customShape="1" shape="-31.32,49.99 -26.12,45.61 -25.89,45.41 -25.76,45.29 -23.15,42.86 -22.82,42.56 -14.92,35.62 -14.66,35.39 -14.59,35.32 -11.98,32.89 -11.62,32.57 -3.85,25.99 -3.62,25.78 -3.50,25.67 -0.89,23.24 -0.55,22.94 6.97,16.38 7.36,16.04 9.96,13.78 10.34,13.45 18.11,6.66 18.50,6.32 21.10,4.06 21.44,3.76 29.38,-3.31 29.75,-3.64 32.35,-5.90 32.74,-6.24 40.60,-13.08 40.99,-13.42 43.59,-15.68 43.98,-16.02 51.68,-22.70 52.07,-23.04 54.67,-25.30 55.02,-25.61 62.79,-32.51 63.16,-32.84 65.76,-35.10 66.14,-35.43 73.73,-42.08 74.11,-42.41 76.71,-44.67 77.12,-45.02 85.13,-51.84 85.51,-52.17 88.14,-54.45 88.45,-54.73 96.00,-61.56 96.28,-61.81"/>
    </edge>
    <edge id="24" from="2" to="3" priority="1" spreadType="center" length="12.20">
        <lane id="24_0" index="0" disallow="rail_fast" speed="36.11" length="12.20" width="3.51" customShape="1" shape="97.49,-80.80 102.81,-85.45 105.80,-88.05 107.34,-89.41"/>
        <lane id="24_1" index="1" disallow="bus truck rail_fast" speed="36.11" length="12.20" width="3.29" customShape="1" shape="99.75,-78.27 105.05,-82.82 105.16,-82.92 108.08,-85.46 108.16,-85.53 109.62,-86.81"/>
        <lane id="24_2" index="2" disallow="bus rail_fast" speed="36.11" length="12.20" width="3.15" customShape="1" shape="101.97,-75.77 102.89,-76.57 105.90,-79.15 107.39,-80.47 110.35,-83.10 111.77,-84.36"/>
        <lane id="24_3" index="3" disallow="bus truck rail_fast" speed="36.11" length="12.20" width="3.36" customShape="1" shape="104.21,-73.24 105.07,-73.99 105.19,-74.10 108.08,-76.61 113.96,-81.91"/>
        <lane id="24_4" index="4" disallow="bus truck rail_fast" speed="36.11" length="12.20" width="3.49" customShape="1" shape="106.49,-70.68 107.44,-71.51 107.83,-71.85 110.43,-74.11 110.76,-74.40 116.27,-79.34"/>
    </edge>

    <junction id="1" type="dead_end" x="-36.85" y="43.44" incLanes="" intLanes="" shape="-30.20,51.32 -43.70,35.31"/>
    <junction id="2" type="priority" x="101.43" y="-77.60" incLanes="23_0 23_1 23_2 23_3 23_4 23_5" intLanes=":2_0_0 :2_1_0 :2_1_1 :2_1_2 :2_1_3 :2_1_4" shape="107.64,-69.38 96.33,-82.12 93.65,-85.08 83.61,-76.02 97.43,-60.51">
        <request index="0" response="000000" foes="000000" cont="0"/>
        <request index="1" response="000000" foes="000000" cont="0"/>
        <request index="2" response="000000" foes="000000" cont="0"/>
        <request index="3" response="000000" foes="000000" cont="0"/>
        <request index="4" response="000000" foes="000000" cont="0"/>
        <request index="5" response="000000" foes="000000" cont="0"/>
    </junction>
    <junction id="3" type="dead_end" x="111.77" y="-84.35" incLanes="24_0 24_1 24_2 24_3 24_4" intLanes="" shape="106.18,-90.73 117.36,-77.98"/>
    <junction id="4" type="dead_end" x="104.61" y="-92.34" incLanes="22_0" intLanes="" shape="103.27,-93.80 105.95,-90.88"/>

    <connection from="23" to="22" fromLane="0" toLane="0" contPos="-4.00" via=":2_0_0" dir="R" state="M"/>
    <connection from="23" to="24" fromLane="1" toLane="0" contPos="-4.00" via=":2_1_0" dir="s" state="M"/>
    <connection from="23" to="24" fromLane="2" toLane="1" contPos="-4.00" via=":2_1_1" dir="s" state="M"/>
    <connection from="23" to="24" fromLane="3" toLane="2" contPos="-4.00" via=":2_1_2" dir="s" state="M"/>
    <connection from="23" to="24" fromLane="4" toLane="3" contPos="-4.00" via=":2_1_3" dir="s" state="M"/>
    <connection from="23" to="24" fromLane="5" toLane="4" contPos="-4.00" via=":2_1_4" dir="s" state="M"/>

    <connection from=":2_0" to="22" fromLane="0" toLane="0" dir="R" state="M"/>
    <connection from=":2_1" to="24" fromLane="0" toLane="0" dir="s" state="M"/>
    <connection from=":2_1" to="24" fromLane="1" toLane="1" dir="s" state="M"/>
    <connection from=":2_1" to="24" fromLane="2" toLane="2" dir="s" state="M"/>
    <connection from=":2_1" to="24" fromLane="3" toLane="3" dir="s" state="M"/>
    <connection from=":2_1" to="24" fromLane="4" toLane="4" dir="s" state="M"/>

</net>
