<routes>
	<vehicle depart="0.1" departLane="0" departPos="11.466017332460543" departSpeed="4.4676224" id="365" type="bus">
		<route edges="5839 5836"/>
	</vehicle>
	<vehicle depart="0.1" departLane="0" departPos="16.815907513148534" departSpeed="0.14940795" id="317" type="passenger">
		<route edges="4342 5171"/>
	</vehicle>
	<vehicle depart="0.1" departLane="0" departPos="5.561435186615464" departSpeed="1.5374612" id="320" type="passenger">
		<route edges=":72_3 5171"/>
	</vehicle>
	<vehicle depart="0.1" departLane="0" departPos="12.272460284674713" departSpeed="2.4365637" id="323" type="passenger">
		<route edges="5840 4992"/>
	</vehicle>
	<vehicle depart="0.1" departLane="0" departPos="24.24844843142608" departSpeed="5.2459835" id="328" type="passenger">
		<route edges="5839 5836"/>
	</vehicle>
	<vehicle depart="0.1" departLane="0" departPos="20.872201869866107" departSpeed="7.3478813" id="332" type="passenger">
		<route edges=":73_5 5840 4992"/>
	</vehicle>
	<vehicle depart="0.1" departLane="0" departPos="2.5" departSpeed="3.8266573" id="368" type="passenger">
		<route edges=":72_4 5839"/>
	</vehicle>
	<vehicle depart="0.1" departLane="0" departPos="39.13431952695015" departSpeed="3.0188364" id="379" type="passenger">
		<route edges="5170 5839"/>
	</vehicle>
	<vehicle depart="0.1" departLane="0" departPos="27.858304566358303" departSpeed="3.3047029" id="384" type="passenger">
		<route edges="5170 4992"/>
	</vehicle>
	<vehicle depart="0.1" departLane="0" departPos="14.969926942838047" departSpeed="4.4968586" id="388" type="passenger">
		<route edges="5170 4992"/>
	</vehicle>
</routes>
