<routes>
	<vehicle depart="0.1" departLane="0" departPos="25.7078509685625" departSpeed="13.878651" id="324" type="passenger">
		<route edges=":17_2 13268"/>
	</vehicle>
	<vehicle depart="0.1" departLane="0" departPos="69.03396700201206" departSpeed="1.0729344" id="326" type="passenger">
		<route edges="13269 13272"/>
	</vehicle>
	<vehicle depart="0.1" departLane="0" departPos="59.54326873612538" departSpeed="0.28526915" id="329" type="passenger">
		<route edges="13269 13357"/>
	</vehicle>
	<vehicle depart="0.1" departLane="0" departPos="60.068689324719685" departSpeed="8.6212785" id="339" type="passenger">
		<route edges="13271 13268"/>
	</vehicle>
	<vehicle depart="0.1" departLane="0" departPos="9.703328704184354" departSpeed="6.6664364" id="343" type="passenger">
		<route edges="13271 13357"/>
	</vehicle>
	<vehicle depart="0.1" departLane="0" departPos="10.001170205253441" departSpeed="13.473731" id="328" type="motorcycle">
		<route edges=":17_2 13268"/>
	</vehicle>
	<vehicle depart="0.1" departLane="0" departPos="40.616605299942705" departSpeed="6.9221253" id="342" type="motorcycle">
		<route edges="13271 13357"/>
	</vehicle>
	<vehicle depart="0.1" departLane="0" departPos="17.501468071007846" departSpeed="1.7502328" id="30" type="truck">
		<route edges=":17_6 13268"/>
	</vehicle>
	<vehicle depart="0.1" departLane="0" departPos="15.753435399367623" departSpeed="0.17298748" id="323" type="truck">
		<route edges=":17_7 13357"/>
	</vehicle>
</routes>
