<routes>
	<vehicle depart="0.1" departLane="0" departPos="5.953879339882962" departSpeed="5.9915078" id="318" type="bicycle">
		<route edges="1676 2040"/>
	</vehicle>
	<vehicle depart="0.1" departLane="0" departPos="14.656860994251746" departSpeed="2.2508237" id="36" type="passenger">
		<route edges=":28_3 2088"/>
	</vehicle>
	<vehicle depart="0.1" departLane="0" departPos="58.1901585733702" departSpeed="0.27857715" id="313" type="passenger">
		<route edges="2089 2037"/>
	</vehicle>
	<vehicle depart="0.1" departLane="0" departPos="14.880894988470846" departSpeed="9.8832367" id="315" type="passenger">
		<route edges="2040 2037"/>
	</vehicle>
	<vehicle depart="0.1" departLane="0" departPos="28.083763240124004" departSpeed="18.403013" id="332" type="passenger">
		<route edges=":28_4 3519 1677 2045"/>
	</vehicle>
	<vehicle depart="0.1" departLane="0" departPos="19.863087640132118" departSpeed="7.8995505" id="334" type="passenger">
		<route edges="1676 2040 2088"/>
	</vehicle>
	<vehicle depart="0.1" departLane="0" departPos="19.20310337178816" departSpeed="8.1421632" id="336" type="passenger">
		<route edges=":28_0 2088"/>
	</vehicle>
	<vehicle depart="0.1" departLane="0" departPos="18.023766008071625" departSpeed="12.691887" id="337" type="passenger">
		<route edges="3279 1676 2040"/>
	</vehicle>
	<vehicle depart="0.1" departLane="0" departPos="40.726638582884256" departSpeed="10.867258" id="343" type="passenger">
		<route edges="2038 3519"/>
	</vehicle>
	<vehicle depart="0.1" departLane="0" departPos="48.07679123706701" departSpeed="11.474556" id="345" type="passenger">
		<route edges="2038 3519"/>
	</vehicle>
</routes>
