<!-- generated on 2020-12-18 15:41:16.178207 by ipykernel_launcher.py v1_2_0+5214-53edc58fcd
-->
<edges>
	<edge from="1" function="normal" id="34782" length="496.72977465951993" numLanes="1" priority="1" speed="36.11111111111111" spreadType="center" to="2">
		<lane allow="pedestrian rail private passenger ship delivery vip emergency bicycle rail_electric army rail_urban trailer coach custom2 tram taxi evehicle custom1 motorcycle authority hov moped" index="0" length="496.72977465951993" shape="122.8493,-25.4304 97.23105,-20.33565 97.19515,-20.328400000000002 71.59135,-14.947149999999999 71.5677,-14.9421 38.80985,-7.9681 0.046384999999999996,-0.24295 -27.23545,4.79955 -27.3519,4.8214500000000005 -62.74505,11.2289 -62.81565,11.24155 -85.60185,15.2492 -85.7296,15.27085 -121.0632,21.199550000000002 -121.101,21.205750000000002 -155.0799,26.59 -155.11110000000002,26.595100000000002 -171.2053,29.22535 -171.2557,29.2335 -180.95159999999998,30.8519 -186.4565,32.1569 -186.7025,32.22265 -198.6121,35.668800000000005 -198.74005,35.7054 -204.02949999999998,37.0478 -210.68135,38.4518 -217.10485,39.42475 -217.32864999999998,39.45845 -256.84119999999996,45.10165 -257.12535,45.13595 -269.10360000000003,45.6827 -280.80420000000004,46.3214 -281.09565,46.3561 -293.8624,48.0159 -293.98339999999996,48.03185 -316.3644,51.0837 -351.9089,56.2037 -352.1797,56.248850000000004 -366.2943,58.64575" speed="36.11111111111111" width="2.8438060288985945"/>
	</edge>
	<edge from="3" function="normal" id="34784" length="496.86900925182346" numLanes="1" priority="1" speed="36.11111111111111" spreadType="center" to="4">
		<lane allow="pedestrian rail private passenger ship delivery vip emergency bicycle rail_electric army rail_urban trailer coach custom2 tram taxi evehicle custom1 motorcycle authority hov moped" index="0" length="496.86900925182346" shape="123.45575,-22.41805 97.83265,-17.31925 72.1938,-11.97075 72.16805,-11.96535 39.40285,-5.10365 0.636715,2.78965 0.604675,2.79585 -26.748649999999998,8.031600000000001 -62.253,14.383299999999998 -62.298950000000005,14.3914 -85.2015,18.36835 -120.53,24.37395 -120.6002,24.38565 -154.5854,29.86225 -170.6738,32.49905 -170.8913,32.5343 -180.32934999999998,34.16445 -180.61605,34.22755 -185.9329,35.39455 -186.1928,35.46535 -197.47469999999998,38.7161 -197.83265,38.8256 -203.17055,40.316 -203.36565000000002,40.34965 -210.244,41.60785 -216.62345,42.49605 -256.83235,48.3899 -268.9628,48.88075 -269.06895,48.886399999999995 -280.74755000000005,49.6507 -281.1015,49.68615 -293.63865,51.008449999999996 -293.71155,51.0179 -315.94405,53.911249999999995 -351.65845,59.3613 -351.6997,59.367850000000004 -365.8291,61.6065" speed="36.11111111111111" width="2.8603467237382225"/>
	</edge>
</edges>
