<routes>
	<vehicle depart="0.1" departLane="0" departPos="10.57663826612073" departSpeed="3.0199831" id="39" type="passenger">
		<route edges=":37_1 141382"/>
	</vehicle>
	<vehicle depart="0.1" departLane="0" departPos="14.927880482197805" departSpeed="0.0" id="317" type="passenger">
		<route edges="141403 141382"/>
	</vehicle>
	<vehicle depart="0.1" departLane="0" departPos="20.335578333232405" departSpeed="10.903371" id="331" type="passenger">
		<route edges=":37_2 141418 141400"/>
	</vehicle>
	<vehicle depart="0.1" departLane="0" departPos="43.39449342238554" departSpeed="12.911981" id="333" type="passenger">
		<route edges=":40_1 141383 141418 141400"/>
	</vehicle>
	<vehicle depart="0.1" departLane="0" departPos="7.4442953459581815" departSpeed="0.0" id="321" type="motorcycle">
		<route edges="141403 141382"/>
	</vehicle>
</routes>
