<routes>
	<vehicle depart="0.1" departLane="0" departPos="67.87112621940051" departSpeed="0.56102339" id="326" type="passenger">
		<route edges="13269 13357"/>
	</vehicle>
	<vehicle depart="0.1" departLane="0" departPos="60.386006490877655" departSpeed="0.16628429" id="329" type="passenger">
		<route edges="13269 13357"/>
	</vehicle>
	<vehicle depart="0.1" departLane="0" departPos="47.12847558606362" departSpeed="0.29652076" id="331" type="passenger">
		<route edges="13269 13357"/>
	</vehicle>
	<vehicle depart="0.1" departLane="0" departPos="15.510369095524995" departSpeed="10.555172" id="333" type="passenger">
		<route edges=":17_3 13357"/>
	</vehicle>
	<vehicle depart="0.1" departLane="0" departPos="26.969358634840447" departSpeed="8.7973753" id="343" type="passenger">
		<route edges="13271 13357"/>
	</vehicle>
	<vehicle depart="0.1" departLane="0" departPos="25.503289473262058" departSpeed="13.664077" id="328" type="motorcycle">
		<route edges=":17_2 13268"/>
	</vehicle>
	<vehicle depart="0.1" departLane="0" departPos="60.83640280374713" departSpeed="11.806452" id="342" type="motorcycle">
		<route edges="13271 13357"/>
	</vehicle>
	<vehicle depart="0.1" departLane="0" departPos="67.99475324733197" departSpeed="2.1493805" id="30" type="truck">
		<route edges="13358 13387"/>
	</vehicle>
	<vehicle depart="0.1" departLane="0" departPos="13.251601959608697" departSpeed="0.054090136" id="323" type="truck">
		<route edges=":17_7 13357"/>
	</vehicle>
</routes>
