<routes>
	<vehicle depart="0.1" departLane="0" departPos="5.0572695085335795" departSpeed="3.1151392" id="314" type="bicycle">
		<route edges=":20_1 1697"/>
	</vehicle>
	<vehicle depart="0.1" departLane="0" departPos="19.884637315215844" departSpeed="6.9344067" id="333" type="bicycle">
		<route edges="2045 2698"/>
	</vehicle>
	<vehicle depart="0.1" departLane="0" departPos="9.609994542692224" departSpeed="6.3303227" id="335" type="bus">
		<route edges="2045 2698"/>
	</vehicle>
	<vehicle depart="0.1" departLane="1" departPos="19.12158989572794" departSpeed="1.9850019" id="37" type="passenger">
		<route edges="2045 1697"/>
	</vehicle>
	<vehicle depart="0.1" departLane="0" departPos="16.216207601733508" departSpeed="0.17550633" id="326" type="passenger">
		<route edges="3877 2045"/>
	</vehicle>
	<vehicle depart="0.1" departLane="0" departPos="22.87182118507393" departSpeed="0.71988882" id="328" type="passenger">
		<route edges="3877 2045"/>
	</vehicle>
	<vehicle depart="0.1" departLane="0" departPos="20.763543742455937" departSpeed="13.737319" id="331" type="passenger">
		<route edges=":20_5 2043 3279"/>
	</vehicle>
	<vehicle depart="0.1" departLane="0" departPos="17.921935944049192" departSpeed="10.615766" id="334" type="motorcycle">
		<route edges="3702 2697 2043"/>
	</vehicle>
	<vehicle depart="0.1" departLane="1" departPos="11.233789507883062" departSpeed="0.97223763" id="322" type="truck">
		<route edges="2045 1697"/>
	</vehicle>
</routes>
