<routes>
	<vehicle depart="0.1" departLane="0" departPos="27.43889014350203" departSpeed="5.6900061" id="31" type="passenger">
		<route edges=":30_4 89732 90510"/>
	</vehicle>
	<vehicle depart="0.1" departLane="0" departPos="12.644837339236222" departSpeed="4.4727249" id="32" type="passenger">
		<route edges="89506 89503"/>
	</vehicle>
	<vehicle depart="0.1" departLane="0" departPos="2.5" departSpeed="7.969228" id="330" type="passenger">
		<route edges=":30_3 89507"/>
	</vehicle>
	<vehicle depart="0.1" departLane="0" departPos="36.461074736778244" departSpeed="1.7558662" id="333" type="passenger">
		<route edges="89504 89732"/>
	</vehicle>
	<vehicle depart="0.1" departLane="0" departPos="62.91090715931171" departSpeed="3.1290092" id="334" type="passenger">
		<route edges="89504 89732"/>
	</vehicle>
	<vehicle depart="0.1" departLane="0" departPos="44.03094274969163" departSpeed="2.6547936" id="335" type="passenger">
		<route edges="89504 89732"/>
	</vehicle>
	<vehicle depart="0.1" departLane="0" departPos="20.784138521532068" departSpeed="4.1654827" id="316" type="truck">
		<route edges=":31_1 89506"/>
	</vehicle>
</routes>
