<!-- generated on Tue Feb  9 22:05:34 2021 by Eclipse SUMO netconvert Version 1.8.0
<configuration xmlns:xsi="http://www.w3.org/2001/XMLSchema-instance" xsi:noNamespaceSchemaLocation="http://sumo.dlr.de/xsd/netconvertConfiguration.xsd">

    <input>
        <node-files value="./converted_scenarios/scenario-factory/ESP_Cambre-2_1_I-1-1/ESP_Cambre-2_1_I-1-1.nod.xml"/>
        <edge-files value="./converted_scenarios/scenario-factory/ESP_Cambre-2_1_I-1-1/ESP_Cambre-2_1_I-1-1.edg.xml"/>
        <connection-files value="./converted_scenarios/scenario-factory/ESP_Cambre-2_1_I-1-1/ESP_Cambre-2_1_I-1-1.con.xml"/>
        <tllogic-files value="./converted_scenarios/scenario-factory/ESP_Cambre-2_1_I-1-1/ESP_Cambre-2_1_I-1-1.tll.xml"/>
        <type-files value="/home/zen/commonroad-interactive-benchmarks/install/commonroad-map-tool/crmapconverter/sumo_map/templates/DEU.typ.xml"/>
    </input>

    <output>
        <output-file value="./converted_scenarios/scenario-factory/ESP_Cambre-2_1_I-1-1/ESP_Cambre-2_1_I-1-1.net.xml"/>
    </output>

    <processing>
        <geometry.remove.keep-edges.explicit value="true"/>
        <geometry.avoid-overlap value="true"/>
        <offset.disable-normalization value="true"/>
    </processing>

    <junctions>
        <no-turnarounds value="true"/>
        <junctions.internal-link-detail value="20"/>
    </junctions>

    <report>
        <aggregate-warnings value="5"/>
    </report>

    <random_number>
        <seed value="1234"/>
    </random_number>

</configuration>
--><net xmlns:xsi="http://www.w3.org/2001/XMLSchema-instance" version="1.6" junctionCornerDetail="5" junctionLinkDetail="20" limitTurnSpeed="5.50" xsi:noNamespaceSchemaLocation="http://sumo.dlr.de/xsd/net_file.xsd">

    <location netOffset="0.00,0.00" convBoundary="-521.06,-995.98,-358.38,-811.34" origBoundary="-521.06,-995.98,-358.38,-811.34" projParameter="!"/>

    <type id="highway.bridleway" priority="1" speed="2.78" allow="pedestrian" oneway="1" width="2.00"/>
    <type id="highway.bus_guideway" priority="1" speed="27.78" allow="bus" oneway="1"/>
    <type id="highway.cycleway" priority="1" speed="8.33" allow="bicycle" oneway="0" width="1.00"/>
    <type id="highway.footway" priority="1" speed="2.78" allow="pedestrian" oneway="1" width="2.00"/>
    <type id="highway.ford" priority="1" speed="2.78" allow="army" oneway="0"/>
    <type id="highway.living_street" priority="2" speed="2.78" disallow="tram rail_urban rail rail_electric rail_fast ship" oneway="0"/>
    <type id="highway.motorway" priority="14" speed="39.44" allow="private emergency authority army vip passenger hov taxi bus coach delivery truck trailer motorcycle evehicle custom1 custom2" oneway="1"/>
    <type id="highway.motorway_link" priority="9" speed="22.22" allow="private emergency authority army vip passenger hov taxi bus coach delivery truck trailer motorcycle evehicle custom1 custom2" oneway="1"/>
    <type id="highway.path" priority="1" speed="2.78" allow="pedestrian bicycle" oneway="0" width="2.00"/>
    <type id="highway.pedestrian" priority="1" speed="2.78" allow="pedestrian" oneway="1" width="2.00"/>
    <type id="highway.primary" priority="12" speed="27.78" disallow="pedestrian tram rail_urban rail rail_electric rail_fast ship" oneway="0"/>
    <type id="highway.primary_link" priority="7" speed="22.22" disallow="pedestrian tram rail_urban rail rail_electric rail_fast ship" oneway="0"/>
    <type id="highway.raceway" priority="15" speed="83.33" allow="vip" oneway="0"/>
    <type id="highway.residential" priority="3" speed="13.89" disallow="pedestrian tram rail_urban rail rail_electric rail_fast ship" oneway="0"/>
    <type id="highway.secondary" priority="11" speed="27.78" disallow="pedestrian tram rail_urban rail rail_electric rail_fast ship" oneway="0"/>
    <type id="highway.secondary_link" priority="6" speed="22.22" disallow="pedestrian tram rail_urban rail rail_electric rail_fast ship" oneway="0"/>
    <type id="highway.service" priority="1" speed="5.56" allow="pedestrian delivery bicycle" oneway="0"/>
    <type id="highway.stairs" priority="1" speed="1.39" allow="pedestrian" oneway="1" width="2.00"/>
    <type id="highway.step" priority="1" speed="1.39" allow="pedestrian" oneway="1" width="2.00"/>
    <type id="highway.steps" priority="1" speed="1.39" allow="pedestrian" oneway="1" width="2.00"/>
    <type id="highway.tertiary" priority="10" speed="22.22" disallow="pedestrian tram rail_urban rail rail_electric rail_fast ship" oneway="0"/>
    <type id="highway.tertiary_link" priority="5" speed="22.22" disallow="pedestrian tram rail_urban rail rail_electric rail_fast ship" oneway="0"/>
    <type id="highway.track" priority="1" speed="5.56" allow="pedestrian motorcycle moped bicycle" oneway="0"/>
    <type id="highway.trunk" priority="13" speed="27.78" disallow="pedestrian bicycle tram rail_urban rail rail_electric rail_fast ship" oneway="0"/>
    <type id="highway.trunk_link" priority="8" speed="22.22" disallow="pedestrian bicycle tram rail_urban rail rail_electric rail_fast ship" oneway="0"/>
    <type id="highway.unclassified" priority="4" speed="13.89" disallow="pedestrian tram rail_urban rail rail_electric rail_fast ship" oneway="0"/>
    <type id="highway.unsurfaced" priority="1" speed="8.33" disallow="tram rail_urban rail rail_electric rail_fast ship" oneway="0"/>
    <type id="railway.highspeed" priority="21" speed="69.44" allow="rail_fast" oneway="1"/>
    <type id="railway.light_rail" priority="19" speed="27.78" allow="rail_urban" oneway="1"/>
    <type id="railway.preserved" priority="16" speed="27.78" allow="rail" oneway="1"/>
    <type id="railway.rail" priority="20" speed="44.44" allow="rail" oneway="1"/>
    <type id="railway.subway" priority="18" speed="27.78" allow="rail_urban" oneway="1"/>
    <type id="railway.tram" priority="17" speed="13.89" allow="tram" oneway="1"/>

    <edge id=":30_0" function="internal">
        <lane id=":30_0_0" index="0" disallow="pedestrian tram rail_urban rail rail_electric rail_fast ship" speed="35.61" length="36.26" width="3.50" shape="-393.55,-865.78 -394.97,-867.04 -397.45,-868.79 -401.80,-871.35 -408.11,-874.55 -416.39,-878.30 -425.72,-882.21"/>
    </edge>
    <edge id=":30_1" function="internal">
        <lane id=":30_1_0" index="0" disallow="pedestrian tram rail_urban rail rail_electric rail_fast ship" speed="16.06" length="35.87" width="3.50" shape="-393.47,-865.72 -394.26,-866.54 -396.51,-869.08 -398.59,-871.82 -400.43,-874.75 -401.98,-877.86 -403.19,-881.14 -404.01,-884.55 -404.40,-888.03 -404.37,-891.54 -403.92,-895.00 -403.12,-898.37"/>
    </edge>
    <edge id=":30_2" function="internal">
        <lane id=":30_2_0" index="0" disallow="pedestrian tram rail_urban rail rail_electric rail_fast ship" speed="15.21" length="32.13" width="3.50" shape="-399.76,-897.39 -400.48,-894.37 -400.87,-891.28 -400.90,-888.16 -400.54,-885.07 -399.80,-882.05 -398.71,-879.13 -397.30,-876.35 -395.64,-873.72 -393.75,-871.24 -391.69,-868.91 -391.00,-868.19"/>
    </edge>
    <edge id=":30_3" function="internal">
        <lane id=":30_3_0" index="0" disallow="pedestrian tram rail_urban rail rail_electric rail_fast ship" speed="11.90" length="35.30" width="3.50" shape="-399.76,-897.39 -401.06,-893.54 -402.14,-891.04 -403.41,-888.64 -404.92,-886.39 -406.71,-884.35 -407.72,-883.44 -408.81,-882.62 -409.96,-881.92 -411.19,-881.33 -412.46,-880.86 -413.78,-880.53 -415.12,-880.32 -416.48,-880.24 -417.83,-880.27 -420.53,-880.62 -423.16,-881.29 -425.72,-882.21"/>
    </edge>
    <edge id=":30_4" function="internal">
        <lane id=":30_4_0" index="0" disallow="pedestrian tram rail_urban rail rail_electric rail_fast ship" speed="10.89" length="29.34" width="3.50" shape="-424.42,-885.45 -422.22,-884.66 -420.00,-884.10 -417.74,-883.83 -416.67,-883.81 -415.58,-883.89 -414.52,-884.07 -413.49,-884.34 -412.50,-884.72 -411.55,-885.19 -410.64,-885.77 -409.78,-886.43 -409.00,-887.15 -407.51,-888.87 -406.26,-890.77 -405.18,-892.83 -404.26,-894.99 -403.12,-898.37"/>
    </edge>
    <edge id=":30_5" function="internal">
        <lane id=":30_5_0" index="0" disallow="pedestrian tram rail_urban rail rail_electric rail_fast ship" speed="36.11" length="37.77" width="3.50" shape="-424.42,-885.45 -414.85,-881.45 -406.36,-877.58 -399.85,-874.25 -395.31,-871.56 -392.67,-869.67 -391.00,-868.19"/>
    </edge>
    <edge id=":31_0" function="internal">
        <lane id=":31_0_0" index="0" disallow="pedestrian tram rail_urban rail rail_electric rail_fast ship" speed="9.04" length="20.61" width="3.50" shape="-454.31,-896.67 -457.51,-899.80 -460.31,-902.16 -462.82,-903.89 -464.97,-905.05 -467.26,-905.90 -469.05,-906.25 -470.88,-906.27 -471.75,-906.09"/>
    </edge>
    <edge id=":31_1" function="internal">
        <lane id=":31_1_0" index="0" disallow="pedestrian tram rail_urban rail rail_electric rail_fast ship" speed="12.03" length="29.39" width="3.50" shape="-459.37,-926.05 -460.10,-923.34 -460.53,-920.61 -460.64,-917.84 -460.41,-915.08 -459.84,-912.37 -458.97,-909.75 -457.81,-907.24 -456.10,-904.38 -454.12,-901.71 -451.92,-899.22"/>
    </edge>
    <edge id=":31_2" function="internal">
        <lane id=":31_2_0" index="0" disallow="pedestrian tram rail_urban rail rail_electric rail_fast ship" speed="36.11" length="23.50" width="3.50" shape="-460.58,-926.88 -463.34,-922.93 -474.07,-907.64"/>
    </edge>
    <edge id=":31_3" function="internal">
        <lane id=":31_3_0" index="0" disallow="pedestrian tram rail_urban rail rail_electric rail_fast ship" speed="36.11" length="30.15" width="3.50" shape="-469.87,-923.40 -468.56,-921.93 -465.46,-917.85 -457.43,-905.97 -454.31,-901.91 -451.92,-899.22"/>
    </edge>
    <edge id=":31_4" function="internal">
        <lane id=":31_4_0" index="0" disallow="pedestrian tram rail_urban rail rail_electric rail_fast ship" speed="10.46" length="26.82" width="3.50" shape="-479.44,-931.13 -477.44,-929.93 -475.61,-928.49 -474.39,-927.23 -473.36,-925.81 -472.55,-924.26 -471.98,-922.61 -471.65,-920.89 -471.55,-918.56 -471.79,-916.24 -472.44,-913.40 -473.60,-910.10 -474.59,-907.99"/>
    </edge>
    <edge id=":32_0" function="internal">
        <lane id=":32_0_0" index="0" disallow="pedestrian tram rail_urban rail rail_electric rail_fast ship" speed="4.38" length="3.52" width="3.50" shape="-384.49,-943.88 -384.07,-943.88 -382.30,-944.14 -381.05,-944.53"/>
    </edge>
    <edge id=":32_1" function="internal">
        <lane id=":32_1_0" index="0" disallow="pedestrian tram rail_urban rail rail_electric rail_fast ship" speed="9.34" length="19.07" width="3.50" shape="-387.14,-940.13 -385.93,-938.48 -384.82,-936.50 -384.00,-934.39 -383.52,-932.17 -383.41,-930.47 -383.62,-928.21 -384.19,-926.02 -385.08,-923.93 -385.91,-922.43"/>
    </edge>
    <edge id=":32_2" function="internal">
        <lane id=":32_2_0" index="0" disallow="pedestrian tram rail_urban rail rail_electric rail_fast ship" speed="36.11" length="21.20" width="3.50" shape="-388.85,-924.34 -382.48,-935.20 -378.14,-942.64"/>
    </edge>
    <edge id=":33_0" function="internal">
        <lane id=":33_0_0" index="0" disallow="pedestrian tram rail_urban rail rail_electric rail_fast ship" speed="36.11" length="0.10" width="3.50" shape="-494.93,-877.61 -494.93,-877.61"/>
    </edge>
    <edge id=":35_0" function="internal">
        <lane id=":35_0_0" index="0" disallow="pedestrian tram rail_urban rail rail_electric rail_fast ship" speed="36.11" length="6.43" width="3.50" shape="-441.49,-954.30 -445.22,-949.06"/>
    </edge>
    <edge id=":35_1" function="internal">
        <lane id=":35_1_0" index="0" disallow="pedestrian tram rail_urban rail rail_electric rail_fast ship" speed="9.67" length="20.84" width="3.50" shape="-449.10,-949.38 -449.04,-948.82 -449.11,-947.09 -449.55,-944.82 -450.30,-942.63 -451.58,-940.04 -445.29,-949.10"/>
    </edge>
    <edge id=":36_0" function="internal">
        <lane id=":36_0_0" index="0" disallow="pedestrian tram rail_urban rail rail_electric rail_fast ship" speed="3.44" length="1.58" width="3.50" shape="-423.67,-973.34 -423.48,-972.23 -423.35,-971.79"/>
    </edge>
    <edge id=":36_1" function="internal">
        <lane id=":36_1_0" index="0" disallow="pedestrian tram rail_urban rail rail_electric rail_fast ship" speed="36.11" length="8.93" width="3.50" shape="-426.94,-975.34 -427.81,-973.96 -431.90,-967.91"/>
    </edge>

    <edge id="89445" from="22" to="31" priority="3" type="highway.residential" spreadType="center" length="52.59">
        <lane id="89445_0" index="0" disallow="pedestrian tram rail_urban rail rail_electric rail_fast ship" speed="36.11" length="52.59" width="3.49" customShape="1" shape="-500.33,-960.42 -500.56,-958.88 -502.07,-954.46 -502.34,-952.93 -502.30,-951.89 -502.01,-950.89 -500.63,-948.10 -498.93,-945.48 -496.95,-943.07 -494.35,-940.54 -491.51,-938.27 -487.62,-935.67 -482.20,-932.59 -468.77,-925.48"/>
    </edge>
    <edge id="89471" from="26" to="35" priority="3" type="highway.residential" spreadType="center" length="40.69">
        <lane id="89471_0" index="0" disallow="pedestrian tram rail_urban rail rail_electric rail_fast ship" speed="36.11" length="40.69" width="3.50" customShape="1" shape="-479.39,-977.04 -468.31,-969.24 -446.11,-953.62"/>
    </edge>
    <edge id="89503" from="30" to="8" priority="3" type="highway.residential" spreadType="center" length="64.41" shape="-404.81,-883.88 -358.38,-813.33">
        <lane id="89503_0" index="0" disallow="pedestrian tram rail_urban rail rail_electric rail_fast ship" speed="36.11" length="64.41" width="3.50" customShape="1" shape="-391.00,-868.19 -387.11,-864.07 -382.82,-859.00 -378.82,-853.70 -374.53,-847.34 -370.00,-839.93 -368.31,-836.78 -366.49,-832.56 -363.62,-824.36 -361.79,-819.59 -360.24,-816.37 -358.38,-813.33"/>
    </edge>
    <edge id="89504" from="21" to="30" priority="3" type="highway.residential" spreadType="center" length="63.88" shape="-361.26,-811.34 -407.73,-881.96">
        <lane id="89504_0" index="0" disallow="pedestrian tram rail_urban rail rail_electric rail_fast ship" speed="36.11" length="63.88" width="3.50" customShape="1" shape="-361.26,-811.34 -363.21,-814.51 -364.85,-817.85 -366.74,-822.69 -369.58,-830.83 -371.30,-834.92 -372.90,-837.95 -377.35,-845.26 -381.56,-851.51 -385.48,-856.72 -389.68,-861.70 -393.54,-865.79"/>
    </edge>
    <edge id="89506" from="31" to="30" priority="3" type="highway.residential" spreadType="center" length="31.04" shape="-463.05,-914.25 -405.44,-884.44">
        <lane id="89506_0" index="0" disallow="pedestrian tram rail_urban rail rail_electric rail_fast ship" speed="36.11" length="31.04" width="3.50" customShape="1" shape="-451.92,-899.22 -449.73,-897.17 -447.31,-895.40 -444.28,-893.66 -440.64,-891.99 -432.71,-888.92 -424.37,-885.43"/>
    </edge>
    <edge id="89507" from="30" to="31" priority="3" type="highway.residential" spreadType="center" length="32.29" shape="-407.05,-881.34 -464.66,-911.15">
        <lane id="89507_0" index="0" disallow="pedestrian tram rail_urban rail rail_electric rail_fast ship" speed="36.11" length="32.29" width="3.50" customShape="1" shape="-425.72,-882.21 -434.22,-885.75 -442.38,-888.92 -446.21,-890.72 -449.45,-892.62 -452.07,-894.57 -454.31,-896.67"/>
    </edge>
    <edge id="89646" from="36" to="32" priority="3" type="highway.residential" spreadType="center" length="47.84">
        <lane id="89646_0" index="0" disallow="pedestrian tram rail_urban rail rail_electric rail_fast ship" speed="36.11" length="47.84" width="3.50" customShape="1" shape="-425.42,-968.86 -405.59,-954.88 -386.32,-941.29"/>
    </edge>
    <edge id="89690" from="27" to="36" priority="3" type="highway.residential" spreadType="center" length="24.30">
        <lane id="89690_0" index="0" disallow="pedestrian tram rail_urban rail rail_electric rail_fast ship" speed="36.11" length="24.30" width="3.50" customShape="1" shape="-414.12,-995.98 -417.33,-990.74 -426.80,-975.25"/>
    </edge>
    <edge id="89692" from="36" to="35" priority="3" type="highway.residential" spreadType="center" length="16.64">
        <lane id="89692_0" index="0" disallow="pedestrian tram rail_urban rail rail_electric rail_fast ship" speed="36.11" length="16.64" width="3.50" customShape="1" shape="-431.77,-967.81 -436.17,-961.78 -441.58,-954.37"/>
    </edge>
    <edge id="89694" from="35" to="31" priority="3" type="highway.residential" spreadType="center" length="26.97">
        <lane id="89694_0" index="0" disallow="pedestrian tram rail_urban rail rail_electric rail_fast ship" speed="36.11" length="26.97" width="3.50" customShape="1" shape="-445.29,-949.10 -453.73,-936.73 -460.48,-926.81"/>
    </edge>
    <edge id="89696" from="31" to="33" priority="3" type="highway.residential" spreadType="center" length="36.58">
        <lane id="89696_0" index="0" disallow="pedestrian tram rail_urban rail rail_electric rail_fast ship" speed="36.11" length="36.58" width="3.50" customShape="1" shape="-474.10,-907.66 -486.77,-888.62 -491.81,-881.62 -494.93,-877.61"/>
    </edge>
    <edge id="89732" from="30" to="32" priority="3" type="highway.residential" spreadType="center" length="29.76" shape="-407.88,-883.51 -387.33,-937.36">
        <lane id="89732_0" index="0" disallow="pedestrian tram rail_urban rail rail_electric rail_fast ship" speed="36.11" length="29.76" width="3.50" customShape="1" shape="-403.12,-898.37 -402.97,-898.88 -401.59,-902.81 -399.89,-906.60 -397.64,-910.71 -394.01,-916.42 -388.84,-924.34"/>
    </edge>
    <edge id="89733" from="32" to="30" priority="3" type="highway.residential" spreadType="center" length="28.73" shape="-384.06,-936.11 -404.61,-882.27">
        <lane id="89733_0" index="0" disallow="pedestrian tram rail_urban rail rail_electric rail_fast ship" speed="36.11" length="28.73" width="3.50" customShape="1" shape="-385.91,-922.43 -390.97,-914.68 -394.51,-909.12 -396.68,-905.19 -398.31,-901.60 -399.63,-897.84 -399.76,-897.39"/>
    </edge>
    <edge id="90510" from="32" to="29" priority="3" type="highway.residential" spreadType="center" length="39.85">
        <lane id="90510_0" index="0" disallow="pedestrian tram rail_urban rail rail_electric rail_fast ship" speed="36.11" length="39.85" width="3.50" customShape="1" shape="-378.41,-942.82 -372.02,-952.70 -371.68,-953.23 -370.21,-955.75 -369.03,-958.43 -368.37,-960.67 -368.04,-962.98 -368.06,-964.73 -368.33,-966.47 -368.84,-968.14 -369.59,-969.73 -370.88,-971.67 -372.44,-973.41 -374.66,-975.32 -376.57,-976.66"/>
    </edge>
    <edge id="90864" from="33" to="34" priority="3" type="highway.residential" spreadType="center" length="29.34">
        <lane id="90864_0" index="0" disallow="pedestrian tram rail_urban rail rail_electric rail_fast ship" speed="36.11" length="29.34" width="3.50" customShape="1" shape="-494.93,-877.61 -496.81,-875.51 -498.92,-873.63 -500.78,-872.36 -502.79,-871.34 -504.93,-870.61 -507.15,-870.22 -509.41,-870.14 -511.65,-870.37 -514.40,-871.02 -517.05,-871.99 -520.08,-873.49 -521.06,-874.05"/>
    </edge>

    <junction id="21" type="dead_end" x="-361.26" y="-811.34" incLanes="" intLanes="" shape="-359.77,-812.26 -362.75,-810.42" rightOfWay="edgePriority"/>
    <junction id="22" type="dead_end" x="-500.33" y="-960.42" incLanes="" intLanes="" shape="-502.06,-960.68 -498.61,-960.17" rightOfWay="edgePriority"/>
    <junction id="26" type="dead_end" x="-479.39" y="-977.04" incLanes="" intLanes="" shape="-480.40,-975.60 -478.38,-978.47" rightOfWay="edgePriority"/>
    <junction id="27" type="dead_end" x="-414.12" y="-995.98" incLanes="" intLanes="" shape="-415.62,-996.90 -412.63,-995.07" rightOfWay="edgePriority"/>
    <junction id="29" type="dead_end" x="-376.57" y="-976.66" incLanes="90510_0" intLanes="" shape="-377.57,-975.22 -375.57,-978.09" rightOfWay="edgePriority"/>
    <junction id="30" type="priority" x="-406.25" y="-882.89" incLanes="89504_0 89733_0 89506_0" intLanes=":30_0_0 :30_1_0 :30_2_0 :30_3_0 :30_4_0 :30_5_0" shape="-394.81,-864.59 -389.72,-869.39 -393.44,-873.85 -396.22,-878.35 -398.08,-882.91 -399.01,-887.52 -399.01,-892.18 -398.08,-896.90 -404.80,-898.87 -406.75,-893.66 -409.19,-889.75 -412.10,-887.13 -415.49,-885.81 -419.36,-885.78 -423.70,-887.05 -426.39,-880.59 -419.23,-877.93 -413.64,-876.28 -409.03,-874.87 -404.77,-872.95 -400.23,-869.78">
        <request index="0" response="000000" foes="001000" cont="0"/>
        <request index="1" response="110000" foes="111000" cont="0"/>
        <request index="2" response="100000" foes="100000" cont="0"/>
        <request index="3" response="100011" foes="100011" cont="0"/>
        <request index="4" response="000000" foes="000010" cont="0"/>
        <request index="5" response="000000" foes="001110" cont="0"/>
    </junction>
    <junction id="31" type="priority" x="-463.81" y="-912.68" incLanes="89507_0 89694_0 89445_0" intLanes=":31_0_0 :31_1_0 :31_2_0 :31_3_0 :31_4_0" shape="-455.50,-895.39 -450.73,-900.50 -455.30,-905.26 -458.59,-909.80 -460.61,-914.13 -461.36,-918.25 -460.84,-922.14 -459.04,-925.83 -461.93,-927.80 -463.48,-926.42 -464.43,-926.15 -465.49,-926.16 -466.66,-926.45 -467.95,-927.02 -469.58,-923.93 -468.86,-921.50 -469.52,-919.28 -470.85,-916.40 -472.86,-912.85 -475.55,-908.63 -472.64,-906.69 -469.32,-906.58 -466.58,-904.88 -463.28,-902.33 -459.55,-899.10">
        <request index="0" response="00000" foes="10100" cont="0"/>
        <request index="1" response="01000" foes="01000" cont="0"/>
        <request index="2" response="11001" foes="11001" cont="0"/>
        <request index="3" response="00000" foes="00110" cont="0"/>
        <request index="4" response="00001" foes="00101" cont="0"/>
    </junction>
    <junction id="32" type="priority" x="-385.71" y="-936.69" incLanes="89646_0 89732_0" intLanes=":32_0_0 :32_1_0 :32_2_0" shape="-376.94,-941.87 -379.88,-943.77 -381.45,-942.16 -382.32,-941.83 -383.26,-941.81 -384.26,-942.10 -385.32,-942.71 -387.33,-939.86 -385.68,-936.84 -385.84,-934.64 -386.67,-931.98 -388.16,-928.87 -390.31,-925.30 -384.45,-921.47 -382.24,-925.51 -381.17,-928.78 -380.68,-931.66 -380.19,-934.55 -379.13,-937.82">
        <request index="0" response="000" foes="100" cont="0"/>
        <request index="1" response="000" foes="100" cont="0"/>
        <request index="2" response="011" foes="011" cont="0"/>
    </junction>
    <junction id="33" type="priority" x="-494.93" y="-877.61" incLanes="89696_0" intLanes=":33_0_0" shape="-493.52,-876.58 -496.28,-878.73 -493.67,-876.40">
        <request index="0" response="0" foes="0" cont="0"/>
    </junction>
    <junction id="34" type="dead_end" x="-521.06" y="-874.05" incLanes="90864_0" intLanes="" shape="-521.93,-872.53 -520.19,-875.56"/>
    <junction id="35" type="priority" x="-448.76" y="-953.73" incLanes="89692_0 89471_0" intLanes=":35_0_0 :35_1_0" shape="-440.16,-953.34 -442.99,-955.40 -443.62,-954.82 -443.96,-954.71 -444.32,-954.71 -444.71,-954.82 -445.11,-955.05 -447.12,-952.19 -446.53,-951.58 -446.41,-951.24 -446.40,-950.87 -446.51,-950.49 -446.74,-950.09 -443.85,-948.12">
        <request index="0" response="00" foes="10" cont="0"/>
        <request index="1" response="01" foes="01" cont="0"/>
    </junction>
    <junction id="36" type="priority" x="-424.05" y="-969.75" incLanes="89690_0" intLanes=":36_0_0 :36_1_0" shape="-426.42,-967.43 -424.41,-970.29 -425.56,-971.48 -425.81,-972.14 -425.86,-972.83 -425.69,-973.57 -425.31,-974.34 -428.29,-976.17 -433.19,-968.85 -430.36,-966.78 -429.19,-967.86 -428.55,-968.08 -427.88,-968.08 -427.17,-967.86">
        <request index="0" response="00" foes="00" cont="0"/>
        <request index="1" response="00" foes="00" cont="0"/>
    </junction>
    <junction id="8" type="dead_end" x="-358.38" y="-813.33" incLanes="89503_0" intLanes="" shape="-356.89,-814.24 -359.87,-812.41" rightOfWay="edgePriority"/>

    <connection from="89445" to="89506" fromLane="0" toLane="0" contPos="-4.00" shape="-479.44,-931.13 -476.80,-929.57 -473.92,-927.42 -471.29,-924.99 -468.56,-921.93 -465.46,-917.85 -457.43,-905.97 -454.31,-901.91 -451.92,-899.22" via=":31_3_0" dir="s" state="M"/>
    <connection from="89445" to="89696" fromLane="0" toLane="0" contPos="-4.00" shape="-479.44,-931.13 -477.44,-929.93 -475.61,-928.49 -474.39,-927.23 -473.36,-925.81 -472.55,-924.26 -471.98,-922.61 -471.65,-920.89 -471.55,-918.56 -471.79,-916.24 -472.44,-913.40 -473.60,-910.10 -475.34,-906.40 -477.67,-902.35 -478.61,-900.88" via=":31_4_0" dir="l" state="m"/>
    <connection from="89471" to="89694" fromLane="0" toLane="0" contPos="-4.00" shape="-457.23,-961.44 -454.94,-959.67 -452.87,-957.65 -451.43,-955.84 -450.26,-953.84 -449.62,-952.23 -449.21,-950.55 -449.04,-948.82 -449.11,-947.09 -449.55,-944.82 -450.30,-942.63 -451.58,-940.04 -452.81,-938.07" via=":35_1_0" dir="l" state="m"/>
    <connection from="89504" to="89507" fromLane="0" toLane="0" contPos="-4.00" shape="-393.47,-865.72 -394.97,-867.04 -397.45,-868.79 -401.80,-871.35 -408.11,-874.55 -416.39,-878.30 -425.72,-882.21" via=":30_0_0" dir="s" state="M"/>
    <connection from="89504" to="89732" fromLane="0" toLane="0" contPos="-4.00" shape="-393.47,-865.72 -394.26,-866.54 -396.51,-869.08 -398.59,-871.82 -400.43,-874.75 -401.98,-877.86 -403.19,-881.14 -404.01,-884.55 -404.40,-888.03 -404.37,-891.54 -403.92,-895.00 -403.12,-898.37" via=":30_1_0" dir="l" state="m"/>
    <connection from="89506" to="89732" fromLane="0" toLane="0" contPos="-4.00" shape="-424.42,-885.45 -422.22,-884.66 -420.00,-884.10 -417.74,-883.83 -416.67,-883.81 -415.58,-883.89 -414.52,-884.07 -413.49,-884.34 -412.50,-884.72 -411.55,-885.19 -410.64,-885.77 -409.78,-886.43 -409.00,-887.15 -407.51,-888.87 -406.26,-890.77 -405.18,-892.83 -404.26,-894.99 -403.12,-898.37" via=":30_4_0" dir="r" state="M"/>
    <connection from="89506" to="89503" fromLane="0" toLane="0" contPos="-4.00" shape="-424.42,-885.45 -414.85,-881.45 -406.36,-877.58 -399.85,-874.25 -395.31,-871.56 -392.67,-869.67 -391.00,-868.19" via=":30_5_0" dir="s" state="M"/>
    <connection from="89507" to="89696" fromLane="0" toLane="0" contPos="-4.00" shape="-454.43,-896.78 -457.51,-899.80 -460.31,-902.16 -462.82,-903.89 -464.97,-905.05 -467.26,-905.90 -469.05,-906.25 -470.88,-906.27 -472.67,-905.91 -474.34,-905.16 -475.83,-904.11 -477.14,-902.82 -478.61,-900.88" via=":31_0_0" dir="r" state="M"/>
    <connection from="89646" to="90510" fromLane="0" toLane="0" contPos="-4.00" shape="-395.68,-947.88 -393.15,-946.30 -390.47,-945.02 -388.20,-944.28 -385.85,-943.89 -384.07,-943.88 -382.30,-944.14 -380.59,-944.67 -378.98,-945.44 -377.02,-946.79 -375.27,-948.41 -373.37,-950.71 -372.36,-952.18" via=":32_0_0" dir="r" state="M"/>
    <connection from="89646" to="89733" fromLane="0" toLane="0" contPos="-4.00" shape="-395.68,-947.88 -392.05,-945.15 -389.53,-942.86 -387.61,-940.77 -385.93,-938.48 -384.82,-936.50 -384.00,-934.39 -383.52,-932.17 -383.41,-930.47 -383.62,-928.21 -384.19,-926.02 -385.08,-923.93 -385.91,-922.43" via=":32_1_0" dir="l" state="M"/>
    <connection from="89690" to="89646" fromLane="0" toLane="0" contPos="-4.00" shape="-420.53,-985.50 -421.93,-982.95 -423.02,-980.26 -423.59,-978.01 -423.84,-975.70 -423.78,-973.95 -423.48,-972.23 -422.96,-970.57 -421.94,-968.48 -420.62,-966.57 -418.65,-964.43 -416.44,-962.55 -415.50,-961.87" via=":36_0_0" dir="r" state="M"/>
    <connection from="89690" to="89692" fromLane="0" toLane="0" contPos="-4.00" shape="-420.53,-985.50 -427.81,-973.96 -433.75,-965.17 -436.10,-961.88" via=":36_1_0" dir="s" state="M"/>
    <connection from="89692" to="89694" fromLane="0" toLane="0" contPos="-4.00" shape="-436.25,-961.68 -446.21,-947.66 -452.81,-938.07" via=":35_0_0" dir="s" state="M"/>
    <connection from="89694" to="89506" fromLane="0" toLane="0" contPos="-4.00" shape="-454.65,-935.38 -456.69,-932.08 -458.18,-929.12 -459.38,-926.02 -460.10,-923.34 -460.53,-920.61 -460.64,-917.84 -460.41,-915.08 -459.84,-912.37 -458.97,-909.75 -457.81,-907.24 -456.10,-904.38 -454.12,-901.71 -451.92,-899.22" via=":31_1_0" dir="r" state="m"/>
    <connection from="89694" to="89696" fromLane="0" toLane="0" contPos="-4.00" shape="-454.65,-935.38 -463.34,-922.93 -474.39,-907.19 -478.61,-900.88" via=":31_2_0" dir="s" state="m"/>
    <connection from="89696" to="90864" fromLane="0" toLane="0" contPos="-4.00" via=":33_0_0" dir="s" state="M"/>
    <connection from="89732" to="90510" fromLane="0" toLane="0" contPos="-4.00" shape="-388.90,-924.25 -382.48,-935.20 -375.58,-947.02 -372.36,-952.18" via=":32_2_0" dir="s" state="m"/>
    <connection from="89733" to="89503" fromLane="0" toLane="0" contPos="-4.00" shape="-399.76,-897.39 -400.48,-894.37 -400.87,-891.28 -400.90,-888.16 -400.54,-885.07 -399.80,-882.05 -398.71,-879.13 -397.30,-876.35 -395.64,-873.72 -393.75,-871.24 -391.69,-868.91 -391.00,-868.19" via=":30_2_0" dir="r" state="m"/>
    <connection from="89733" to="89507" fromLane="0" toLane="0" contPos="-4.00" shape="-399.76,-897.39 -401.06,-893.54 -402.14,-891.04 -403.41,-888.64 -404.92,-886.39 -406.71,-884.35 -407.72,-883.44 -408.81,-882.62 -409.96,-881.92 -411.19,-881.33 -412.46,-880.86 -413.78,-880.53 -415.12,-880.32 -416.48,-880.24 -417.83,-880.27 -420.53,-880.62 -423.16,-881.29 -425.72,-882.21" via=":30_3_0" dir="l" state="m"/>

    <connection from=":30_0" to="89507" fromLane="0" toLane="0" dir="s" state="M"/>
    <connection from=":30_1" to="89732" fromLane="0" toLane="0" dir="l" state="M"/>
    <connection from=":30_2" to="89503" fromLane="0" toLane="0" dir="r" state="M"/>
    <connection from=":30_3" to="89507" fromLane="0" toLane="0" dir="l" state="M"/>
    <connection from=":30_4" to="89732" fromLane="0" toLane="0" dir="r" state="M"/>
    <connection from=":30_5" to="89503" fromLane="0" toLane="0" dir="s" state="M"/>
    <connection from=":31_0" to="89696" fromLane="0" toLane="0" dir="r" state="M"/>
    <connection from=":31_1" to="89506" fromLane="0" toLane="0" dir="r" state="M"/>
    <connection from=":31_2" to="89696" fromLane="0" toLane="0" dir="s" state="M"/>
    <connection from=":31_3" to="89506" fromLane="0" toLane="0" dir="s" state="M"/>