<routes>
	<vehicle depart="0.1" departLane="0" departPos="22.013123097722083" departSpeed="8.1829174" id="37" type="bicycle">
		<route edges=":43_3 1776"/>
	</vehicle>
	<vehicle depart="0.1" departLane="0" departPos="69.42299742722389" departSpeed="0.0" id="32" type="passenger">
		<route edges="1775 1772"/>
	</vehicle>
	<vehicle depart="0.1" departLane="0" departPos="62.20423033439169" departSpeed="0.0" id="34" type="passenger">
		<route edges="1775 1772"/>
	</vehicle>
	<vehicle depart="0.1" departLane="0" departPos="54.71124749230658" departSpeed="0.0" id="35" type="passenger">
		<route edges="1775 1772"/>
	</vehicle>
	<vehicle depart="0.1" departLane="0" departPos="47.2089510855971" departSpeed="0.0" id="316" type="passenger">
		<route edges="1775 1772"/>
	</vehicle>
	<vehicle depart="0.1" departLane="0" departPos="69.02367364492184" departSpeed="0.0" id="323" type="passenger">
		<route edges="1770 1773"/>
	</vehicle>
	<vehicle depart="0.1" departLane="0" departPos="19.072133587071768" departSpeed="0.0" id="324" type="passenger">
		<route edges=":43_4 2572"/>
	</vehicle>
	<vehicle depart="0.1" departLane="0" departPos="16.827239524566842" departSpeed="10.124645" id="338" type="passenger">
		<route edges=":41_3 2571 1776"/>
	</vehicle>
	<vehicle depart="0.1" departLane="0" departPos="9.388239423890562" departSpeed="7.8897828" id="339" type="passenger">
		<route edges=":41_3 2571 1772"/>
	</vehicle>
	<vehicle depart="0.1" departLane="0" departPos="55.3159037643431" departSpeed="10.758851" id="344" type="passenger">
		<route edges="2707 2710 2713"/>
	</vehicle>
</routes>
