<!-- generated on Tue Feb  9 22:15:18 2021 by Eclipse SUMO netconvert Version 1.8.0
<configuration xmlns:xsi="http://www.w3.org/2001/XMLSchema-instance" xsi:noNamespaceSchemaLocation="http://sumo.dlr.de/xsd/netconvertConfiguration.xsd">

    <input>
        <node-files value="./converted_scenarios/scenario-factory/DEU_Hennigsdorf-7_2_I-1-1/DEU_Hennigsdorf-7_2_I-1-1.nod.xml"/>
        <edge-files value="./converted_scenarios/scenario-factory/DEU_Hennigsdorf-7_2_I-1-1/DEU_Hennigsdorf-7_2_I-1-1.edg.xml"/>
        <connection-files value="./converted_scenarios/scenario-factory/DEU_Hennigsdorf-7_2_I-1-1/DEU_Hennigsdorf-7_2_I-1-1.con.xml"/>
        <tllogic-files value="./converted_scenarios/scenario-factory/DEU_Hennigsdorf-7_2_I-1-1/DEU_Hennigsdorf-7_2_I-1-1.tll.xml"/>
        <type-files value="/home/zen/commonroad-interactive-benchmarks/install/commonroad-map-tool/crmapconverter/sumo_map/templates/DEU.typ.xml"/>
    </input>

    <output>
        <output-file value="./converted_scenarios/scenario-factory/DEU_Hennigsdorf-7_2_I-1-1/DEU_Hennigsdorf-7_2_I-1-1.net.xml"/>
    </output>

    <processing>
        <geometry.remove.keep-edges.explicit value="true"/>
        <geometry.avoid-overlap value="true"/>
        <offset.disable-normalization value="true"/>
    </processing>

    <junctions>
        <no-turnarounds value="true"/>
        <junctions.internal-link-detail value="20"/>
    </junctions>

    <report>
        <aggregate-warnings value="5"/>
    </report>

    <random_number>
        <seed value="1234"/>
    </random_number>

</configuration>
--><net xmlns:xsi="http://www.w3.org/2001/XMLSchema-instance" version="1.6" junctionCornerDetail="5" junctionLinkDetail="20" limitTurnSpeed="5.50" xsi:noNamespaceSchemaLocation="http://sumo.dlr.de/xsd/net_file.xsd">

    <location netOffset="0.00,0.00" convBoundary="-126.21,578.95,38.41,786.47" origBoundary="-126.21,578.95,38.41,786.47" projParameter="!"/>

    <type id="highway.bridleway" priority="1" speed="2.78" allow="pedestrian" oneway="1" width="2.00"/>
    <type id="highway.bus_guideway" priority="1" speed="27.78" allow="bus" oneway="1"/>
    <type id="highway.cycleway" priority="1" speed="8.33" allow="bicycle" oneway="0" width="1.00"/>
    <type id="highway.footway" priority="1" speed="2.78" allow="pedestrian" oneway="1" width="2.00"/>
    <type id="highway.ford" priority="1" speed="2.78" allow="army" oneway="0"/>
    <type id="highway.living_street" priority="2" speed="2.78" disallow="tram rail_urban rail rail_electric rail_fast ship" oneway="0"/>
    <type id="highway.motorway" priority="14" speed="39.44" allow="private emergency authority army vip passenger hov taxi bus coach delivery truck trailer motorcycle evehicle custom1 custom2" oneway="1"/>
    <type id="highway.motorway_link" priority="9" speed="22.22" allow="private emergency authority army vip passenger hov taxi bus coach delivery truck trailer motorcycle evehicle custom1 custom2" oneway="1"/>
    <type id="highway.path" priority="1" speed="2.78" allow="pedestrian bicycle" oneway="0" width="2.00"/>
    <type id="highway.pedestrian" priority="1" speed="2.78" allow="pedestrian" oneway="1" width="2.00"/>
    <type id="highway.primary" priority="12" speed="27.78" disallow="pedestrian tram rail_urban rail rail_electric rail_fast ship" oneway="0"/>
    <type id="highway.primary_link" priority="7" speed="22.22" disallow="pedestrian tram rail_urban rail rail_electric rail_fast ship" oneway="0"/>
    <type id="highway.raceway" priority="15" speed="83.33" allow="vip" oneway="0"/>
    <type id="highway.residential" priority="3" speed="13.89" disallow="pedestrian tram rail_urban rail rail_electric rail_fast ship" oneway="0"/>
    <type id="highway.secondary" priority="11" speed="27.78" disallow="pedestrian tram rail_urban rail rail_electric rail_fast ship" oneway="0"/>
    <type id="highway.secondary_link" priority="6" speed="22.22" disallow="pedestrian tram rail_urban rail rail_electric rail_fast ship" oneway="0"/>
    <type id="highway.service" priority="1" speed="5.56" allow="pedestrian delivery bicycle" oneway="0"/>
    <type id="highway.stairs" priority="1" speed="1.39" allow="pedestrian" oneway="1" width="2.00"/>
    <type id="highway.step" priority="1" speed="1.39" allow="pedestrian" oneway="1" width="2.00"/>
    <type id="highway.steps" priority="1" speed="1.39" allow="pedestrian" oneway="1" width="2.00"/>
    <type id="highway.tertiary" priority="10" speed="22.22" disallow="pedestrian tram rail_urban rail rail_electric rail_fast ship" oneway="0"/>
    <type id="highway.tertiary_link" priority="5" speed="22.22" disallow="pedestrian tram rail_urban rail rail_electric rail_fast ship" oneway="0"/>
    <type id="highway.track" priority="1" speed="5.56" allow="pedestrian motorcycle moped bicycle" oneway="0"/>
    <type id="highway.trunk" priority="13" speed="27.78" disallow="pedestrian bicycle tram rail_urban rail rail_electric rail_fast ship" oneway="0"/>
    <type id="highway.trunk_link" priority="8" speed="22.22" disallow="pedestrian bicycle tram rail_urban rail rail_electric rail_fast ship" oneway="0"/>
    <type id="highway.unclassified" priority="4" speed="13.89" disallow="pedestrian tram rail_urban rail rail_electric rail_fast ship" oneway="0"/>
    <type id="highway.unsurfaced" priority="1" speed="8.33" disallow="tram rail_urban rail rail_electric rail_fast ship" oneway="0"/>
    <type id="railway.highspeed" priority="21" speed="69.44" allow="rail_fast" oneway="1"/>
    <type id="railway.light_rail" priority="19" speed="27.78" allow="rail_urban" oneway="1"/>
    <type id="railway.preserved" priority="16" speed="27.78" allow="rail" oneway="1"/>
    <type id="railway.rail" priority="20" speed="44.44" allow="rail" oneway="1"/>
    <type id="railway.subway" priority="18" speed="27.78" allow="rail_urban" oneway="1"/>
    <type id="railway.tram" priority="17" speed="13.89" allow="tram" oneway="1"/>

    <edge id=":41_0" function="internal">
        <lane id=":41_0_0" index="0" disallow="pedestrian tram rail_urban rail rail_electric rail_fast ship" speed="13.42" length="24.31" width="3.49" shape="-50.22,657.71 -51.16,657.39 -52.15,657.31 -53.15,657.36 -55.12,657.73 -58.00,658.59 -60.80,659.67 -64.47,661.29 -69.85,663.95 -72.77,665.49"/>
    </edge>
    <edge id=":41_1" function="internal">
        <lane id=":41_1_0" index="0" disallow="pedestrian tram rail_urban rail rail_electric rail_fast ship" speed="20.57" length="30.47" width="3.50" shape="-50.22,657.71 -52.23,656.70 -55.38,655.47 -60.78,653.82 -66.17,652.15 -69.29,650.85 -71.26,649.74 -73.04,648.37 -73.84,647.57 -74.56,646.70 -75.18,645.76 -75.71,644.76 -76.14,643.70"/>
    </edge>
    <edge id=":41_2" function="internal">
        <lane id=":41_2_0" index="0" disallow="pedestrian tram rail_urban rail rail_electric rail_fast ship" speed="19.67" length="28.28" width="3.50" shape="-72.84,642.54 -72.49,643.40 -72.07,644.20 -71.56,644.94 -70.98,645.64 -70.35,646.25 -68.80,647.39 -67.08,648.30 -64.21,649.41 -59.06,650.88 -53.77,652.40 -50.58,653.62 -48.32,654.79"/>
    </edge>
    <edge id=":41_3" function="internal">
        <lane id=":41_3_0" index="0" disallow="pedestrian tram rail_urban rail rail_electric rail_fast ship" speed="10.87" length="24.60" width="3.49" shape="-72.84,642.54 -71.26,647.43 -70.29,651.14 -69.60,654.92 -69.38,657.47 -69.47,660.02 -69.69,661.28 -70.07,662.50 -70.65,663.64 -71.47,664.61 -72.77,665.49"/>
    </edge>
    <edge id=":41_4" function="internal">
        <lane id=":41_4_0" index="0" disallow="pedestrian tram rail_urban rail rail_electric rail_fast ship" speed="9.57" length="19.19" width="3.50" shape="-73.92,662.19 -73.74,662.01 -73.33,661.40 -73.05,660.62 -72.88,659.72 -72.81,658.76 -72.87,656.65 -73.15,654.52 -73.84,651.26 -74.73,648.02 -76.14,643.70"/>
    </edge>
    <edge id=":41_5" function="internal">
        <lane id=":41_5_0" index="0" disallow="pedestrian tram rail_urban rail rail_electric rail_fast ship" speed="14.52" length="27.44" width="3.50" shape="-73.92,662.19 -71.28,660.75 -65.42,657.90 -61.37,656.19 -58.22,655.07 -54.93,654.22 -52.59,653.92 -51.29,653.92 -49.94,654.13 -48.32,654.79"/>
    </edge>
    <edge id=":42_0" function="internal">
        <lane id=":42_0_0" index="0" disallow="pedestrian tram rail_urban rail rail_electric rail_fast ship" speed="9.34" length="14.98" width="3.50" shape="-35.37,675.74 -34.23,676.70 -34.81,677.46 -35.34,678.26 -36.33,679.91 -37.73,682.44 -39.50,685.85 -40.81,688.45"/>
    </edge>
    <edge id=":42_1" function="internal">
        <lane id=":42_1_0" index="0" disallow="pedestrian tram rail_urban rail rail_electric rail_fast ship" speed="16.19" length="18.70" width="3.48" shape="-35.37,675.74 -34.98,675.48 -36.04,674.81 -37.02,674.04 -37.92,673.19 -38.74,672.30 -39.49,671.37 -40.83,669.52 -42.66,666.71 -45.04,663.06 -46.27,661.37"/>
    </edge>
    <edge id=":42_2" function="internal">
        <lane id=":42_2_0" index="0" disallow="pedestrian tram rail_urban rail rail_electric rail_fast ship" speed="15.99" length="20.92" width="3.45" shape="-43.60,659.12 -42.31,661.00 -40.40,664.70 -38.99,667.48 -37.90,669.25 -37.27,670.08 -36.56,670.84 -35.77,671.50 -34.88,672.05 -33.92,672.45 -29.89,673.13"/>
    </edge>
    <edge id=":42_3" function="internal">
        <lane id=":42_3_0" index="0" disallow="pedestrian tram rail_urban rail rail_electric rail_fast ship" speed="13.53" length="31.29" width="3.50" shape="-43.60,659.12 -41.43,662.23 -39.74,665.38 -38.84,667.60 -38.17,669.89 -37.72,672.24 -37.51,674.62 -37.54,677.01 -37.81,679.38 -38.29,681.72 -39.36,685.14 -40.81,688.45"/>
    </edge>
    <edge id=":42_4" function="internal">
        <lane id=":42_4_0" index="0" disallow="pedestrian tram rail_urban rail rail_electric rail_fast ship" speed="12.60" length="27.00" width="3.48" shape="-43.86,686.70 -42.66,683.96 -41.71,680.93 -41.29,678.90 -41.06,676.84 -41.03,674.78 -41.21,672.73 -41.59,670.70 -42.18,668.72 -42.95,666.81 -44.44,664.02 -46.27,661.37"/>
    </edge>
    <edge id=":42_5" function="internal">
        <lane id=":42_5_0" index="0" disallow="pedestrian tram rail_urban rail rail_electric rail_fast ship" speed="11.42" length="21.25" width="3.45" shape="-43.85,686.70 -42.42,683.88 -40.26,679.96 -38.46,677.06 -37.06,675.19 -36.17,674.25 -35.00,673.39 -29.89,673.13"/>
    </edge>
    <edge id=":43_0" function="internal">
        <lane id=":43_0_0" index="0" disallow="pedestrian tram rail_urban rail rail_electric rail_fast ship" speed="24.83" length="31.75" width="3.50" shape="-80.57,682.39 -80.93,678.29 -81.60,674.24 -82.56,670.26 -83.81,666.35 -85.31,662.54 -87.53,657.92 -90.08,653.48 -90.60,652.64"/>
    </edge>
    <edge id=":43_1" function="internal">
        <lane id=":43_1_0" index="0" disallow="pedestrian tram rail_urban rail rail_electric rail_fast ship" speed="11.52" length="22.27" width="3.48" shape="-80.57,682.39 -80.63,677.49 -80.36,673.84 -79.98,671.43 -79.36,669.07 -78.46,666.81 -77.86,665.75 -77.16,664.75 -76.35,663.84 -75.42,663.05 -74.11,662.27"/>
    </edge>
    <edge id=":43_2" function="internal">
        <lane id=":43_2_0" index="0" disallow="pedestrian tram rail_urban rail rail_electric rail_fast ship" speed="10.48" length="17.69" width="3.50" shape="-73.04,665.62 -73.41,665.91 -74.05,666.48 -74.61,667.16 -75.11,667.93 -75.52,668.75 -76.21,670.65 -76.66,672.64 -76.95,674.69 -77.14,677.89 -77.07,682.20"/>
    </edge>
    <edge id=":43_3" function="internal">
        <lane id=":43_3_0" index="0" disallow="pedestrian tram rail_urban rail rail_electric rail_fast ship" speed="10.89" length="23.53" width="3.50" shape="-73.04,665.62 -74.18,666.02 -75.77,666.18 -77.26,665.96 -78.59,665.50 -79.78,664.90 -80.85,664.21 -81.85,663.43 -83.62,661.80 -85.95,659.17 -88.06,656.40 -90.60,652.64"/>
    </edge>
    <edge id=":43_4" function="internal">
        <lane id=":43_4_0" index="0" disallow="pedestrian tram rail_urban rail rail_electric rail_fast ship" speed="9.98" length="19.18" width="3.48" shape="-87.74,650.64 -85.48,654.02 -83.73,656.41 -81.84,658.69 -80.46,660.12 -79.73,660.78 -78.96,661.40 -78.14,661.94 -77.26,662.39 -76.31,662.67 -75.33,662.70 -74.11,662.27"/>
    </edge>
    <edge id=":43_5" function="internal">
        <lane id=":43_5_0" index="0" disallow="pedestrian tram rail_urban rail rail_electric rail_fast ship" speed="25.32" length="33.69" width="3.50" shape="-87.74,650.64 -87.09,651.66 -84.42,656.32 -82.09,661.19 -80.49,665.22 -79.18,669.36 -78.16,673.58 -77.45,677.87 -77.07,682.20"/>
    </edge>
    <edge id=":44_0" function="internal">
        <lane id=":44_0_0" index="0" disallow="pedestrian tram rail_urban rail rail_electric rail_fast ship" speed="36.11" length="31.15" width="3.17" shape="-8.40,691.45 -9.28,690.87 -23.11,681.97 -30.10,677.76 -32.68,676.40 -35.18,675.78"/>
    </edge>
    <edge id=":44_1" function="internal">
        <lane id=":44_1_0" index="0" disallow="pedestrian tram rail_urban rail rail_electric rail_fast ship" speed="11.24" length="40.84" width="3.50" shape="-8.40,691.45 -12.03,688.85 -14.33,686.90 -16.45,684.73 -17.44,683.49 -18.33,682.17 -19.09,680.74 -19.69,679.18 -20.05,677.51 -20.13,675.78 -19.90,674.06 -19.39,672.43 -18.66,670.92 -17.76,669.56 -16.74,668.33 -15.63,667.19 -13.30,665.24 -10.81,663.54 -6.97,661.35"/>
    </edge>
    <edge id=":44_2" function="internal">
        <lane id=":44_2_0" index="0" disallow="pedestrian tram rail_urban rail rail_electric rail_fast ship" speed="10.15" length="33.02" width="3.50" shape="-5.36,664.46 -8.67,666.34 -10.77,667.77 -12.71,669.41 -13.60,670.32 -14.41,671.30 -15.11,672.36 -15.67,673.50 -16.05,674.71 -16.22,675.97 -16.16,677.23 -15.88,678.47 -15.43,679.66 -14.83,680.78 -14.12,681.83 -13.32,682.83 -11.55,684.65 -9.61,686.29 -6.51,688.50"/>
    </edge>
    <edge id=":44_3" function="internal">
        <lane id=":44_3_0" index="0" disallow="pedestrian tram rail_urban rail rail_electric rail_fast ship" speed="20.97" length="32.36" width="3.17" shape="-5.36,664.46 -10.03,666.85 -19.48,671.45 -25.30,674.03 -29.36,675.55 -31.64,676.12 -35.18,675.78"/>
    </edge>
    <edge id=":44_4" function="internal">
        <lane id=":44_4_0" index="0" disallow="pedestrian tram rail_urban rail rail_electric rail_fast ship" speed="21.64" length="29.24" width="3.50" shape="-29.69,673.16 -31.67,672.65 -29.73,672.08 -25.99,670.60 -20.48,668.09 -11.44,663.64 -6.97,661.35"/>
    </edge>
    <edge id=":44_5" function="internal">
        <lane id=":44_5_0" index="0" disallow="pedestrian tram rail_urban rail rail_electric rail_fast ship" speed="32.81" length="31.52" width="3.50" shape="-29.69,673.16 -31.67,673.06 -28.85,674.49 -21.59,678.81 -7.39,687.93 -6.51,688.50"/>
    </edge>
    <edge id=":45_0" function="internal">
        <lane id=":45_0_0" index="0" disallow="pedestrian tram rail_urban rail rail_electric rail_fast ship" speed="14.16" length="32.20" width="3.50" shape="-63.08,704.01 -69.09,705.72 -74.01,707.36 -77.88,708.87 -80.72,710.16 -83.46,711.65 -85.20,712.78 -86.84,714.06 -88.29,715.53 -88.92,716.36 -89.45,717.26 -89.85,718.21 -90.09,719.22"/>
    </edge>
    <edge id=":45_1" function="internal">
        <lane id=":45_1_0" index="0" disallow="pedestrian tram rail_urban rail rail_electric rail_fast ship" speed="36.11" length="39.52" width="3.50" shape="-77.06,682.34 -77.12,685.65 -77.61,688.80 -78.46,691.88 -79.60,694.87 -81.42,698.72 -86.37,708.16 -88.10,712.05 -89.15,715.07 -89.91,718.17 -90.09,719.22"/>
    </edge>
    <edge id=":45_2" function="internal">
        <lane id=":45_2_0" index="0" disallow="pedestrian tram rail_urban rail rail_electric rail_fast ship" speed="36.11" length="38.84" width="3.50" shape="-93.56,718.74 -93.36,717.56 -92.56,714.34 -91.46,711.21 -89.69,707.23 -84.74,697.87 -82.96,694.15 -81.87,691.34 -81.07,688.47 -80.61,685.56 -80.56,682.56"/>
    </edge>
    <edge id=":45_3" function="internal">
        <lane id=":45_3_0" index="0" disallow="pedestrian tram rail_urban rail rail_electric rail_fast ship" speed="14.99" length="36.24" width="3.50" shape="-93.56,718.74 -93.25,717.39 -92.77,716.13 -92.15,714.98 -91.40,713.89 -89.76,712.09 -87.93,710.53 -85.99,709.18 -83.00,707.46 -79.91,705.98 -75.73,704.28 -70.42,702.48 -64.00,700.64"/>
    </edge>

    <edge id="1769" from="45" to="33" priority="3" type="highway.residential" spreadType="center" length="70.00" shape="-76.31,701.28 -79.39,786.47">
        <lane id="1769_0" index="0" disallow="pedestrian tram rail_urban rail rail_electric rail_fast ship" speed="36.11" length="70.00" width="3.50" customShape="1" shape="-90.09,719.22 -91.11,726.64 -92.38,740.55 -92.64,746.03 -92.59,750.52 -92.24,754.00 -91.51,757.92 -90.44,761.76 -88.40,767.39 -85.84,773.35 -80.18,785.03 -79.39,786.47"/>
    </edge>
    <edge id="1770" from="40" to="45" priority="3" type="highway.residential" spreadType="center" length="70.00" shape="-83.55,786.09 -79.80,701.14">
        <lane id="1770_0" index="0" disallow="pedestrian tram rail_urban rail rail_electric rail_fast ship" speed="36.11" length="70.00" width="3.50" customShape="1" shape="-83.55,786.09 -89.03,774.79 -91.67,768.64 -93.78,762.80 -94.91,758.75 -95.68,754.61 -96.07,750.93 -96.15,746.23 -95.89,740.55 -94.60,726.31 -93.54,718.65"/>
    </edge>
    <edge id="1772" from="43" to="45" priority="3" type="highway.residential" spreadType="center" length="0.14" shape="-78.77,665.85 -76.31,701.22">
        <lane id="1772_0" index="0" disallow="pedestrian tram rail_urban rail rail_electric rail_fast ship" speed="36.11" length="0.14" width="3.50" customShape="1" shape="-77.07,682.20 -77.06,682.34"/>
    </edge>
    <edge id="1773" from="45" to="43" priority="3" type="highway.residential" spreadType="center" length="0.19" shape="-79.79,701.46 -82.26,666.09">
        <lane id="1773_0" index="0" disallow="pedestrian tram rail_urban rail rail_electric rail_fast ship" speed="36.11" length="0.19" width="3.50" customShape="1" shape="-80.56,682.56 -80.57,682.37"/>
    </edge>
    <edge id="1775" from="37" to="43" priority="3" type="highway.residential" spreadType="center" length="69.88" shape="-123.25,591.72 -79.00,665.10">
        <lane id="1775_0" index="0" disallow="pedestrian tram rail_urban rail rail_electric rail_fast ship" speed="36.11" length="69.88" width="3.50" customShape="1" shape="-123.25,591.72 -114.86,608.39 -112.70,612.93 -108.63,622.69 -105.81,629.15 -103.51,633.63 -101.12,637.48 -98.71,640.70 -97.66,641.78 -96.03,642.96 -93.87,644.26 -91.81,645.69 -90.35,647.08 -89.40,648.25 -87.74,650.64"/>
    </edge>
    <edge id="1776" from="43" to="29" priority="3" type="highway.residential" spreadType="center" length="70.01" shape="-81.99,666.90 -126.21,593.63">
        <lane id="1776_0" index="0" disallow="pedestrian tram rail_urban rail rail_electric rail_fast ship" speed="36.11" length="70.01" width="3.50" customShape="1" shape="-90.60,652.64 -92.27,650.26 -93.08,649.26 -94.44,648.08 -96.47,646.78 -98.65,645.39 -100.38,644.01 -101.55,642.74 -104.07,639.36 -106.54,635.38 -108.91,630.78 -111.77,624.24 -115.84,614.48 -117.97,609.98 -126.21,593.63"/>
    </edge>
    <edge id="2571" from="41" to="43" priority="3" type="highway.residential" spreadType="center" length="0.30" shape="-64.68,655.75 -79.57,667.44">
        <lane id="2571_0" index="0" disallow="pedestrian tram rail_urban rail rail_electric rail_fast ship" speed="36.11" length="0.30" width="3.49" customShape="1" shape="-72.77,665.49 -73.04,665.62"/>
    </edge>
    <edge id="2572" from="43" to="41" priority="3" type="highway.residential" spreadType="center" length="0.21" shape="-81.71,664.71 -66.83,653.01">
        <lane id="2572_0" index="0" disallow="pedestrian tram rail_urban rail rail_electric rail_fast ship" speed="36.11" length="0.21" width="3.48" customShape="1" shape="-74.11,662.27 -73.92,662.19"/>
    </edge>
    <edge id="2616" from="45" to="42" priority="3" type="highway.residential" spreadType="center" length="25.20" shape="-79.13,699.87 -41.25,672.72">
        <lane id="2616_0" index="0" disallow="pedestrian tram rail_urban rail rail_electric rail_fast ship" speed="36.11" length="25.20" width="3.50" customShape="1" shape="-64.00,700.64 -63.04,700.37 -59.77,699.31 -56.61,697.98 -53.58,696.37 -50.73,694.46 -48.46,692.60 -46.36,690.53 -45.16,688.99 -43.84,686.71"/>
    </edge>
    <edge id="2617" from="42" to="45" priority="3" type="highway.residential" spreadType="center" length="27.94" shape="-39.21,675.56 -77.09,702.71">
        <lane id="2617_0" index="0" disallow="pedestrian tram rail_urban rail rail_electric rail_fast ship" speed="36.11" length="27.94" width="3.50" customShape="1" shape="-40.81,688.45 -42.20,690.86 -43.61,692.70 -45.95,695.04 -48.47,697.14 -51.63,699.27 -54.98,701.08 -58.47,702.56 -62.03,703.73 -63.09,704.01"/>
    </edge>
    <edge id="2640" from="39" to="44" priority="3" type="highway.residential" spreadType="center" length="28.97" shape="16.00,706.95 -16.75,677.02">
        <lane id="2640_0" index="0" disallow="pedestrian tram rail_urban rail rail_electric rail_fast ship" speed="36.11" length="28.97" width="3.50" customShape="1" shape="16.00,706.95 11.25,704.01 -8.45,691.42"/>
    </edge>
    <edge id="2641" from="44" to="19" priority="3" type="highway.residential" spreadType="center" length="28.86" shape="-14.39,674.44 17.85,703.98">
        <lane id="2641_0" index="0" disallow="pedestrian tram rail_urban rail rail_electric rail_fast ship" speed="36.11" length="28.86" width="3.50" customShape="1" shape="-6.51,688.50 13.12,701.05 17.85,703.98"/>
    </edge>
    <edge id="2706" from="41" to="12" priority="3" type="highway.residential" spreadType="center" length="70.00" shape="-67.34,655.13 -100.97,580.14">
        <lane id="2706_0" index="0" disallow="pedestrian tram rail_urban rail rail_electric rail_fast ship" speed="36.11" length="70.00" width="3.50" customShape="1" shape="-76.14,643.70 -76.45,642.76 -77.09,640.31 -77.28,638.81 -77.22,636.80 -76.81,634.31 -76.33,631.83 -76.19,629.82 -76.40,628.32 -77.64,623.42 -79.24,618.63 -81.36,613.50 -84.04,608.07 -87.77,601.48 -94.19,591.20 -100.31,581.32 -100.97,580.14"/>
    </edge>
    <edge id="2707" from="36" to="41" priority="3" type="highway.residential" spreadType="center" length="70.05" shape="-97.63,578.95 -64.14,653.70">
        <lane id="2707_0" index="0" disallow="pedestrian tram rail_urban rail rail_electric rail_fast ship" speed="36.11" length="70.05" width="3.50" customShape="1" shape="-97.63,578.95 -97.23,579.65 -91.11,589.52 -84.65,599.87 -80.88,606.56 -78.15,612.11 -75.97,617.37 -74.33,622.29 -73.04,627.30 -72.75,629.02 -72.77,631.37 -73.19,634.04 -73.63,636.46 -73.78,638.21 -73.69,639.40 -73.12,641.68 -72.82,642.59"/>
    </edge>
    <edge id="2709" from="42" to="41" priority="3" type="highway.residential" spreadType="center" length="5.43" shape="-41.22,675.57 -66.82,655.76">
        <lane id="2709_0" index="0" disallow="pedestrian tram rail_urban rail rail_electric rail_fast ship" speed="36.11" length="5.43" width="3.48" customShape="1" shape="-46.27,661.37 -47.52,659.90 -48.97,658.54 -50.23,657.70"/>
    </edge>
    <edge id="2710" from="41" to="42" priority="3" type="highway.residential" spreadType="center" length="6.44" shape="-64.68,653.00 -39.09,672.81">
        <lane id="2710_0" index="0" disallow="pedestrian tram rail_urban rail rail_electric rail_fast ship" speed="36.11" length="6.44" width="3.50" customShape="1" shape="-48.32,654.79 -46.87,655.74 -45.04,657.43 -43.60,659.12"/>
    </edge>
    <edge id="2712" from="44" to="42" priority="3" type="highway.residential" spreadType="center" length="0.19" shape="-15.53,677.36 -40.33,675.72">
        <lane id="2712_0" index="0" disallow="pedestrian tram rail_urban rail rail_electric rail_fast ship" speed="36.11" length="0.19" width="3.17" customShape="1" shape="-35.18,675.78 -35.37,675.74"/>
    </edge>
    <edge id="2713" from="42" to="44" priority="3" type="highway.residential" spreadType="center" length="0.20" shape="-40.12,672.42 -15.29,674.06">
        <lane id="2713_0" index="0" disallow="pedestrian tram rail_urban rail rail_electric rail_fast ship" speed="36.11" length="0.20" width="3.45" customShape="1" shape="-29.89,673.13 -29.69,673.16"/>
    </edge>
    <edge id="2715" from="38" to="44" priority="3" type="highway.residential" spreadType="center" length="48.99" shape="38.41,642.57 -14.61,677.26">
        <lane id="2715_0" index="0" disallow="pedestrian tram rail_urban rail rail_electric rail_fast ship" speed="36.11" length="48.99" width="3.50" customShape="1" shape="38.41,642.57 28.07,647.84 9.09,657.25 -5.41,664.48"/>
    </edge>
    <edge id="2716" from="44" to="20" priority="3" type="highway.residential" spreadType="center" length="48.95" shape="-16.52,674.34 36.81,639.45">
        <lane id="2716_0" index="0" disallow="pedestrian tram rail_urban rail rail_electric rail_fast ship" speed="36.11" length="48.95" width="3.50" customShape="1" shape="-6.97,661.35 7.51,654.12 26.49,644.72 36.81,639.45"/>
    </edge>

    <junction id="12" type="dead_end" x="-100.97" y="580.14" incLanes="2706_0" intLanes="" shape="-102.49,581.00 -99.44,579.29" rightOfWay="edgePriority"/>
    <junction id="19" type="dead_end" x="17.85" y="703.98" incLanes="2641_0" intLanes="" shape="18.77,702.49 16.93,705.47" rightOfWay="edgePriority"/>
    <junction id="20" type="dead_end" x="36.81" y="639.45" incLanes="2716_0" intLanes="" shape="36.02,637.90 37.61,641.01" rightOfWay="edgePriority"/>
    <junction id="29" type="dead_end" x="-126.21" y="593.63" incLanes="1776_0" intLanes="" shape="-127.77,594.42 -124.65,592.84" rightOfWay="edgePriority"/>
    <junction id="33" type="dead_end" x="-79.39" y="786.47" incLanes="1769_0" intLanes="" shape="-77.86,785.63 -80.92,787.31" rightOfWay="edgePriority"/>
    <junction id="36" type="dead_end" x="-97.63" y="578.95" incLanes="" intLanes="" shape="-99.15,579.80 -96.10,578.09" rightOfWay="edgePriority"/>
    <junction id="37" type="dead_end" x="-123.25" y="591.72" incLanes="" intLanes="" shape="-124.82,592.50 -121.69,590.93" rightOfWay="edgePriority"/>
    <junction id="38" type="dead_end" x="38.41" y="642.57" incLanes="" intLanes="" shape="37.61,641.01 39.20,644.13" rightOfWay="edgePriority"/>
    <junction id="39" type="dead_end" x="16.00" y="706.95" incLanes="" intLanes="" shape="16.92,705.46 15.08,708.44" rightOfWay="edgePriority"/>
    <junction id="40" type="dead_end" x="-83.55" y="786.09" incLanes="" intLanes="" shape="-81.97,785.33 -85.12,786.86" rightOfWay="edgePriority"/>
    <junction id="41" type="priority" x="-65.76" y="654.38" incLanes="2709_0 2707_0 2572_0" intLanes=":41_0_0 :41_1_0 :41_2_0 :41_3_0 :41_4_0 :41_5_0" shape="-51.18,659.16 -47.36,653.33 -52.66,650.86 -57.50,649.97 -61.83,649.66 -65.59,648.91 -68.71,646.71 -71.16,642.04 -77.80,644.25 -75.50,660.98 -72.23,667.16">
        <request index="0" response="000000" foes="001000" cont="0"/>
        <request index="1" response="000000" foes="111000" cont="0"/>
        <request index="2" response="000000" foes="100000" cont="0"/>
        <request index="3" response="000011" foes="100011" cont="0"/>
        <request index="4" response="000010" foes="000010" cont="0"/>
        <request index="5" response="001110" foes="001110" cont="0"/>
    </junction>
    <junction id="42" type="priority" x="-40.23" y="674.14" incLanes="2712_0 2710_0 2616_0" intLanes=":42_0_0 :42_1_0 :42_2_0 :42_3_0 :42_4_0 :42_5_0" shape="-26.56,677.96 -27.10,671.46 -42.27,657.99 -47.60,662.50 -44.94,666.21 -43.20,670.00 -42.36,673.85 -42.45,677.78 -43.44,681.77 -45.35,685.84 -39.30,689.32">
        <request index="0" response="000000" foes="001000" cont="0"/>
        <request index="1" response="000000" foes="111000" cont="0"/>
        <request index="2" response="000000" foes="100000" cont="0"/>
        <request index="3" response="000011" foes="100011" cont="0"/>
        <request index="4" response="000010" foes="000010" cont="0"/>
        <request index="5" response="001110" foes="001110" cont="0"/>
    </junction>
    <junction id="43" type="priority" x="-80.51" y="665.97" incLanes="1773_0 2571_0 1775_0" intLanes=":43_0_0 :43_1_0 :43_2_0 :43_3_0 :43_4_0 :43_5_0" shape="-82.31,682.49 -75.33,682.10 -71.27,666.68 -74.05,660.34 -86.30,649.63 -92.04,653.64 -88.35,659.06 -85.85,663.29 -84.26,667.05 -83.32,671.03 -82.76,675.95">
        <request index="0" response="000000" foes="001000" cont="0"/>
        <request index="1" response="110000" foes="111000" cont="0"/>
        <request index="2" response="100000" foes="100000" cont="0"/>
        <request index="3" response="100011" foes="100011" cont="0"/>
        <request index="4" response="000000" foes="000010" cont="0"/>
        <request index="5" response="000000" foes="001110" cont="0"/>
    </junction>
    <junction id="44" type="priority" x="-15.52" y="675.77" incLanes="2640_0 2715_0 2713_0" intLanes=":44_0_0 :44_1_0 :44_2_0 :44_3_0 :44_4_0 :44_5_0" shape="-9.34,692.93 -5.57,687.03 -9.64,683.66 -12.01,679.96 -12.70,676.14 -11.69,672.41 -9.00,668.98 -4.62,666.05 -7.75,659.79 -34.70,671.14 -35.07,674.63 -37.84,673.73 -38.43,673.65 -38.46,673.67 -37.95,673.77 -36.83,673.72 -37.01,677.04">
        <request index="0" response="001000" foes="001000" cont="0"/>
        <request index="1" response="111000" foes="111000" cont="0"/>
        <request index="2" response="000000" foes="100000" cont="0"/>
        <request index="3" response="000000" foes="100011" cont="0"/>
        <request index="4" response="000000" foes="000010" cont="0"/>
        <request index="5" response="001100" foes="001110" cont="0"/>
    </junction>
    <junction id="45" type="priority" x="-78.06" y="701.25" incLanes="2617_0 1772_0 1770_0" intLanes=":45_0_0 :45_1_0 :45_2_0 :45_3_0" shape="-62.63,705.70 -64.46,698.95 -67.48,699.22 -70.01,698.27 -72.06,696.10 -73.63,692.70 -74.71,688.08 -75.32,682.23 -82.30,682.67 -82.67,690.62 -84.56,696.22 -87.37,700.64 -90.50,705.05 -93.34,710.61 -95.29,718.50 -88.36,719.46 -87.38,717.13 -85.07,714.82 -81.44,712.52 -76.49,710.24 -70.22,707.96">