<routes>
	<vehicle depart="0.1" departLane="0" departPos="0" departSpeed="14.3408" id="219" type="passenger">
		<route edges="3713"/>
	</vehicle>
	<vehicle depart="0.1" departLane="0" departPos="0" departSpeed="12.4358" id="224" type="passenger">
		<route edges="3468 3713"/>
	</vehicle>
	<vehicle depart="0.1" departLane="0" departPos="0" departSpeed="15.6362" id="227" type="passenger">
		<route edges="3713"/>
	</vehicle>
	<vehicle depart="0.1" departLane="0" departPos="16.836264526376162" departSpeed="11.0642" id="230" type="passenger">
		<route edges="3456 3462 3468 3718 3500"/>
	</vehicle>
	<vehicle depart="0.1" departLane="1" departPos="0" departSpeed="13.6916" id="234" type="passenger">
		<route edges="3468 3713"/>
	</vehicle>
	<vehicle depart="0.1" departLane="2" departPos="16.2956435225021" departSpeed="14.603" id="236" type="passenger">
		<route edges="3713"/>
	</vehicle>
	<vehicle depart="0.1" departLane="0" departPos="7.047357755009346" departSpeed="7.873" id="237" type="passenger">
		<route edges="3616 3456 3462 3468 3713"/>
	</vehicle>
	<vehicle depart="0.1" departLane="0" departPos="0" departSpeed="10.2199" id="238" type="passenger">
		<route edges="3652 3616 3456 3462 3468 3713"/>
	</vehicle>
	<vehicle depart="0.1" departLane="0" departPos="3.9818460492491803" departSpeed="8.4887" id="275" type="passenger">
		<route edges="3604 3517"/>
	</vehicle>
	<vehicle depart="0.1" departLane="0" departPos="13.59022765445819" departSpeed="12.4785" id="276" type="passenger">
		<route edges="3610 3646 3626 3600 3542"/>
	</vehicle>
	<vehicle depart="0.1" departLane="2" departPos="0" departSpeed="11.4239" id="282" type="passenger">
		<route edges="3468 3713"/>
	</vehicle>
	<vehicle depart="0.1" departLane="5" departPos="23.298060207521154" departSpeed="0.0" id="283" type="passenger">
		<route edges="3450 3664 3525"/>
	</vehicle>
	<vehicle depart="0.1" departLane="1" departPos="0" departSpeed="10.4455" id="284" type="passenger">
		<route edges="3450 3610 3646 3626 3542"/>
	</vehicle>
	<vehicle depart="0.1" departLane="1" departPos="5.2612703740562505" departSpeed="8.6959" id="289" type="passenger">
		<route edges="3438 3450 3610 3646 3626 3600 3626 3542"/>
	</vehicle>
	<vehicle depart="0.1" departLane="4" departPos="24.090040124122577" departSpeed="0.03048" id="292" type="passenger">
		<route edges="3450 3664 3525"/>
	</vehicle>
	<vehicle depart="0.1" departLane="4" departPos="16.994366897480557" departSpeed="0.0" id="296" type="passenger">
		<route edges="3450 3664 3525"/>
	</vehicle>
	<vehicle depart="0.1" departLane="0" departPos="0" departSpeed="11.8445" id="2106" type="passenger">
		<route edges="3632 3652 3616 3456 3462 3468 3713"/>
	</vehicle>
	<vehicle depart="0.1" departLane="4" departPos="0" departSpeed="0.0" id="2120" type="passenger">
		<route edges="3450 3664 3525"/>
	</vehicle>
	<vehicle depart="0.1" departLane="5" departPos="0" departSpeed="7.4646" id="2122" type="passenger">
		<route edges="3438 3450 3664 3525"/>
	</vehicle>
	<vehicle depart="0.1" departLane="1" departPos="0" departSpeed="11.8232" id="2125" type="passenger">
		<route edges="3456 3462 3468 3713"/>
	</vehicle>
	<vehicle depart="0.1" departLane="0" departPos="0" departSpeed="11.1831" id="2126" type="passenger">
		<route edges="3426 3438 3450 3610 3646 3626 3600 3542"/>
	</vehicle>
	<vehicle depart="0.1" departLane="1" departPos="44.43525510919225" departSpeed="15.4473" id="2127" type="passenger">
		<route edges="3542"/>
	</vehicle>
	<vehicle depart="0.1" departLane="0" departPos="19.588397117881804" departSpeed="8.2083" id="2130" type="passenger">
		<route edges="3705 3426 3438 3450 3610 3646 3626 3542"/>
	</vehicle>
	<vehicle depart="0.1" departLane="1" departPos="0" departSpeed="12.384" id="2131" type="passenger">
		<route edges="3542"/>
	</vehicle>
	<vehicle depart="0.1" departLane="3" departPos="0" departSpeed="11.2288" id="2133" type="passenger">
		<route edges="3438 3450 3610 3646 3626 3542"/>
	</vehicle>
	<vehicle depart="0.1" departLane="2" departPos="11.977407772037246" departSpeed="11.4971" id="2134" type="passenger">
		<route edges="3426 3438 3450 3610 3646 3626 3542"/>
	</vehicle>
	<vehicle depart="0.1" departLane="3" departPos="0" departSpeed="6.1112" id="2136" type="passenger">
		<route edges="3426 3438 3450 3664 3525"/>
	</vehicle>
	<vehicle depart="0.1" departLane="2" departPos="19.902812918064953" departSpeed="13.9629" id="2138" type="passenger">
		<route edges="3450 3610 3646 3626 3542"/>
	</vehicle>
	<vehicle depart="0.1" departLane="4" departPos="0" departSpeed="9.778" id="2145" type="passenger">
		<route edges="3426 3438 3450 3664 3525"/>
	</vehicle>
	<vehicle depart="0.1" departLane="2" departPos="0" departSpeed="9.8542" id="2146" type="passenger">
		<route edges="3456 3462 3468 3713"/>
	</vehicle>
	<vehicle depart="0.1" departLane="3" departPos="16.03897921262064" departSpeed="5.7516" id="2149" type="passenger">
		<route edges="3705 3426 3438 3450 3664 3525"/>
	</vehicle>
	<vehicle depart="0.1" departLane="2" departPos="0" departSpeed="10.0614" id="2150" type="passenger">
		<route edges="3616 3672 3616 3456 3462 3468 3713"/>
	</vehicle>
	<vehicle depart="0.1" departLane="0" departPos="0" departSpeed="0.0" id="2159" type="passenger">
		<route edges="3602 3456 3462 3468 3713"/>
	</vehicle>
	<vehicle depart="0.1" departLane="1" departPos="0" departSpeed="13.0973" id="2161" type="passenger">
		<route edges="3705 3426 3438 3450 3610 3646 3626 3542"/>
	</vehicle>
	<vehicle depart="0.1" departLane="1" departPos="0" departSpeed="0.0" id="2162" type="passenger">
		<route edges="3620 3662 3640 3517"/>
	</vehicle>
	<vehicle depart="0.1" departLane="1" departPos="26.15668913976711" departSpeed="8.3515" id="2164" type="passenger">
		<route edges="3568 3568 3680 3680 3525"/>
	</vehicle>
	<vehicle depart="0.1" departLane="1" departPos="0" departSpeed="7.7328" id="2166" type="passenger">
		<route edges="3568 3632 3652 3616 3456 3462 3468 3713"/>
	</vehicle>
	<vehicle depart="0.1" departLane="2" departPos="0" departSpeed="13.5026" id="2168" type="passenger">
		<route edges="3568 3632 3652 3616 3456 3462 3468 3713"/>
	</vehicle>
	<vehicle depart="0.1" departLane="2" departPos="10.824934506586178" departSpeed="10.668" id="2169" type="passenger">
		<route edges="3559 3568 3632 3652 3616 3456 3462 3468 3713"/>
	</vehicle>
	<vehicle depart="0.1" departLane="1" departPos="0" departSpeed="10.729" id="2177" type="passenger">
		<route edges="3555 3559 3559 3568 3680 3525"/>
	</vehicle>
</routes>
