<?xml version="1.0" encoding="UTF-8"?>

<!-- generated on Fri Dec 18 16:01:26 2020 by Eclipse SUMO netconvert Version 1.8.0
<configuration xmlns:xsi="http://www.w3.org/2001/XMLSchema-instance" xsi:noNamespaceSchemaLocation="http://sumo.dlr.de/xsd/netconvertConfiguration.xsd">

    <input>
        <node-files value="./converted_scenarios/NGSIM/Lankershim/USA_Lanker-2_19_I-1-1/nodes.net.xml"/>
        <edge-files value="./converted_scenarios/NGSIM/Lankershim/USA_Lanker-2_19_I-1-1/edges.net.xml"/>
        <connection-files value="./converted_scenarios/NGSIM/Lankershim/USA_Lanker-2_19_I-1-1/_connections.net.xml"/>
        <tllogic-files value="./converted_scenarios/NGSIM/Lankershim/USA_Lanker-2_19_I-1-1/_tll.net.xml"/>
    </input>

    <output>
        <output-file value="./converted_scenarios/NGSIM/Lankershim/USA_Lanker-2_19_I-1-1/USA_Lanker-2_19_I-1-1.net.xml"/>
    </output>

    <processing>
        <plain.extend-edge-shape value="true"/>
        <geometry.remove.keep-edges.explicit value="true"/>
        <geometry.avoid-overlap value="true"/>
        <offset.disable-normalization value="true"/>
    </processing>

    <junctions>
        <no-turnarounds value="true"/>
        <junctions.internal-link-detail value="20"/>
    </junctions>

    <report>
        <aggregate-warnings value="5"/>
    </report>

    <random_number>
        <seed value="1234"/>
    </random_number>

</configuration>
-->

<net version="1.6" junctionCornerDetail="5" junctionLinkDetail="20" limitTurnSpeed="5.50" xmlns:xsi="http://www.w3.org/2001/XMLSchema-instance" xsi:noNamespaceSchemaLocation="http://sumo.dlr.de/xsd/net_file.xsd">

    <location netOffset="0.00,0.00" convBoundary="-61.48,-140.56,57.16,45.99" origBoundary="-64.30,-142.75,57.16,48.61" projParameter="!"/>

    <edge id=":11_0" function="internal">
        <lane id=":11_0_0" index="0" disallow="rail_fast" speed="36.11" length="0.26" width="3.31" shape="-29.07,-52.61 -29.30,-52.50"/>
        <lane id=":11_0_1" index="1" disallow="rail_fast" speed="36.11" length="0.26" width="3.11" shape="-27.60,-49.75 -27.83,-49.63"/>
    </edge>
    <edge id=":12_0" function="internal">
        <lane id=":12_0_0" index="0" disallow="rail_fast" speed="36.11" length="3.06" width="3.50" shape="-9.93,-62.57 -7.19,-63.96"/>
        <lane id=":12_0_1" index="1" disallow="rail_fast" speed="36.11" length="3.06" width="3.31" shape="-8.41,-59.53 -5.69,-60.90"/>
    </edge>
    <edge id=":13_0" function="internal">
        <lane id=":13_0_0" index="0" disallow="bus truck rail_fast" speed="11.02" length="10.30" width="3.87" shape="-4.53,-72.93 -3.86,-72.77 -3.26,-72.62 -2.71,-72.50 -2.20,-72.40 -1.73,-72.32 -1.29,-72.27 -0.87,-72.24 -0.48,-72.23 -0.09,-72.25 0.28,-72.29 0.66,-72.36 1.04,-72.45 1.44,-72.58 1.86,-72.73 2.30,-72.91 2.78,-73.12 3.29,-73.35 3.85,-73.62 4.47,-73.92"/>
        <lane id=":13_0_1" index="1" disallow="bus truck rail_fast" speed="12.20" length="10.30" width="3.51" shape="-4.64,-69.37 -3.85,-69.19 -3.12,-69.03 -2.46,-68.89 -1.85,-68.78 -1.29,-68.69 -0.76,-68.63 -0.27,-68.59 0.20,-68.58 0.66,-68.61 1.11,-68.66 1.56,-68.74 2.02,-68.85 2.49,-69.00 2.99,-69.18 3.52,-69.39 4.09,-69.64 4.70,-69.92 5.37,-70.24 6.10,-70.60"/>
    </edge>
    <edge id=":13_2" function="internal">
        <lane id=":13_2_0" index="0" disallow="bus truck rail_fast" speed="36.11" length="11.23" width="3.51" shape="-3.86,-65.35 6.10,-70.60"/>
        <lane id=":13_2_1" index="1" disallow="bus truck rail_fast" speed="36.11" length="11.23" width="3.38" shape="-2.12,-62.04 -1.43,-62.52 -0.82,-62.95 -0.25,-63.34 0.26,-63.68 0.73,-63.99 1.18,-64.26 1.59,-64.51 1.99,-64.74 2.39,-64.96 2.78,-65.16 3.18,-65.37 3.60,-65.57 4.04,-65.78 4.51,-66.01 5.02,-66.25 5.58,-66.51 6.20,-66.81 6.88,-67.13 7.63,-67.50"/>
    </edge>
    <edge id=":13_4" function="internal">
        <lane id=":13_4_0" index="0" disallow="rail_fast" speed="36.11" length="13.86" width="3.51" shape="-6.31,-64.41 6.10,-70.60"/>
        <lane id=":13_4_1" index="1" disallow="rail_fast" speed="36.11" length="13.86" width="3.38" shape="-4.78,-61.35 7.63,-67.50"/>
    </edge>
    <edge id=":15_0" function="internal">
        <lane id=":15_0_0" index="0" disallow="rail_fast" speed="36.11" length="19.07" width="2.82" shape="-28.76,-51.74 -37.21,-68.84"/>
        <lane id=":15_0_1" index="1" disallow="rail_fast" speed="36.11" length="19.07" width="2.97" shape="-25.98,-53.17 -34.38,-70.29"/>
        <lane id=":15_0_2" index="2" disallow="rail_fast" speed="36.11" length="19.07" width="2.96" shape="-23.29,-54.55 -31.69,-71.67"/>
    </edge>
    <edge id=":15_3" function="internal">
        <lane id=":15_3_0" index="0" disallow="bus truck rail_fast" speed="13.68" length="23.17" width="2.96" shape="-16.87,-54.79 -17.62,-54.95 -18.38,-55.20 -19.14,-55.52 -19.91,-55.92 -20.67,-56.41 -21.44,-56.97 -22.21,-57.62 -22.99,-58.35 -23.77,-59.15 -24.55,-60.04 -25.33,-61.01 -26.11,-62.06 -26.90,-63.19 -27.69,-64.40 -28.49,-65.69 -29.28,-67.07 -30.08,-68.52 -30.88,-70.05 -31.69,-71.67"/>
    </edge>
    <edge id=":15_4" function="internal">
        <lane id=":15_4_0" index="0" disallow="bus truck rail_fast" speed="36.11" length="4.30" width="2.82" shape="-35.32,-64.97 -37.21,-68.84"/>
    </edge>
    <edge id=":18_0" function="internal">
        <lane id=":18_0_0" index="0" disallow="rail_fast" speed="14.45" length="8.28" width="3.25" shape="18.90,-61.58 18.35,-61.31 17.86,-61.07 17.42,-60.84 17.02,-60.63 16.66,-60.43 16.33,-60.24 16.03,-60.04 15.75,-59.85 15.49,-59.65 15.24,-59.44 15.00,-59.21 14.76,-58.97 14.52,-58.70 14.27,-58.41 14.01,-58.08 13.74,-57.72 13.44,-57.33 13.11,-56.89 12.75,-56.40"/>
        <lane id=":18_0_1" index="1" disallow="rail_fast" speed="36.11" length="8.28" width="3.60" shape="18.90,-61.58 11.66,-58.01"/>
        <lane id=":18_0_2" index="2" disallow="rail_fast" speed="36.11" length="8.28" width="3.67" shape="17.31,-64.85 9.60,-61.05"/>
    </edge>
    <edge id=":19_0" function="internal">
        <lane id=":19_0_0" index="0" disallow="rail_fast" speed="9.74" length="3.41" width="3.19" shape="11.42,-54.58 11.25,-54.37 11.10,-54.17 10.96,-54.01 10.82,-53.86 10.69,-53.74 10.56,-53.63 10.43,-53.53 10.31,-53.45 10.18,-53.37 10.04,-53.30 9.90,-53.24 9.76,-53.18 9.60,-53.11 9.44,-53.05 9.26,-52.98 9.07,-52.90 8.86,-52.81 8.63,-52.71 8.38,-52.59"/>
        <lane id=":19_0_1" index="1" disallow="rail_fast" speed="36.11" length="3.41" width="3.52" shape="9.94,-57.16 6.91,-55.65"/>
        <lane id=":19_0_2" index="2" disallow="rail_fast" speed="36.11" length="3.41" width="3.68" shape="8.13,-60.32 5.33,-58.92"/>
    </edge>
    <edge id=":2_0" function="internal">
        <lane id=":2_0_0" index="0" disallow="bus truck rail_fast" speed="8.75" length="5.40" width="3.35" shape="47.98,25.17 47.58,25.18 47.23,25.20 46.90,25.21 46.60,25.23 46.33,25.26 46.07,25.30 45.84,25.34 45.62,25.39 45.40,25.46 45.20,25.53 45.00,25.62 44.80,25.73 44.60,25.86 44.39,26.00 44.17,26.16 43.93,26.35 43.68,26.55 43.41,26.79 43.11,27.04"/>
    </edge>
    <edge id=":20_0" function="internal">
        <lane id=":20_0_0" index="0" disallow="bus truck rail_fast" speed="14.27" length="3.68" width="2.93" shape="5.76,-51.33 5.51,-51.21 5.29,-51.10 5.08,-51.01 4.90,-50.92 4.73,-50.85 4.57,-50.77 4.43,-50.70 4.29,-50.63 4.16,-50.56 4.03,-50.48 3.91,-50.40 3.79,-50.31 3.66,-50.22 3.53,-50.11 3.39,-49.98 3.24,-49.85 3.09,-49.69 2.91,-49.51 2.72,-49.32"/>
    </edge>
    <edge id=":20_1" function="internal">
        <lane id=":20_1_0" index="0" disallow="rail_fast" speed="36.11" length="4.87" width="3.46" shape="4.31,-54.36 -0.04,-52.21"/>
        <lane id=":20_1_1" index="1" disallow="rail_fast" speed="36.11" length="4.87" width="3.70" shape="2.75,-57.63 -1.62,-55.44"/>
    </edge>
    <edge id=":20_3" function="internal">
        <lane id=":20_3_0" index="0" disallow="bus truck rail_fast" speed="36.11" length="4.93" width="3.01" shape="2.75,-57.63 2.42,-57.46 2.12,-57.32 1.85,-57.19 1.60,-57.07 1.38,-56.97 1.16,-56.88 0.97,-56.80 0.78,-56.73 0.59,-56.66 0.41,-56.60 0.22,-56.54 0.02,-56.48 -0.18,-56.42 -0.41,-56.36 -0.65,-56.30 -0.91,-56.23 -1.20,-56.15 -1.52,-56.07 -1.88,-55.97"/>
    </edge>
    <edge id=":21_0" function="internal">
        <lane id=":21_0_0" index="0" disallow="rail_fast" speed="36.11" length="3.05" width="3.21" shape="-1.22,-51.63 -3.95,-50.28"/>
        <lane id=":21_0_1" index="1" disallow="rail_fast" speed="36.11" length="3.05" width="3.68" shape="-2.80,-54.85 -5.52,-53.48"/>
    </edge>
    <edge id=":22_0" function="internal">
        <lane id=":22_0_0" index="0" disallow="rail_fast" speed="36.11" length="10.83" width="3.17" shape="-15.47,-44.58 -25.18,-39.77"/>
        <lane id=":22_0_1" index="1" disallow="rail_fast" speed="36.11" length="10.83" width="3.68" shape="-17.04,-47.71 -26.72,-42.85"/>
    </edge>
    <edge id=":22_2" function="internal">
        <lane id=":22_2_0" index="0" disallow="bus truck rail_fast" speed="9.83" length="11.33" width="3.68" shape="-20.09,-51.48 -20.21,-50.87 -20.36,-50.28 -20.53,-49.71 -20.73,-49.15 -20.95,-48.61 -21.20,-48.09 -21.47,-47.58 -21.77,-47.09 -22.10,-46.62 -22.44,-46.17 -22.82,-45.73 -23.22,-45.31 -23.64,-44.91 -24.09,-44.52 -24.57,-44.15 -25.07,-43.80 -25.59,-43.47 -26.14,-43.15 -26.72,-42.85"/>
    </edge>
    <edge id=":23_0" function="internal">
        <lane id=":23_0_0" index="0" disallow="bus truck rail_fast" speed="36.11" length="4.83" width="5.13" shape="-39.34,-28.62 -34.66,-29.84"/>
    </edge>
    <edge id=":23_1" function="internal">
        <lane id=":23_1_0" index="0" disallow="rail_fast" speed="36.11" length="4.52" width="3.11" shape="-32.42,-36.22 -36.46,-34.15"/>
        <lane id=":23_1_1" index="1" disallow="rail_fast" speed="36.11" length="4.52" width="3.66" shape="-33.75,-39.37 -37.76,-37.29"/>
    </edge>
    <edge id=":25_0" function="internal">
        <lane id=":25_0_0" index="0" disallow="bus truck rail_fast" speed="36.11" length="2.87" width="5.36" shape="45.93,20.10 48.80,20.07"/>
    </edge>
    <edge id=":28_0" function="internal">
        <lane id=":28_0_0" index="0" disallow="rail_fast" speed="36.11" length="7.96" width="3.51" shape="-43.55,-137.98 -39.94,-130.64"/>
        <lane id=":28_0_1" index="1" disallow="rail_fast" speed="36.11" length="7.96" width="2.89" shape="-46.45,-136.39 -42.86,-129.20"/>
        <lane id=":28_0_2" index="2" disallow="rail_fast" speed="36.11" length="7.96" width="3.01" shape="-49.12,-134.93 -45.58,-127.85"/>
        <lane id=":28_0_3" index="3" disallow="rail_fast" speed="36.11" length="7.96" width="2.82" shape="-51.82,-133.46 -48.29,-126.52"/>
        <lane id=":28_0_4" index="4" disallow="bus rail_fast" speed="36.11" length="7.96" width="2.91" shape="-51.82,-133.46 -51.55,-132.94 -51.31,-132.46 -51.10,-132.04 -50.91,-131.65 -50.74,-131.29 -50.59,-130.95 -50.45,-130.64 -50.33,-130.33 -50.23,-130.04 -50.13,-129.74 -50.03,-129.44 -49.94,-129.13 -49.85,-128.79 -49.76,-128.44 -49.67,-128.05 -49.57,-127.63 -49.46,-127.16 -49.34,-126.64 -49.20,-126.07"/>
    </edge>
    <edge id=":29_0" function="internal">
        <lane id=":29_0_0" index="0" disallow="rail_fast" speed="36.11" length="3.88" width="3.35" shape="-35.16,-120.94 -33.46,-117.52"/>
        <lane id=":29_0_1" index="1" disallow="rail_fast" speed="36.11" length="3.88" width="2.89" shape="-38.01,-119.46 -36.29,-116.02"/>
        <lane id=":29_0_2" index="2" disallow="rail_fast" speed="36.11" length="3.88" width="3.08" shape="-40.70,-118.06 -38.97,-114.60"/>
        <lane id=":29_0_3" index="3" disallow="rail_fast" speed="36.11" length="3.88" width="2.82" shape="-43.36,-116.68 -41.62,-113.19"/>
        <lane id=":29_0_4" index="4" disallow="bus rail_fast" speed="36.11" length="3.88" width="3.05" shape="-45.76,-115.44 -45.66,-115.16 -45.57,-114.91 -45.49,-114.68 -45.42,-114.48 -45.35,-114.29 -45.29,-114.12 -45.23,-113.96 -45.17,-113.80 -45.11,-113.66 -45.06,-113.51 -45.00,-113.37 -44.93,-113.22 -44.87,-113.06 -44.79,-112.89 -44.71,-112.71 -44.61,-112.51 -44.51,-112.30 -44.39,-112.06 -44.26,-111.79"/>
    </edge>
    <edge id=":30_0" function="internal">
        <lane id=":30_0_0" index="0" disallow="bus truck rail_fast" speed="10.23" length="10.24" width="3.11" shape="-13.73,-78.59 -13.50,-78.19 -13.24,-77.80 -12.96,-77.42 -12.66,-77.06 -12.33,-76.71 -11.98,-76.37 -11.61,-76.04 -11.22,-75.73 -10.80,-75.43 -10.37,-75.14 -9.91,-74.87 -9.42,-74.61 -8.92,-74.36 -8.39,-74.13 -7.84,-73.91 -7.26,-73.70 -6.67,-73.50 -6.05,-73.32 -5.41,-73.15"/>
    </edge>
    <edge id=":30_1" function="internal">
        <lane id=":30_1_0" index="0" disallow="bus truck rail_fast" speed="11.58" length="11.05" width="3.13" shape="-16.79,-76.98 -16.43,-76.27 -16.08,-75.63 -15.75,-75.06 -15.43,-74.56 -15.12,-74.11 -14.80,-73.70 -14.48,-73.35 -14.15,-73.03 -13.80,-72.74 -13.44,-72.48 -13.05,-72.24 -12.63,-72.01 -12.18,-71.79 -11.70,-71.58 -11.17,-71.36 -10.59,-71.13 -9.96,-70.88 -9.28,-70.61 -8.53,-70.31"/>
    </edge>
    <edge id=":30_2" function="internal">
        <lane id=":30_2_0" index="0" disallow="rail_fast" speed="36.11" length="10.45" width="3.12" shape="-16.79,-76.98 -12.22,-67.43"/>
        <lane id=":30_2_1" index="1" disallow="rail_fast" speed="36.11" length="10.45" width="3.06" shape="-19.52,-75.55 -15.02,-66.11"/>
        <lane id=":30_2_2" index="2" disallow="rail_fast" speed="36.11" length="10.45" width="2.98" shape="-22.22,-74.13 -17.76,-64.82"/>
    </edge>
    <edge id=":30_5" function="internal">
        <lane id=":30_5_0" index="0" disallow="bus truck rail_fast" speed="36.11" length="10.20" width="2.87" shape="-24.90,-72.72 -24.56,-72.03 -24.26,-71.41 -23.98,-70.85 -23.73,-70.34 -23.49,-69.88 -23.28,-69.45 -23.09,-69.05 -22.90,-68.66 -22.73,-68.29 -22.56,-67.92 -22.40,-67.54 -22.23,-67.15 -22.07,-66.74 -21.89,-66.30 -21.71,-65.82 -21.52,-65.30 -21.31,-64.72 -21.09,-64.08 -20.84,-63.37"/>
    </edge>
    <edge id=":31_0" function="internal">
        <lane id=":31_0_0" index="0" disallow="rail_fast" speed="36.11" length="3.22" width="3.12" shape="-11.34,-65.57 -9.96,-62.67"/>
        <lane id=":31_0_1" index="1" disallow="rail_fast" speed="36.11" length="3.22" width="3.06" shape="-14.10,-64.17 -12.71,-61.26"/>
        <lane id=":31_0_2" index="2" disallow="rail_fast" speed="36.11" length="3.22" width="2.95" shape="-16.79,-62.80 -15.40,-59.89"/>
    </edge>
    <edge id=":32_0" function="internal">
        <lane id=":32_0_0" index="0" disallow="rail_fast" speed="36.11" length="2.64" width="3.14" shape="-3.91,-50.08 -2.76,-47.69"/>
        <lane id=":32_0_1" index="1" disallow="rail_fast" speed="36.11" length="2.64" width="3.10" shape="-6.71,-48.72 -5.57,-46.33"/>
        <lane id=":32_0_2" index="2" disallow="rail_fast" speed="36.11" length="2.64" width="2.93" shape="-9.44,-47.40 -8.30,-45.02"/>
    </edge>
    <edge id=":34_0" function="internal">
        <lane id=":34_0_0" index="0" disallow="rail_fast" speed="36.11" length="3.05" width="2.78" shape="8.78,23.61 7.42,20.88"/>
        <lane id=":34_0_1" index="1" disallow="rail_fast" speed="36.11" length="3.05" width="3.00" shape="11.37,22.35 10.02,19.61"/>
        <lane id=":34_0_2" index="2" disallow="bus rail_fast" speed="36.11" length="3.05" width="3.02" shape="14.10,21.03 12.75,18.29"/>
        <lane id=":34_0_3" index="3" disallow="bus rail_fast" speed="36.11" length="3.05" width="2.96" shape="16.82,19.71 15.47,16.97"/>
        <lane id=":34_0_4" index="4" disallow="rail_fast" speed="36.11" length="3.05" width="3.03" shape="19.54,18.39 18.18,15.66"/>
    </edge>
    <edge id=":35_0" function="internal">
        <lane id=":35_0_0" index="0" disallow="rail_fast" speed="21.96" length="7.43" width="2.94" shape="-0.58,5.01 -0.84,4.51 -1.08,4.07 -1.30,3.67 -1.51,3.31 -1.71,2.99 -1.90,2.70 -2.09,2.44 -2.29,2.20 -2.48,1.97 -2.69,1.75 -2.90,1.53 -3.13,1.31 -3.37,1.09 -3.63,0.85 -3.92,0.60 -4.23,0.32 -4.58,0.01 -4.95,-0.33 -5.36,-0.71"/>
        <lane id=":35_0_1" index="1" disallow="rail_fast" speed="36.11" length="7.43" width="2.94" shape="-0.58,5.01 -3.89,-1.55"/>
        <lane id=":35_0_2" index="2" disallow="rail_fast" speed="36.11" length="7.43" width="3.05" shape="2.08,3.66 -1.25,-3.05"/>
        <lane id=":35_0_3" index="3" disallow="rail_fast" speed="36.11" length="7.43" width="3.03" shape="4.81,2.29 1.41,-4.55"/>
        <lane id=":35_0_4" index="4" disallow="rail_fast" speed="36.11" length="7.43" width="3.05" shape="7.54,0.91 4.07,-6.06"/>
        <lane id=":35_0_5" index="5" disallow="rail_fast" speed="36.11" length="7.43" width="3.12" shape="10.29,-0.48 7.30,-6.54"/>
    </edge>
    <edge id=":36_0" function="internal">
        <lane id=":36_0_0" index="0" disallow="rail_fast" speed="15.71" length="3.50" width="3.22" shape="-5.74,-1.07 -5.95,-1.26 -6.14,-1.42 -6.32,-1.56 -6.49,-1.68 -6.65,-1.79 -6.80,-1.89 -6.94,-1.98 -7.08,-2.06 -7.21,-2.15 -7.34,-2.23 -7.46,-2.32 -7.58,-2.41 -7.70,-2.52 -7.82,-2.64 -7.93,-2.78 -8.05,-2.95 -8.18,-3.13 -8.30,-3.34 -8.43,-3.58"/>
        <lane id=":36_0_1" index="1" disallow="rail_fast" speed="36.11" length="3.50" width="2.87" shape="-4.08,-1.93 -5.60,-4.95"/>
        <lane id=":36_0_2" index="2" disallow="rail_fast" speed="36.11" length="3.50" width="3.00" shape="-1.38,-3.32 -2.85,-6.28"/>
        <lane id=":36_0_3" index="3" disallow="rail_fast" speed="36.11" length="3.50" width="3.02" shape="1.33,-4.72 -0.12,-7.62"/>
        <lane id=":36_0_4" index="4" disallow="rail_fast" speed="36.11" length="3.50" width="3.02" shape="4.02,-6.15 2.60,-9.00"/>
        <lane id=":36_0_5" index="5" disallow="rail_fast" speed="36.11" length="3.50" width="3.03" shape="7.21,-6.72 5.38,-10.42"/>
    </edge>
    <edge id=":37_0" function="internal">
        <lane id=":37_0_0" index="0" disallow="bus truck rail_fast" speed="36.11" length="4.73" width="3.84" shape="-17.97,-22.55 -18.13,-22.86 -18.28,-23.15 -18.40,-23.41 -18.52,-23.64 -18.62,-23.86 -18.72,-24.06 -18.81,-24.25 -18.90,-24.42 -18.98,-24.59 -19.07,-24.75 -19.17,-24.92 -19.27,-25.09 -19.38,-25.26 -19.50,-25.44 -19.64,-25.63 -19.80,-25.84 -19.97,-26.07 -20.17,-26.32 -20.39,-26.59"/>
    </edge>
    <edge id=":37_1" function="internal">
        <lane id=":37_1_0" index="0" disallow="rail_fast" speed="36.11" length="5.10" width="2.87" shape="-15.01,-24.06 -17.31,-28.65"/>
        <lane id=":37_1_1" index="1" disallow="rail_fast" speed="36.11" length="5.10" width="3.02" shape="-12.36,-25.41 -14.66,-29.96"/>
        <lane id=":37_1_2" index="2" disallow="rail_fast" speed="36.11" length="5.10" width="3.12" shape="-9.63,-26.81 -11.88,-31.34"/>
    </edge>
    <edge id=":37_4" function="internal">
        <lane id=":37_4_0" index="0" disallow="bus truck rail_fast" speed="36.11" length="5.03" width="2.93" shape="-6.88,-28.21 -9.13,-32.70"/>
    </edge>
    <edge id=":37_5" function="internal">
        <lane id=":37_5_0" index="0" disallow="bus truck rail_fast" speed="36.11" length="4.99" width="3.03" shape="-4.17,-29.59 -6.40,-34.06"/>
    </edge>
    <edge id=":38_0" function="internal">
        <lane id=":38_0_0" index="0" disallow="rail_fast" speed="36.11" length="3.02" width="3.06" shape="-21.90,-37.89 -23.24,-40.60"/>
        <lane id=":38_0_1" index="1" disallow="rail_fast" speed="36.11" length="3.02" width="2.99" shape="-19.18,-39.22 -20.50,-41.94"/>
        <lane id=":38_0_2" index="2" disallow="rail_fast" speed="36.11" length="3.02" width="3.06" shape="-16.42,-40.58 -17.75,-43.29"/>
    </edge>
    <edge id=":39_0" function="internal">
        <lane id=":39_0_0" index="0" disallow="rail_fast" speed="36.11" length="1.22" width="3.29" shape="-29.21,-52.65 -28.67,-51.56"/>
        <lane id=":39_0_1" index="1" disallow="rail_fast" speed="36.11" length="1.22" width="2.97" shape="-26.43,-54.08 -25.90,-52.99"/>
        <lane id=":39_0_2" index="2" disallow="rail_fast" speed="36.11" length="1.22" width="3.01" shape="-23.74,-55.47 -23.20,-54.38"/>
    </edge>
    <edge id=":5_0" function="internal">
        <lane id=":5_0_0" index="0" disallow="bus truck rail_fast" speed="8.72" length="16.70" width="3.23" shape="-41.54,-46.17 -40.30,-46.81 -39.15,-47.44 -38.07,-48.08 -37.08,-48.71 -36.17,-49.34 -35.34,-49.97 -34.60,-50.59 -33.93,-51.22 -33.35,-51.84 -32.85,-52.46 -32.44,-53.08 -32.10,-53.70 -31.85,-54.32 -31.68,-54.93 -31.59,-55.55 -31.59,-56.16 -31.67,-56.77 -31.83,-57.38 -32.07,-57.99"/>
    </edge>
    <edge id=":5_1" function="internal">
        <lane id=":5_1_0" index="0" disallow="rail_fast" speed="36.11" length="13.86" width="3.23" shape="-41.54,-46.17 -29.25,-52.52"/>
        <lane id=":5_1_1" index="1" disallow="rail_fast" speed="36.11" length="13.86" width="3.03" shape="-40.16,-43.37 -27.78,-49.65"/>
    </edge>
    <edge id=":5_3" function="internal">
        <lane id=":5_3_0" index="0" disallow="bus truck rail_fast" speed="36.11" length="1.56" width="2.92" shape="-38.80,-40.64 -40.20,-39.95"/>
    </edge>
    <edge id=":6_0" function="internal">
        <lane id=":6_0_0" index="0" disallow="bus truck rail_fast" speed="9.12" length="13.80" width="3.05" shape="2.17,-48.73 1.80,-48.30 1.48,-47.85 1.20,-47.36 0.97,-46.85 0.79,-46.31 0.65,-45.74 0.55,-45.14 0.50,-44.52 0.50,-43.87 0.54,-43.18 0.63,-42.47 0.76,-41.74 0.94,-40.97 1.17,-40.18 1.44,-39.35 1.75,-38.50 2.11,-37.62 2.52,-36.71 2.97,-35.78"/>
    </edge>
    <edge id=":6_1" function="internal">
        <lane id=":6_1_0" index="0" disallow="rail_fast" speed="36.11" length="13.06" width="3.05" shape="-2.67,-47.51 2.97,-35.78"/>
        <lane id=":6_1_1" index="1" disallow="rail_fast" speed="36.11" length="13.06" width="2.91" shape="-5.49,-46.15 0.16,-34.37"/>
        <lane id=":6_1_2" index="2" disallow="rail_fast" speed="36.11" length="13.06" width="2.89" shape="-8.22,-44.84 -2.55,-33.01"/>
    </edge>
    <edge id=":6_4" function="internal">
        <lane id=":6_4_0" index="0" disallow="bus truck rail_fast" speed="36.11" length="13.55" width="2.89" shape="-9.07,-44.89 -2.55,-33.01"/>
    </edge>
    <edge id=":7_0" function="internal">
        <lane id=":7_0_0" index="0" disallow="rail_fast" speed="36.11" length="0.24" width="3.05" shape="13.30,-14.52 13.41,-14.31"/>
        <lane id=":7_0_1" index="1" disallow="rail_fast" speed="36.11" length="0.24" width="2.91" shape="10.64,-13.19 10.74,-12.97"/>
        <lane id=":7_0_2" index="2" disallow="rail_fast" speed="36.11" length="0.24" width="2.89" shape="8.04,-11.89 8.15,-11.66"/>
    </edge>
    <edge id=":8_0" function="internal">
        <lane id=":8_0_0" index="0" disallow="rail_fast" speed="36.11" length="3.05" width="3.03" shape="16.52,-8.24 17.90,-5.51"/>
        <lane id=":8_0_1" index="1" disallow="rail_fast" speed="36.11" length="3.05" width="3.00" shape="13.80,-6.88 15.16,-4.15"/>
        <lane id=":8_0_2" index="2" disallow="rail_fast" speed="36.11" length="3.05" width="2.94" shape="11.16,-5.56 12.50,-2.83"/>
    </edge>
    <edge id=":9_0" function="internal">
        <lane id=":9_0_0" index="0" disallow="bus truck rail_fast" speed="10.11" length="13.46" width="3.16" shape="26.15,11.02 26.59,11.86 27.04,12.66 27.49,13.41 27.95,14.13 28.41,14.80 28.89,15.42 29.37,16.01 29.86,16.55 30.35,17.05 30.85,17.50 31.36,17.92 31.88,18.29 32.40,18.62 32.93,18.90 33.47,19.14 34.02,19.34 34.57,19.50 35.13,19.61 35.70,19.68"/>
    </edge>
    <edge id=":9_1" function="internal">
        <lane id=":9_1_0" index="0" disallow="rail_fast" speed="36.11" length="13.11" width="3.16" shape="26.15,11.02 31.96,22.79"/>
        <lane id=":9_1_1" index="1" disallow="bus rail_fast" speed="36.11" length="13.11" width="2.93" shape="23.37,12.37 29.20,24.12"/>
        <lane id=":9_1_2" index="2" disallow="rail_fast" speed="36.11" length="13.11" width="3.07" shape="20.63,13.71 26.46,25.45"/>
    </edge>

    <edge id="3426" from="34" to="35" priority="1" spreadType="center" length="21.90">
        <lane id="3426_0" index="0" disallow="rail_fast" speed="36.11" length="21.90" width="2.78" customShape="1" shape="7.42,20.88 2.94,11.98 -0.58,5.01"/>
        <lane id="3426_1" index="1" disallow="rail_fast" speed="36.11" length="21.90" width="3.00" customShape="1" shape="10.02,19.61 5.60,10.73 2.08,3.66"/>
        <lane id="3426_2" index="2" disallow="rail_fast" speed="36.11" length="21.90" width="3.02" customShape="1" shape="12.75,18.29 8.28,9.30 4.81,2.29"/>
        <lane id="3426_3" index="3" disallow="rail_fast" speed="36.11" length="21.90" width="2.96" customShape="1" shape="15.47,16.97 10.97,7.84 7.54,0.91"/>
        <lane id="3426_4" index="4" disallow="rail_fast" speed="36.11" length="21.90" width="3.03" customShape="1" shape="18.18,15.66 13.69,6.46 10.29,-0.48"/>
    </edge>
    <edge id="3438" from="35" to="36" priority="1" spreadType="center" length="8.44">
        <lane id="3438_0" index="0" disallow="rail_fast" speed="36.11" length="8.44" width="2.94" customShape="1" shape="-5.36,-0.71 -5.74,-1.07"/>
        <lane id="3438_1" index="1" disallow="rail_fast" speed="36.11" length="8.44" width="2.94" customShape="1" shape="-3.89,-1.55 -4.08,-1.93"/>
        <lane id="3438_2" index="2" disallow="rail_fast" speed="36.11" length="8.44" width="3.05" customShape="1" shape="-1.25,-3.05 -1.38,-3.32"/>
        <lane id="3438_3" index="3" disallow="rail_fast" speed="36.11" length="8.44" width="3.03" customShape="1" shape="1.41,-4.55 1.33,-4.72"/>
        <lane id="3438_4" index="4" disallow="rail_fast" speed="36.11" length="8.44" width="3.05" customShape="1" shape="4.07,-6.06 4.02,-6.15"/>
        <lane id="3438_5" index="5" disallow="rail_fast" speed="36.11" length="8.44" width="3.12" customShape="1" shape="7.30,-6.54 7.21,-6.72"/>
    </edge>
    <edge id="3450" from="36" to="37" priority="1" spreadType="center" length="24.49">
        <lane id="3450_0" index="0" disallow="rail_fast" speed="36.11" length="24.49" width="3.22" customShape="1" shape="-8.43,-3.58 -11.61,-9.85 -15.40,-17.53 -17.97,-22.55"/>
        <lane id="3450_1" index="1" disallow="rail_fast" speed="36.11" length="24.49" width="2.87" customShape="1" shape="-5.60,-4.95 -8.61,-11.00 -12.43,-18.95 -15.01,-24.06"/>
        <lane id="3450_2" index="2" disallow="rail_fast" speed="36.11" length="24.49" width="3.00" customShape="1" shape="-2.85,-6.28 -5.88,-12.33 -9.73,-20.28 -12.36,-25.41"/>
        <lane id="3450_3" index="3" disallow="rail_fast" speed="36.11" length="24.49" width="3.02" customShape="1" shape="-0.12,-7.62 -3.21,-13.78 -7.09,-21.73 -9.63,-26.81"/>
        <lane id="3450_4" index="4" disallow="rail_fast" speed="36.11" length="24.49" width="3.02" customShape="1" shape="2.60,-9.00 -0.52,-15.24 -4.41,-23.18 -6.88,-28.21"/>
        <lane id="3450_5" index="5" disallow="rail_fast" speed="36.11" length="24.49" width="3.03" customShape="1" shape="5.38,-10.42 2.17,-16.74 -1.71,-24.69 -4.17,-29.59"/>
    </edge>
    <edge id="3456" from="6" to="7" priority="1" spreadType="center" length="24.71">
        <lane id="3456_0" index="0" disallow="rail_fast" speed="36.11" length="24.71" width="3.05" customShape="1" shape="2.97,-35.78 6.14,-29.44 9.99,-21.53 13.30,-14.52"/>
        <lane id="3456_1" index="1" disallow="rail_fast" speed="36.11" length="24.71" width="2.91" customShape="1" shape="0.16,-34.37 3.57,-27.68 7.25,-20.11 10.64,-13.19"/>
        <lane id="3456_2" index="2" disallow="rail_fast" speed="36.11" length="24.71" width="2.89" customShape="1" shape="-2.55,-33.01 0.94,-26.11 4.73,-18.41 8.04,-11.89"/>
    </edge>
    <edge id="3462" from="7" to="8" priority="1" spreadType="center" length="8.47">
        <lane id="3462_0" index="0" disallow="rail_fast" speed="36.11" length="8.47" width="3.05" customShape="1" shape="13.41,-14.31 16.52,-8.24"/>
        <lane id="3462_1" index="1" disallow="rail_fast" speed="36.11" length="8.47" width="2.91" customShape="1" shape="10.74,-12.97 13.80,-6.88"/>
        <lane id="3462_2" index="2" disallow="rail_fast" speed="36.11" length="8.47" width="2.89" customShape="1" shape="8.15,-11.66 11.16,-5.56"/>
    </edge>
    <edge id="3468" from="8" to="9" priority="1" spreadType="center" length="22.24">
        <lane id="3468_0" index="0" disallow="rail_fast" speed="36.11" length="22.24" width="3.03" customShape="1" shape="17.90,-5.51 21.83,2.44 26.15,11.02"/>
        <lane id="3468_1" index="1" disallow="rail_fast" speed="36.11" length="22.24" width="3.00" customShape="1" shape="15.16,-4.15 19.15,3.85 23.37,12.37"/>
        <lane id="3468_2" index="2" disallow="rail_fast" speed="36.11" length="22.24" width="2.94" customShape="1" shape="12.50,-2.83 16.46,5.23 20.63,13.71"/>
    </edge>
    <edge id="3498" from="1" to="2" priority="1" spreadType="center" length="9.59">
        <lane id="3498_0" index="0" disallow="rail_fast" speed="36.11" length="9.59" width="4.77" customShape="1" shape="57.16,24.86 47.98,25.17"/>
    </edge>
    <edge id="3500" from="25" to="26" priority="1" spreadType="center" length="9.59">
        <lane id="3500_0" index="0" disallow="rail_fast" speed="36.11" length="9.59" width="5.36" customShape="1" shape="48.80,20.07 56.95,19.80"/>
    </edge>
    <edge id="3509" from="4" to="5" priority="1" spreadType="center" length="15.63">
        <lane id="3509_0" index="0" disallow="rail_fast" speed="36.11" length="15.63" width="3.23" customShape="1" shape="-53.63,-40.16 -49.24,-42.34 -41.54,-46.17"/>
        <lane id="3509_1" index="1" disallow="rail_fast" speed="36.11" length="15.63" width="3.02" customShape="1" shape="-52.24,-37.36 -47.81,-39.56 -40.16,-43.37"/>
        <lane id="3509_2" index="2" disallow="rail_fast" speed="36.11" length="15.63" width="3.06" customShape="1" shape="-50.89,-34.64 -46.40,-36.86 -38.80,-40.64"/>
    </edge>
    <edge id="3517" from="23" to="24" priority="1" spreadType="center" length="14.50">
        <lane id="3517_0" index="0" disallow="rail_fast" speed="36.11" length="14.50" width="5.13" acceleration="1" customShape="1" shape="-34.66,-29.84 -42.00,-26.31 -45.62,-24.34"/>
        <lane id="3517_1" index="1" disallow="rail_fast" speed="36.11" length="14.50" width="3.11" customShape="1" shape="-36.46,-34.15 -43.89,-30.16 -47.59,-27.95"/>