<routes>
	<vehicle depart="0.1" departLane="0" departPos="13.816190207886041" departSpeed="9.2896281" id="37" type="passenger">
		<route edges=":82_4 68484 68000"/>
	</vehicle>
	<vehicle depart="0.1" departLane="0" departPos="23.937539053280826" departSpeed="0.34570976" id="313" type="passenger">
		<route edges="67174 67171 68337"/>
	</vehicle>
	<vehicle depart="0.1" departLane="0" departPos="7.156946401725937" departSpeed="0.28920028" id="317" type="passenger">
		<route edges=":82_3 67832"/>
	</vehicle>
	<vehicle depart="0.1" departLane="0" departPos="2.5" departSpeed="0.079075206" id="322" type="passenger">
		<route edges="67174 67835"/>
	</vehicle>
	<vehicle depart="0.1" departLane="0" departPos="9.098106002612948" departSpeed="0.049927557" id="325" type="passenger">
		<route edges="68483 67836"/>
	</vehicle>
	<vehicle depart="0.1" departLane="0" departPos="64.74969525657892" departSpeed="0.75782743" id="328" type="passenger">
		<route edges="68334 68337"/>
	</vehicle>
	<vehicle depart="0.1" departLane="0" departPos="2.750225800287326" departSpeed="9.3754058" id="330" type="passenger">
		<route edges="67835 67832 67994"/>
	</vehicle>
	<vehicle depart="0.1" departLane="0" departPos="6.807399871218475" departSpeed="6.4265777" id="348" type="passenger">
		<route edges=":84_5 68340"/>
	</vehicle>
	<vehicle depart="0.1" departLane="0" departPos="19.860219342498382" departSpeed="10.259834" id="349" type="passenger">
		<route edges=":82_4 68484 68000"/>
	</vehicle>
	<vehicle depart="0.1" departLane="0" departPos="28.30060457468722" departSpeed="0.59348956" id="360" type="passenger">
		<route edges=":86_1 67833 68484 69497"/>
	</vehicle>
</routes>
