<!-- generated on Tue Feb  9 22:11:57 2021 by Eclipse SUMO netconvert Version 1.8.0
<configuration xmlns:xsi="http://www.w3.org/2001/XMLSchema-instance" xsi:noNamespaceSchemaLocation="http://sumo.dlr.de/xsd/netconvertConfiguration.xsd">

    <input>
        <node-files value="./converted_scenarios/scenario-factory/ESP_Ceuta-11_1_I-1-1/ESP_Ceuta-11_1_I-1-1.nod.xml"/>
        <edge-files value="./converted_scenarios/scenario-factory/ESP_Ceuta-11_1_I-1-1/ESP_Ceuta-11_1_I-1-1.edg.xml"/>
        <connection-files value="./converted_scenarios/scenario-factory/ESP_Ceuta-11_1_I-1-1/ESP_Ceuta-11_1_I-1-1.con.xml"/>
        <tllogic-files value="./converted_scenarios/scenario-factory/ESP_Ceuta-11_1_I-1-1/ESP_Ceuta-11_1_I-1-1.tll.xml"/>
        <type-files value="/home/zen/commonroad-interactive-benchmarks/install/commonroad-map-tool/crmapconverter/sumo_map/templates/DEU.typ.xml"/>
    </input>

    <output>
        <output-file value="./converted_scenarios/scenario-factory/ESP_Ceuta-11_1_I-1-1/ESP_Ceuta-11_1_I-1-1.net.xml"/>
    </output>

    <processing>
        <geometry.remove.keep-edges.explicit value="true"/>
        <geometry.avoid-overlap value="true"/>
        <offset.disable-normalization value="true"/>
    </processing>

    <junctions>
        <no-turnarounds value="true"/>
        <junctions.internal-link-detail value="20"/>
    </junctions>

    <report>
        <aggregate-warnings value="5"/>
    </report>

    <random_number>
        <seed value="1234"/>
    </random_number>

</configuration>
--><net xmlns:xsi="http://www.w3.org/2001/XMLSchema-instance" version="1.6" junctionCornerDetail="5" junctionLinkDetail="20" limitTurnSpeed="5.50" xsi:noNamespaceSchemaLocation="http://sumo.dlr.de/xsd/net_file.xsd">

    <location netOffset="0.00,0.00" convBoundary="-288.03,868.87,-144.60,1058.59" origBoundary="-288.03,868.87,-143.51,1058.59" projParameter="!"/>

    <type id="highway.bridleway" priority="1" speed="2.78" allow="pedestrian" oneway="1" width="2.00"/>
    <type id="highway.bus_guideway" priority="1" speed="27.78" allow="bus" oneway="1"/>
    <type id="highway.cycleway" priority="1" speed="8.33" allow="bicycle" oneway="0" width="1.00"/>
    <type id="highway.footway" priority="1" speed="2.78" allow="pedestrian" oneway="1" width="2.00"/>
    <type id="highway.ford" priority="1" speed="2.78" allow="army" oneway="0"/>
    <type id="highway.living_street" priority="2" speed="2.78" disallow="tram rail_urban rail rail_electric rail_fast ship" oneway="0"/>
    <type id="highway.motorway" priority="14" speed="39.44" allow="private emergency authority army vip passenger hov taxi bus coach delivery truck trailer motorcycle evehicle custom1 custom2" oneway="1"/>
    <type id="highway.motorway_link" priority="9" speed="22.22" allow="private emergency authority army vip passenger hov taxi bus coach delivery truck trailer motorcycle evehicle custom1 custom2" oneway="1"/>
    <type id="highway.path" priority="1" speed="2.78" allow="pedestrian bicycle" oneway="0" width="2.00"/>
    <type id="highway.pedestrian" priority="1" speed="2.78" allow="pedestrian" oneway="1" width="2.00"/>
    <type id="highway.primary" priority="12" speed="27.78" disallow="pedestrian tram rail_urban rail rail_electric rail_fast ship" oneway="0"/>
    <type id="highway.primary_link" priority="7" speed="22.22" disallow="pedestrian tram rail_urban rail rail_electric rail_fast ship" oneway="0"/>
    <type id="highway.raceway" priority="15" speed="83.33" allow="vip" oneway="0"/>
    <type id="highway.residential" priority="3" speed="13.89" disallow="pedestrian tram rail_urban rail rail_electric rail_fast ship" oneway="0"/>
    <type id="highway.secondary" priority="11" speed="27.78" disallow="pedestrian tram rail_urban rail rail_electric rail_fast ship" oneway="0"/>
    <type id="highway.secondary_link" priority="6" speed="22.22" disallow="pedestrian tram rail_urban rail rail_electric rail_fast ship" oneway="0"/>
    <type id="highway.service" priority="1" speed="5.56" allow="pedestrian delivery bicycle" oneway="0"/>
    <type id="highway.stairs" priority="1" speed="1.39" allow="pedestrian" oneway="1" width="2.00"/>
    <type id="highway.step" priority="1" speed="1.39" allow="pedestrian" oneway="1" width="2.00"/>
    <type id="highway.steps" priority="1" speed="1.39" allow="pedestrian" oneway="1" width="2.00"/>
    <type id="highway.tertiary" priority="10" speed="22.22" disallow="pedestrian tram rail_urban rail rail_electric rail_fast ship" oneway="0"/>
    <type id="highway.tertiary_link" priority="5" speed="22.22" disallow="pedestrian tram rail_urban rail rail_electric rail_fast ship" oneway="0"/>
    <type id="highway.track" priority="1" speed="5.56" allow="pedestrian motorcycle moped bicycle" oneway="0"/>
    <type id="highway.trunk" priority="13" speed="27.78" disallow="pedestrian bicycle tram rail_urban rail rail_electric rail_fast ship" oneway="0"/>
    <type id="highway.trunk_link" priority="8" speed="22.22" disallow="pedestrian bicycle tram rail_urban rail rail_electric rail_fast ship" oneway="0"/>
    <type id="highway.unclassified" priority="4" speed="13.89" disallow="pedestrian tram rail_urban rail rail_electric rail_fast ship" oneway="0"/>
    <type id="highway.unsurfaced" priority="1" speed="8.33" disallow="tram rail_urban rail rail_electric rail_fast ship" oneway="0"/>
    <type id="railway.highspeed" priority="21" speed="69.44" allow="rail_fast" oneway="1"/>
    <type id="railway.light_rail" priority="19" speed="27.78" allow="rail_urban" oneway="1"/>
    <type id="railway.preserved" priority="16" speed="27.78" allow="rail" oneway="1"/>
    <type id="railway.rail" priority="20" speed="44.44" allow="rail" oneway="1"/>
    <type id="railway.subway" priority="18" speed="27.78" allow="rail_urban" oneway="1"/>
    <type id="railway.tram" priority="17" speed="13.89" allow="tram" oneway="1"/>

    <edge id=":10_0" function="internal">
        <lane id=":10_0_0" index="0" disallow="pedestrian tram rail_urban rail rail_electric rail_fast ship" speed="36.11" length="3.24" width="3.50" shape="-224.38,957.83 -226.80,955.67"/>
    </edge>
    <edge id=":11_0" function="internal">
        <lane id=":11_0_0" index="0" disallow="pedestrian tram rail_urban rail rail_electric rail_fast ship" speed="36.11" length="2.92" width="3.50" shape="-200.78,965.15 -197.90,965.62"/>
    </edge>
    <edge id=":3_0" function="internal">
        <lane id=":3_0_0" index="0" disallow="pedestrian tram rail_urban rail rail_electric rail_fast ship" speed="36.11" length="0.22" width="3.50" shape="-199.76,968.89 -199.98,968.85"/>
    </edge>
    <edge id=":34_0" function="internal">
        <lane id=":34_0_0" index="0" disallow="pedestrian tram rail_urban rail rail_electric rail_fast ship" speed="36.11" length="2.96" width="3.50" shape="-205.10,950.82 -208.05,950.60"/>
    </edge>
    <edge id=":39_0" function="internal">
        <lane id=":39_0_0" index="0" disallow="pedestrian tram rail_urban rail rail_electric rail_fast ship" speed="36.11" length="4.04" width="3.45" shape="-230.87,938.72 -233.56,935.70"/>
    </edge>
    <edge id=":44_0" function="internal">
        <lane id=":44_0_0" index="0" disallow="pedestrian tram rail_urban rail rail_electric rail_fast ship" speed="36.11" length="0.25" width="3.50" shape="-206.48,947.23 -206.23,947.25"/>
    </edge>
    <edge id=":59_0" function="internal">
        <lane id=":59_0_0" index="0" disallow="pedestrian tram rail_urban rail rail_electric rail_fast ship" speed="36.11" length="0.27" width="3.50" shape="-223.30,954.10 -223.10,954.28"/>
    </edge>
    <edge id=":61_0" function="internal">
        <lane id=":61_0_0" index="0" disallow="pedestrian tram rail_urban rail rail_electric rail_fast ship" speed="36.11" length="3.14" width="3.50" shape="-195.63,1004.47 -192.52,1004.90"/>
    </edge>
    <edge id=":65_0" function="internal">
        <lane id=":65_0_0" index="0" disallow="pedestrian tram rail_urban rail rail_electric rail_fast ship" speed="36.11" length="3.69" width="3.50" shape="-230.78,933.56 -228.33,936.32"/>
    </edge>
    <edge id=":66_0" function="internal">
        <lane id=":66_0_0" index="0" disallow="pedestrian tram rail_urban rail rail_electric rail_fast ship" speed="36.11" length="4.12" width="3.50" shape="-174.44,915.39 -178.53,914.89"/>
    </edge>
    <edge id=":67_0" function="internal">
        <lane id=":67_0_0" index="0" disallow="pedestrian tram rail_urban rail rail_electric rail_fast ship" speed="36.11" length="2.80" width="3.49" shape="-199.95,912.49 -202.74,912.27"/>
    </edge>
    <edge id=":70_0" function="internal">
        <lane id=":70_0_0" index="0" disallow="pedestrian tram rail_urban rail rail_electric rail_fast ship" speed="36.11" length="2.99" width="3.50" shape="-214.47,911.28 -214.68,911.20 -214.86,911.12 -215.03,911.04 -215.18,910.97 -215.31,910.91 -215.44,910.84 -215.55,910.78 -215.66,910.72 -215.76,910.66 -215.86,910.59 -215.96,910.53 -216.06,910.46 -216.17,910.39 -216.29,910.31 -216.42,910.23 -216.55,910.14 -216.71,910.04 -216.88,909.94 -217.07,909.82"/>
    </edge>
    <edge id=":73_0" function="internal">
        <lane id=":73_0_0" index="0" disallow="pedestrian tram rail_urban rail rail_electric rail_fast ship" speed="36.11" length="2.98" width="3.50" shape="-215.23,906.85 -215.04,906.96 -214.87,907.07 -214.71,907.16 -214.57,907.25 -214.45,907.33 -214.33,907.41 -214.22,907.48 -214.12,907.55 -214.02,907.61 -213.91,907.68 -213.81,907.74 -213.70,907.80 -213.59,907.86 -213.47,907.92 -213.33,907.98 -213.18,908.05 -213.01,908.12 -212.83,908.20 -212.62,908.28"/>
    </edge>
    <edge id=":74_0" function="internal">
        <lane id=":74_0_0" index="0" disallow="pedestrian tram rail_urban rail rail_electric rail_fast ship" speed="36.11" length="0.10" width="3.50" shape="-201.01,908.85 -201.01,908.85"/>
    </edge>
    <edge id=":77_0" function="internal">
        <lane id=":77_0_0" index="0" disallow="pedestrian tram rail_urban rail rail_electric rail_fast ship" speed="36.11" length="3.84" width="3.50" shape="-178.00,911.43 -174.19,911.90"/>
    </edge>
    <edge id=":78_0" function="internal">
        <lane id=":78_0_0" index="0" disallow="pedestrian tram rail_urban rail rail_electric rail_fast ship" speed="36.11" length="2.98" width="3.49" shape="-193.06,1008.36 -196.01,1007.95"/>
    </edge>
    <edge id=":81_0" function="internal">
        <lane id=":81_0_0" index="0" disallow="pedestrian tram rail_urban rail rail_electric rail_fast ship" speed="36.11" length="24.87" width="3.50" shape="-145.13,963.92 -145.69,977.97 -146.33,988.76"/>
    </edge>
    <edge id=":81_1" function="internal">
        <lane id=":81_1_0" index="0" disallow="pedestrian tram rail_urban rail rail_electric rail_fast ship" speed="6.71" length="10.37" width="3.48" shape="-145.13,963.92 -145.19,965.28 -145.44,967.92 -145.68,969.29 -146.03,970.66 -146.57,972.05 -147.38,973.40 -147.73,973.74"/>
    </edge>
    <edge id=":81_2" function="internal">
        <lane id=":81_2_0" index="0" disallow="pedestrian tram rail_urban rail rail_electric rail_fast ship" speed="6.86" length="10.85" width="3.50" shape="-148.69,972.60 -150.74,972.05 -150.04,971.40 -149.59,970.54 -149.28,969.62 -149.07,968.67 -148.91,967.71 -148.80,966.75 -148.66,964.81 -148.63,963.84"/>
    </edge>
    <edge id=":81_3" function="internal">
        <lane id=":81_3_0" index="0" disallow="pedestrian tram rail_urban rail rail_electric rail_fast ship" speed="9.45" length="19.19" width="3.50" shape="-148.69,972.60 -150.39,972.60 -149.26,973.32 -148.36,974.32 -147.69,975.48 -147.19,976.73 -146.83,978.03 -146.39,980.69 -146.19,984.72 -146.33,988.76"/>
    </edge>
    <edge id=":81_4" function="internal">
        <lane id=":81_4_0" index="0" disallow="pedestrian tram rail_urban rail rail_electric rail_fast ship" speed="8.15" length="13.90" width="3.48" shape="-149.83,988.55 -149.69,985.12 -149.78,981.76 -150.04,979.60 -150.26,978.61 -150.54,977.66 -150.91,976.84 -151.34,976.22 -151.71,975.88 -152.44,975.65"/>
    </edge>
    <edge id=":81_5" function="internal">
        <lane id=":81_5_0" index="0" disallow="pedestrian tram rail_urban rail rail_electric rail_fast ship" speed="36.11" length="24.74" width="3.50" shape="-149.83,988.55 -149.19,977.80 -148.63,963.84"/>
    </edge>
    <edge id=":82_0" function="internal">
        <lane id=":82_0_0" index="0" disallow="pedestrian tram rail_urban rail rail_electric rail_fast ship" speed="36.11" length="19.71" width="3.50" shape="-156.06,983.30 -156.40,993.16 -156.73,1003.00"/>
    </edge>
    <edge id=":82_1" function="internal">
        <lane id=":82_1_0" index="0" disallow="pedestrian tram rail_urban rail rail_electric rail_fast ship" speed="10.79" length="28.66" width="3.50" shape="-156.06,983.30 -156.17,984.68 -156.41,986.02 -156.80,987.33 -157.36,988.57 -158.10,989.71 -159.00,990.74 -160.04,991.62 -161.18,992.35 -162.41,992.95 -163.69,993.41 -166.34,994.04 -169.05,994.34 -173.14,994.36 -177.22,994.03 -178.59,993.86"/>
    </edge>
    <edge id=":82_2" function="internal">
        <lane id=":82_2_0" index="0" disallow="pedestrian tram rail_urban rail rail_electric rail_fast ship" speed="9.68" length="22.72" width="3.50" shape="-178.11,990.39 -176.93,990.54 -173.39,990.85 -169.88,990.87 -167.62,990.66 -165.42,990.22 -164.42,989.90 -163.46,989.49 -162.59,989.00 -161.80,988.41 -161.14,987.75 -160.59,986.99 -160.16,986.15 -159.84,985.23 -159.65,984.24 -159.56,983.17"/>
    </edge>
    <edge id=":82_3" function="internal">
        <lane id=":82_3_0" index="0" disallow="pedestrian tram rail_urban rail rail_electric rail_fast ship" speed="11.29" length="26.96" width="3.50" shape="-178.11,990.39 -173.03,991.24 -169.28,992.11 -165.62,993.28 -163.26,994.30 -161.04,995.58 -160.01,996.35 -159.06,997.21 -158.23,998.19 -157.55,999.28 -157.07,1000.46 -156.79,1001.72 -156.73,1003.00"/>
    </edge>
    <edge id=":82_4" function="internal">
        <lane id=":82_4_0" index="0" disallow="pedestrian tram rail_urban rail rail_electric rail_fast ship" speed="10.15" length="21.91" width="3.50" shape="-160.23,1002.94 -160.26,1002.11 -160.46,1001.32 -160.84,1000.56 -161.38,999.84 -162.04,999.18 -162.82,998.58 -163.65,998.03 -165.56,997.06 -167.57,996.27 -170.79,995.32 -174.08,994.59 -178.59,993.86"/>
    </edge>
    <edge id=":82_5" function="internal">
        <lane id=":82_5_0" index="0" disallow="pedestrian tram rail_urban rail rail_electric rail_fast ship" speed="36.11" length="19.78" width="3.50" shape="-160.23,1002.94 -159.89,993.04 -159.56,983.17"/>
    </edge>
    <edge id=":83_0" function="internal">
        <lane id=":83_0_0" index="0" disallow="pedestrian tram rail_urban rail rail_electric rail_fast ship" speed="6.30" length="8.95" width="3.50" shape="-152.68,975.62 -153.44,975.73 -154.31,976.26 -154.91,977.08 -155.32,978.02 -155.59,979.00 -155.79,980.01 -155.92,981.03 -156.05,983.07"/>
    </edge>
    <edge id=":83_1" function="internal">
        <lane id=":83_1_0" index="0" disallow="pedestrian tram rail_urban rail rail_electric rail_fast ship" speed="36.11" length="23.40" width="3.50" shape="-152.68,975.62 -164.13,973.98 -175.84,972.30"/>
    </edge>
    <edge id=":83_2" function="internal">
        <lane id=":83_2_0" index="0" disallow="pedestrian tram rail_urban rail rail_electric rail_fast ship" speed="36.11" length="26.71" width="3.43" shape="-175.34,968.84 -163.63,970.51 -148.89,972.57"/>
    </edge>
    <edge id=":83_3" function="internal">
        <lane id=":83_3_0" index="0" disallow="pedestrian tram rail_urban rail rail_electric rail_fast ship" speed="11.21" length="26.43" width="3.50" shape="-175.34,968.84 -171.42,969.53 -167.58,970.52 -165.09,971.40 -162.70,972.52 -161.57,973.19 -160.48,973.95 -159.47,974.80 -158.56,975.75 -157.76,976.80 -157.10,977.94 -156.59,979.16 -156.26,980.44 -156.08,981.75 -156.05,983.07"/>
    </edge>
    <edge id=":83_4" function="internal">
        <lane id=":83_4_0" index="0" disallow="pedestrian tram rail_urban rail rail_electric rail_fast ship" speed="10.10" length="21.30" width="3.50" shape="-159.55,982.96 -159.57,981.99 -159.71,981.05 -159.98,980.14 -160.38,979.28 -160.90,978.47 -161.54,977.72 -162.27,977.04 -163.09,976.41 -163.98,975.84 -164.91,975.33 -166.95,974.43 -169.07,973.72 -172.41,972.89 -175.84,972.30"/>
    </edge>
    <edge id=":83_5" function="internal">
        <lane id=":83_5_0" index="0" disallow="pedestrian tram rail_urban rail rail_electric rail_fast ship" speed="8.71" length="18.03" width="3.43" shape="-159.55,982.96 -159.32,980.08 -159.07,978.60 -158.67,977.11 -158.04,975.61 -157.07,974.20 -155.70,973.03 -153.97,972.31 -148.89,972.57"/>
    </edge>
    <edge id=":84_0" function="internal">
        <lane id=":84_0_0" index="0" disallow="pedestrian tram rail_urban rail rail_electric rail_fast ship" speed="36.11" length="24.80" width="3.50" shape="-144.59,938.87 -144.86,951.29 -145.12,963.66"/>
    </edge>
    <edge id=":84_1" function="internal">
        <lane id=":84_1_0" index="0" disallow="pedestrian tram rail_urban rail rail_electric rail_fast ship" speed="9.23" length="19.70" width="3.45" shape="-144.59,938.87 -144.82,943.12 -145.20,945.92 -145.87,948.66 -146.37,949.99 -147.02,951.24 -147.88,952.35 -148.98,953.23 -150.29,953.74 -153.04,953.78"/>
    </edge>
    <edge id=":84_2" function="internal">
        <lane id=":84_2_0" index="0" disallow="pedestrian tram rail_urban rail rail_electric rail_fast ship" speed="7.34" length="13.45" width="3.50" shape="-152.13,950.25 -151.11,950.43 -150.52,950.09 -150.01,949.47 -149.59,948.67 -149.23,947.75 -148.94,946.75 -148.51,944.55 -148.26,942.30 -148.09,938.81"/>
    </edge>
    <edge id=":84_3" function="internal">
        <lane id=":84_3_0" index="0" disallow="pedestrian tram rail_urban rail rail_electric rail_fast ship" speed="9.39" length="16.93" width="3.50" shape="-152.13,950.25 -149.75,950.76 -148.18,951.76 -147.08,953.05 -146.35,954.41 -145.87,955.78 -145.55,957.13 -145.33,958.49 -145.13,961.10 -145.12,963.66"/>
    </edge>
    <edge id=":84_4" function="internal">
        <lane id=":84_4_0" index="0" disallow="pedestrian tram rail_urban rail rail_electric rail_fast ship" speed="7.60" length="12.31" width="3.45" shape="-148.62,963.59 -148.61,961.59 -148.71,959.59 -148.81,958.60 -148.97,957.61 -149.20,956.64 -149.53,955.69 -150.02,954.83 -150.75,954.15 -153.04,953.78"/>
    </edge>
    <edge id=":84_5" function="internal">
        <lane id=":84_5_0" index="0" disallow="pedestrian tram rail_urban rail rail_electric rail_fast ship" speed="36.11" length="24.79" width="3.50" shape="-148.62,963.59 -148.36,951.21 -148.09,938.81"/>
    </edge>
    <edge id=":85_0" function="internal">
        <lane id=":85_0_0" index="0" disallow="pedestrian tram rail_urban rail rail_electric rail_fast ship" speed="13.38" length="20.46" width="3.50" shape="-211.44,996.18 -211.36,994.03 -211.63,992.01 -212.18,990.05 -212.95,988.17 -213.90,986.37 -215.56,983.80 -217.43,981.39 -220.15,978.38"/>
    </edge>
    <edge id=":85_1" function="internal">
        <lane id=":85_1_0" index="0" disallow="pedestrian tram rail_urban rail rail_electric rail_fast ship" speed="10.07" length="23.53" width="3.50" shape="-211.44,996.18 -211.16,994.71 -210.70,993.42 -210.03,992.22 -209.15,991.17 -208.09,990.28 -206.91,989.58 -205.65,989.04 -204.33,988.63 -201.62,988.16 -198.88,988.00 -194.75,988.18 -191.99,988.49"/>
    </edge>
    <edge id=":85_2" function="internal">
        <lane id=":85_2_0" index="0" disallow="pedestrian tram rail_urban rail rail_electric rail_fast ship" speed="8.78" length="17.83" width="3.49" shape="-192.46,991.96 -194.82,991.69 -198.32,991.50 -200.58,991.58 -202.80,991.89 -203.80,992.15 -204.76,992.50 -205.62,992.93 -206.37,993.46 -206.97,994.07 -207.44,994.78 -207.77,995.58 -207.96,996.50"/>
    </edge>
    <edge id=":85_3" function="internal">
        <lane id=":85_3_0" index="0" disallow="pedestrian tram rail_urban rail rail_electric rail_fast ship" speed="21.75" length="31.44" width="3.50" shape="-192.46,991.96 -196.91,991.17 -201.25,990.02 -204.42,988.90 -207.51,987.55 -210.48,985.97 -213.32,984.17 -216.02,982.15 -218.56,979.94 -220.15,978.38"/>
    </edge>
    <edge id=":85_4" function="internal">
        <lane id=":85_4_0" index="0" disallow="pedestrian tram rail_urban rail rail_electric rail_fast ship" speed="20.98" length="29.22" width="3.50" shape="-217.72,975.86 -216.17,977.38 -213.82,979.43 -211.33,981.29 -208.70,982.95 -205.95,984.41 -203.10,985.65 -200.17,986.69 -196.13,987.76 -191.99,988.49"/>
    </edge>
    <edge id=":85_5" function="internal">
        <lane id=":85_5_0" index="0" disallow="pedestrian tram rail_urban rail rail_electric rail_fast ship" speed="14.50" length="23.58" width="3.49" shape="-217.72,975.86 -214.63,979.30 -212.54,982.03 -210.70,984.94 -209.63,987.04 -208.77,989.25 -208.15,991.59 -207.86,994.02 -207.96,996.50"/>
    </edge>
    <edge id=":86_0" function="internal">
        <lane id=":86_0_0" index="0" disallow="pedestrian tram rail_urban rail rail_electric rail_fast ship" speed="11.54" length="28.34" width="3.50" shape="-161.15,1029.82 -161.15,1027.54 -161.31,1025.31 -161.65,1023.13 -162.21,1021.03 -163.02,1019.04 -164.10,1017.18 -164.71,1016.36 -165.40,1015.57 -166.13,1014.86 -167.83,1013.54 -169.69,1012.48 -171.70,1011.64 -173.80,1011.02 -177.14,1010.40"/>
    </edge>
    <edge id=":86_1" function="internal">
        <lane id=":86_1_0" index="0" disallow="pedestrian tram rail_urban rail rail_electric rail_fast ship" speed="36.11" length="28.64" width="3.49" shape="-161.15,1029.82 -160.69,1016.46 -160.14,1001.20"/>
    </edge>
    <edge id=":86_2" function="internal">
        <lane id=":86_2_0" index="0" disallow="pedestrian tram rail_urban rail rail_electric rail_fast ship" speed="36.11" length="28.62" width="3.50" shape="-156.67,1001.32 -157.20,1016.58 -157.65,1029.92"/>
    </edge>
    <edge id=":86_3" function="internal">
        <lane id=":86_3_0" index="0" disallow="pedestrian tram rail_urban rail rail_electric rail_fast ship" speed="10.38" length="26.20" width="3.50" shape="-156.67,1001.32 -156.95,1004.77 -157.54,1006.29 -158.48,1007.61 -159.65,1008.64 -160.91,1009.39 -162.19,1009.93 -163.48,1010.32 -164.79,1010.59 -167.30,1010.88 -169.81,1010.95 -173.49,1010.78 -177.14,1010.40"/>
    </edge>
    <edge id=":86_4" function="internal">
        <lane id=":86_4_0" index="0" disallow="pedestrian tram rail_urban rail rail_electric rail_fast ship" speed="9.28" length="20.44" width="3.49" shape="-176.70,1006.93 -173.61,1007.27 -170.53,1007.46 -168.48,1007.47 -166.42,1007.34 -165.41,1007.21 -164.40,1007.01 -163.41,1006.73 -162.46,1006.33 -161.59,1005.79 -160.88,1005.05 -160.41,1004.14 -160.14,1001.20"/>
    </edge>
    <edge id=":86_5" function="internal">
        <lane id=":86_5_0" index="0" disallow="pedestrian tram rail_urban rail rail_electric rail_fast ship" speed="12.52" length="33.55" width="3.50" shape="-176.69,1006.93 -172.87,1007.64 -170.40,1008.37 -168.01,1009.36 -165.77,1010.63 -163.73,1012.21 -162.81,1013.11 -161.95,1014.08 -161.18,1015.11 -159.88,1017.34 -158.91,1019.73 -158.24,1022.22 -157.83,1024.76 -157.65,1027.34 -157.65,1029.92"/>
    </edge>
    <edge id=":87_0" function="internal">
        <lane id=":87_0_0" index="0" disallow="pedestrian tram rail_urban rail rail_electric rail_fast ship" speed="36.11" length="19.26" width="3.50" shape="-153.24,953.77 -162.22,953.25 -172.47,952.67"/>
    </edge>
    <edge id=":87_1" function="internal">
        <lane id=":87_1_0" index="0" disallow="pedestrian tram rail_urban rail rail_electric rail_fast ship" speed="7.65" length="12.28" width="3.49" shape="-153.24,953.77 -153.59,953.60 -155.16,953.05 -156.53,952.12 -157.61,950.86 -158.34,949.37 -158.79,947.77 -159.02,946.12 -159.09,944.20"/>
    </edge>
    <edge id=":87_2" function="internal">
        <lane id=":87_2_0" index="0" disallow="pedestrian tram rail_urban rail rail_electric rail_fast ship" speed="6.37" length="7.29" width="3.50" shape="-155.59,944.51 -155.54,945.66 -155.40,946.79 -155.13,947.84 -154.74,948.72 -154.20,949.40 -153.54,949.89 -152.71,950.20 -152.33,950.21"/>
    </edge>
    <edge id=":87_3" function="internal">
        <lane id=":87_3_0" index="0" disallow="pedestrian tram rail_urban rail rail_electric rail_fast ship" speed="9.56" length="21.08" width="3.50" shape="-155.59,944.51 -155.75,946.02 -156.28,947.58 -157.18,948.98 -158.33,950.08 -159.59,950.91 -160.90,951.51 -162.21,951.95 -163.56,952.26 -166.13,952.62 -168.71,952.75 -172.47,952.67"/>
    </edge>
    <edge id=":87_4" function="internal">
        <lane id=":87_4_0" index="0" disallow="pedestrian tram rail_urban rail rail_electric rail_fast ship" speed="8.26" length="15.73" width="3.49" shape="-172.29,949.18 -169.19,949.27 -167.13,949.20 -165.07,949.00 -164.06,948.82 -163.06,948.58 -162.08,948.25 -161.15,947.80 -160.32,947.20 -159.64,946.42 -159.23,945.48 -159.09,944.20"/>
    </edge>
    <edge id=":87_5" function="internal">
        <lane id=":87_5_0" index="0" disallow="pedestrian tram rail_urban rail rail_electric rail_fast ship" speed="36.11" length="19.99" width="3.50" shape="-172.29,949.18 -162.02,949.76 -152.33,950.21"/>
    </edge>
    <edge id=":88_0" function="internal">
        <lane id=":88_0_0" index="0" disallow="pedestrian tram rail_urban rail rail_electric rail_fast ship" speed="10.27" length="22.20" width="3.50" shape="-159.08,944.20 -159.23,943.21 -159.65,942.29 -160.27,941.50 -161.02,940.83 -161.86,940.26 -162.74,939.77 -164.60,938.98 -166.52,938.35 -169.46,937.62 -172.43,937.07 -176.44,936.52 -178.44,936.30"/>
    </edge>
    <edge id=":88_1" function="internal">
        <lane id=":88_1_0" index="0" disallow="pedestrian tram rail_urban rail rail_electric rail_fast ship" speed="36.11" length="20.02" width="3.49" shape="-159.09,944.20 -158.93,939.90 -157.92,929.44 -157.59,924.24"/>
    </edge>
    <edge id=":88_2" function="internal">
        <lane id=":88_2_0" index="0" disallow="pedestrian tram rail_urban rail rail_electric rail_fast ship" speed="36.11" length="19.88" width="3.50" shape="-154.08,924.32 -154.43,929.62 -155.44,940.03 -155.59,944.14"/>
    </edge>
    <edge id=":88_3" function="internal">
        <lane id=":88_3_0" index="0" disallow="pedestrian tram rail_urban rail rail_electric rail_fast ship" speed="11.34" length="31.01" width="3.50" shape="-154.08,924.32 -154.19,925.74 -154.41,927.07 -154.77,928.37 -155.29,929.61 -155.96,930.77 -156.79,931.83 -157.74,932.78 -158.81,933.59 -159.96,934.29 -161.18,934.86 -163.73,935.72 -166.36,936.25 -169.04,936.54 -173.07,936.63 -177.10,936.42 -178.44,936.30"/>
    </edge>
    <edge id=":88_4" function="internal">
        <lane id=":88_4_0" index="0" disallow="pedestrian tram rail_urban rail rail_electric rail_fast ship" speed="10.24" length="25.17" width="3.49" shape="-178.10,932.82 -176.93,932.92 -173.37,933.12 -169.84,933.07 -167.55,932.86 -165.32,932.47 -163.18,931.83 -162.22,931.43 -161.30,930.93 -160.46,930.36 -159.72,929.71 -159.09,928.98 -158.56,928.17 -158.15,927.30 -157.86,926.35 -157.67,925.34 -157.59,924.24"/>
    </edge>
    <edge id=":88_5" function="internal">
        <lane id=":88_5_0" index="0" disallow="pedestrian tram rail_urban rail rail_electric rail_fast ship" speed="11.42" length="27.18" width="3.50" shape="-178.10,932.82 -175.81,933.07 -171.27,933.74 -167.86,934.44 -164.47,935.41 -162.22,936.28 -160.05,937.41 -158.97,938.15 -157.97,939.01 -157.06,940.05 -156.30,941.27 -155.79,942.66 -155.59,944.14"/>
    </edge>

    <edge id="67156" from="71" to="59" priority="3" type="highway.residential" spreadType="center" length="69.87">
        <lane id="67156_0" index="0" disallow="pedestrian tram rail_urban rail rail_electric rail_fast ship" speed="36.11" length="69.87" width="3.50" customShape="1" shape="-283.60,971.03 -283.10,970.49 -277.85,965.35 -273.11,961.20 -268.53,957.69 -264.14,954.80 -260.01,952.51 -255.70,950.57 -251.75,949.16 -247.69,948.07 -243.56,947.33 -239.38,946.92 -236.76,946.89 -234.68,947.17 -232.66,947.74 -230.72,948.55 -228.45,949.86 -226.33,951.41 -223.30,954.10"/>
    </edge>
    <edge id="67157" from="10" to="60" priority="3" type="highway.residential" spreadType="center" length="68.38">
        <lane id="67157_0" index="0" disallow="pedestrian tram rail_urban rail rail_electric rail_fast ship" speed="36.11" length="68.38" width="3.50" customShape="1" shape="-226.80,955.67 -228.57,954.10 -230.50,952.70 -232.54,951.56 -234.22,950.90 -235.97,950.50 -237.84,950.38 -240.22,950.49 -244.16,950.96 -248.05,951.76 -251.86,952.89 -255.57,954.31 -259.61,956.27 -263.50,958.53 -267.64,961.38 -271.98,964.83 -276.50,968.89 -281.54,973.92 -284.77,977.46"/>
    </edge>
    <edge id="67159" from="88" to="87" priority="3" type="highway.residential" spreadType="center" length="0.37" shape="-162.16,933.77 -158.80,948.79">
        <lane id="67159_0" index="0" disallow="pedestrian tram rail_urban rail rail_electric rail_fast ship" speed="36.11" length="0.37" width="3.50" customShape="1" shape="-155.59,944.14 -155.59,944.34 -155.59,944.51"/>
    </edge>
    <edge id="67160" from="87" to="88" priority="3" type="highway.residential" spreadType="center" length="0.16" shape="-162.21,949.55 -165.55,934.53">
        <lane id="67160_0" index="0" disallow="pedestrian tram rail_urban rail rail_electric rail_fast ship" speed="36.11" length="0.16" width="3.49" customShape="1" shape="-159.09,944.20 -159.09,944.04"/>
    </edge>
    <edge id="67162" from="77" to="88" priority="3" type="highway.residential" spreadType="center" length="25.89" shape="-176.09,911.65 -162.28,933.51">
        <lane id="67162_0" index="0" disallow="pedestrian tram rail_urban rail rail_electric rail_fast ship" speed="36.11" length="25.89" width="3.50" customShape="1" shape="-174.19,911.90 -170.34,912.48 -166.89,913.22 -163.48,914.22 -161.21,915.12 -159.04,916.26 -157.95,916.99 -156.94,917.83 -156.01,918.81 -155.20,919.95 -154.58,921.24 -154.20,922.65 -154.08,924.06 -154.09,924.28 -154.09,924.40"/>
    </edge>