<routes>
	<vehicle depart="0.1" departLane="4" departPos="244.78407736812346" departSpeed="19.9431" id="468" type="passenger">
		<route edges="24"/>
	</vehicle>
	<vehicle depart="0.1" departLane="4" departPos="221.76692199436786" departSpeed="19.809" id="475" type="passenger">
		<route edges="24"/>
	</vehicle>
	<vehicle depart="0.1" departLane="1" departPos="220.14939456155753" departSpeed="19.0287" id="481" type="passenger">
		<route edges="24"/>
	</vehicle>
	<vehicle depart="0.1" departLane="0" departPos="231.99698702422893" departSpeed="16.3586" id="482" type="passenger">
		<route edges="24"/>
	</vehicle>
	<vehicle depart="0.1" departLane="3" departPos="208.99080583201854" departSpeed="18.2758" id="484" type="passenger">
		<route edges="24"/>
	</vehicle>
	<vehicle depart="0.1" departLane="4" departPos="176.96821035504846" departSpeed="17.971" id="485" type="passenger">
		<route edges="24"/>
	</vehicle>
	<vehicle depart="0.1" departLane="2" departPos="229.92769593605667" departSpeed="19.4981" id="486" type="passenger">
		<route edges="24"/>
	</vehicle>
	<vehicle depart="0.1" departLane="0" departPos="207.91520752292075" departSpeed="16.9591" id="488" type="passenger">
		<route edges="24"/>
	</vehicle>
	<vehicle depart="0.1" departLane="3" departPos="174.7596329810527" departSpeed="19.7084" id="489" type="passenger">
		<route edges="24 24 24 24 24 24"/>
	</vehicle>
	<vehicle depart="0.1" departLane="2" departPos="162.12546043397697" departSpeed="19.053" id="491" type="passenger">
		<route edges="24"/>
	</vehicle>
	<vehicle depart="0.1" departLane="1" departPos="184.463188741891" departSpeed="18.8488" id="492" type="passenger">
		<route edges="24"/>
	</vehicle>
	<vehicle depart="0.1" departLane="4" departPos="132.20902990291788" departSpeed="18.2941" id="493" type="passenger">
		<route edges="24"/>
	</vehicle>
	<vehicle depart="0.1" departLane="4" departPos="106.50336557814188" departSpeed="17.4132" id="494" type="passenger">
		<route edges="24"/>
	</vehicle>
	<vehicle depart="0.1" departLane="1" departPos="162.01573238175828" departSpeed="18.9342" id="495" type="passenger">
		<route edges="24"/>
	</vehicle>
	<vehicle depart="0.1" departLane="3" departPos="151.6117534990587" departSpeed="16.825" id="496" type="passenger">
		<route edges="24"/>
	</vehicle>
	<vehicle depart="0.1" departLane="0" departPos="141.99696476130046" departSpeed="18.2697" id="500" type="passenger">
		<route edges="24"/>
	</vehicle>
	<vehicle depart="0.1" departLane="1" departPos="136.83896096382185" departSpeed="16.761" id="501" type="passenger">
		<route edges="24"/>
	</vehicle>
	<vehicle depart="0.1" departLane="2" departPos="147.47155867830693" departSpeed="18.1295" id="502" type="passenger">
		<route edges="24"/>
	</vehicle>
	<vehicle depart="0.1" departLane="4" departPos="149.51665907816826" departSpeed="21.7475" id="503" type="passenger">
		<route edges="24"/>
	</vehicle>
	<vehicle depart="0.1" departLane="1" departPos="115.90080941380367" departSpeed="18.1234" id="504" type="passenger">
		<route edges="24"/>
	</vehicle>
	<vehicle depart="0.1" departLane="3" departPos="115.63679837467316" departSpeed="19.9248" id="506" type="passenger">
		<route edges="24"/>
	</vehicle>
	<vehicle depart="0.1" departLane="4" departPos="70.12230445393052" departSpeed="16.5842" id="507" type="passenger">
		<route edges="24"/>
	</vehicle>
	<vehicle depart="0.1" departLane="0" departPos="84.79127018094445" departSpeed="18.1021" id="512" type="passenger">
		<route edges="24"/>
	</vehicle>
	<vehicle depart="0.1" departLane="1" departPos="90.91346727508126" departSpeed="18.2819" id="513" type="passenger">
		<route edges="24 24 24 24 24 24"/>
	</vehicle>
	<vehicle depart="0.1" departLane="3" departPos="85.51974983028296" departSpeed="19.4706" id="514" type="passenger">
		<route edges="24"/>
	</vehicle>
	<vehicle depart="0.1" departLane="2" departPos="103.35409618325649" departSpeed="18.6934" id="515" type="passenger">
		<route edges="24"/>
	</vehicle>
	<vehicle depart="0.1" departLane="2" departPos="83.00729976564976" departSpeed="19.1323" id="518" type="passenger">
		<route edges="24"/>
	</vehicle>
	<vehicle depart="0.1" departLane="0" departPos="56.69018793223352" departSpeed="18.2971" id="520" type="passenger">
		<route edges="24"/>
	</vehicle>
	<vehicle depart="0.1" departLane="1" departPos="53.1547472356168" departSpeed="18.2789" id="522" type="passenger">
		<route edges="24 24"/>
	</vehicle>
	<vehicle depart="0.1" departLane="3" departPos="22.912469550649078" departSpeed="15.24" id="523" type="passenger">
		<route edges="24"/>
	</vehicle>
	<vehicle depart="0.1" departLane="3" departPos="0" departSpeed="17.9283" id="525" type="passenger">
		<route edges="24 24 24 24 24 24 24"/>
	</vehicle>
	<vehicle depart="0.1" departLane="2" departPos="16.85971136028607" departSpeed="17.1389" id="526" type="passenger">
		<route edges="24"/>
	</vehicle>
	<vehicle depart="0.1" departLane="3" departPos="0" departSpeed="16.2611" id="529" type="passenger">
		<route edges="24 24"/>
	</vehicle>
	<vehicle depart="0.1" departLane="2" departPos="0" departSpeed="17.5931" id="533" type="passenger">
		<route edges="24"/>
	</vehicle>
	<vehicle depart="0.1" departLane="2" departPos="22.573518376045254" departSpeed="17.1359" id="542" type="passenger">
		<route edges="39 24"/>
	</vehicle>
	<vehicle depart="0.1" departLane="3" departPos="20.6327139872749" departSpeed="15.8709" id="543" type="passenger">
		<route edges="39 24"/>
	</vehicle>
	<vehicle depart="0.1" departLane="4" departPos="25.200974365971575" departSpeed="16.8219" id="544" type="passenger">
		<route edges="39 24"/>
	</vehicle>
	<vehicle depart="0.1" departLane="1" departPos="36.01028692486296" departSpeed="17.4254" id="545" type="passenger">
		<route edges="39 24"/>
	</vehicle>
	<vehicle depart="0.1" departLane="1" departPos="11.577815059475471" departSpeed="16.3678" id="546" type="passenger">
		<route edges="39 24"/>
	</vehicle>
	<vehicle depart="0.1" departLane="0" departPos="15.220642869468893" departSpeed="18.7543" id="549" type="passenger">
		<route edges="39 24"/>
	</vehicle>
</routes>
