<routes>
	<vehicle depart="0.1" departLane="0" departPos="12.362716462049146" departSpeed="1.5532909" id="37" type="passenger">
		<route edges=":19_5 21964"/>
	</vehicle>
	<vehicle depart="0.1" departLane="0" departPos="18.959995963195066" departSpeed="0.7585721" id="39" type="passenger">
		<route edges=":19_11 21968"/>
	</vehicle>
	<vehicle depart="0.1" departLane="0" departPos="39.84122667161092" departSpeed="0.14180037" id="310" type="passenger">
		<route edges="22052 21968"/>
	</vehicle>
	<vehicle depart="0.1" departLane="0" departPos="27.3684365081932" departSpeed="6.1449979" id="317" type="passenger">
		<route edges=":19_8 22049"/>
	</vehicle>
	<vehicle depart="0.1" departLane="0" departPos="12.480332126024651" departSpeed="0.40469544" id="328" type="passenger">
		<route edges=":19_6 22053"/>
	</vehicle>
	<vehicle depart="0.1" departLane="0" departPos="12.86192661378029" departSpeed="3.8600722" id="329" type="passenger">
		<route edges="22593 21967 22053"/>
	</vehicle>
	<vehicle depart="0.1" departLane="0" departPos="12.985619246291284" departSpeed="0.47789732" id="330" type="passenger">
		<route edges="21965 21968 22924"/>
	</vehicle>
	<vehicle depart="0.1" departLane="0" departPos="30.204652787351687" departSpeed="10.047068" id="325" type="motorcycle">
		<route edges=":19_2 22053"/>
	</vehicle>
	<vehicle depart="0.1" departLane="0" departPos="6.782490431624645" departSpeed="3.6199352" id="327" type="motorcycle">
		<route edges="21967 21964"/>
	</vehicle>
</routes>
