<routes>
	<vehicle depart="0.1" departLane="0" departPos="9.195896530736576" departSpeed="0.0" id="313" type="bicycle">
		<route edges="52550 54894"/>
	</vehicle>
	<vehicle depart="0.1" departLane="1" departPos="6.2" departSpeed="1.6646001" id="332" type="bus">
		<route edges="52154 52162"/>
	</vehicle>
	<vehicle depart="0.1" departLane="0" departPos="14.477271255560083" departSpeed="0.0" id="336" type="bus">
		<route edges="52162 54405"/>
	</vehicle>
	<vehicle depart="0.1" departLane="1" departPos="14.133061901117516" departSpeed="1.8851711" id="317" type="passenger">
		<route edges="52162 54245"/>
	</vehicle>
	<vehicle depart="0.1" departLane="1" departPos="12.773545604636366" departSpeed="1.7864766" id="328" type="passenger">
		<route edges="52154 52162 54245"/>
	</vehicle>
	<vehicle depart="0.1" departLane="0" departPos="13.666124643512799" departSpeed="0.23269732" id="337" type="passenger">
		<route edges="52154 52162"/>
	</vehicle>
	<vehicle depart="0.1" departLane="0" departPos="29.045615091009957" departSpeed="11.568454" id="339" type="passenger">
		<route edges=":28_5 54894 52152 54918"/>
	</vehicle>
	<vehicle depart="0.1" departLane="0" departPos="2.5" departSpeed="13.258926" id="343" type="passenger">
		<route edges=":28_5 54894 52152 54918"/>
	</vehicle>
	<vehicle depart="0.1" departLane="0" departPos="29.276845359133933" departSpeed="4.3351942" id="345" type="passenger">
		<route edges="55041 52154 52162"/>
	</vehicle>
	<vehicle depart="0.1" departLane="0" departPos="5.177888880061708" departSpeed="0.92983196" id="39" type="motorcycle">
		<route edges="54245 52540"/>
	</vehicle>
</routes>
