<!-- generated on Tue Feb  9 22:12:23 2021 by Eclipse SUMO netconvert Version 1.8.0
<configuration xmlns:xsi="http://www.w3.org/2001/XMLSchema-instance" xsi:noNamespaceSchemaLocation="http://sumo.dlr.de/xsd/netconvertConfiguration.xsd">

    <input>
        <node-files value="./converted_scenarios/scenario-factory/GRC_Perama-4_2_I-1-1/GRC_Perama-4_2_I-1-1.nod.xml"/>
        <edge-files value="./converted_scenarios/scenario-factory/GRC_Perama-4_2_I-1-1/GRC_Perama-4_2_I-1-1.edg.xml"/>
        <connection-files value="./converted_scenarios/scenario-factory/GRC_Perama-4_2_I-1-1/GRC_Perama-4_2_I-1-1.con.xml"/>
        <tllogic-files value="./converted_scenarios/scenario-factory/GRC_Perama-4_2_I-1-1/GRC_Perama-4_2_I-1-1.tll.xml"/>
        <type-files value="/home/zen/commonroad-interactive-benchmarks/install/commonroad-map-tool/crmapconverter/sumo_map/templates/DEU.typ.xml"/>
    </input>

    <output>
        <output-file value="./converted_scenarios/scenario-factory/GRC_Perama-4_2_I-1-1/GRC_Perama-4_2_I-1-1.net.xml"/>
    </output>

    <processing>
        <geometry.remove.keep-edges.explicit value="true"/>
        <geometry.avoid-overlap value="true"/>
        <offset.disable-normalization value="true"/>
    </processing>

    <junctions>
        <no-turnarounds value="true"/>
        <junctions.internal-link-detail value="20"/>
    </junctions>

    <report>
        <aggregate-warnings value="5"/>
    </report>

    <random_number>
        <seed value="1234"/>
    </random_number>

</configuration>
--><net xmlns:xsi="http://www.w3.org/2001/XMLSchema-instance" version="1.6" junctionCornerDetail="5" junctionLinkDetail="20" limitTurnSpeed="5.50" xsi:noNamespaceSchemaLocation="http://sumo.dlr.de/xsd/net_file.xsd">

    <location netOffset="0.00,0.00" convBoundary="-311.16,-794.58,-83.09,-571.12" origBoundary="-311.16,-794.58,-83.09,-571.12" projParameter="!"/>

    <type id="highway.bridleway" priority="1" speed="2.78" allow="pedestrian" oneway="1" width="2.00"/>
    <type id="highway.bus_guideway" priority="1" speed="27.78" allow="bus" oneway="1"/>
    <type id="highway.cycleway" priority="1" speed="8.33" allow="bicycle" oneway="0" width="1.00"/>
    <type id="highway.footway" priority="1" speed="2.78" allow="pedestrian" oneway="1" width="2.00"/>
    <type id="highway.ford" priority="1" speed="2.78" allow="army" oneway="0"/>
    <type id="highway.living_street" priority="2" speed="2.78" disallow="tram rail_urban rail rail_electric rail_fast ship" oneway="0"/>
    <type id="highway.motorway" priority="14" speed="39.44" allow="private emergency authority army vip passenger hov taxi bus coach delivery truck trailer motorcycle evehicle custom1 custom2" oneway="1"/>
    <type id="highway.motorway_link" priority="9" speed="22.22" allow="private emergency authority army vip passenger hov taxi bus coach delivery truck trailer motorcycle evehicle custom1 custom2" oneway="1"/>
    <type id="highway.path" priority="1" speed="2.78" allow="pedestrian bicycle" oneway="0" width="2.00"/>
    <type id="highway.pedestrian" priority="1" speed="2.78" allow="pedestrian" oneway="1" width="2.00"/>
    <type id="highway.primary" priority="12" speed="27.78" disallow="pedestrian tram rail_urban rail rail_electric rail_fast ship" oneway="0"/>
    <type id="highway.primary_link" priority="7" speed="22.22" disallow="pedestrian tram rail_urban rail rail_electric rail_fast ship" oneway="0"/>
    <type id="highway.raceway" priority="15" speed="83.33" allow="vip" oneway="0"/>
    <type id="highway.residential" priority="3" speed="13.89" disallow="pedestrian tram rail_urban rail rail_electric rail_fast ship" oneway="0"/>
    <type id="highway.secondary" priority="11" speed="27.78" disallow="pedestrian tram rail_urban rail rail_electric rail_fast ship" oneway="0"/>
    <type id="highway.secondary_link" priority="6" speed="22.22" disallow="pedestrian tram rail_urban rail rail_electric rail_fast ship" oneway="0"/>
    <type id="highway.service" priority="1" speed="5.56" allow="pedestrian delivery bicycle" oneway="0"/>
    <type id="highway.stairs" priority="1" speed="1.39" allow="pedestrian" oneway="1" width="2.00"/>
    <type id="highway.step" priority="1" speed="1.39" allow="pedestrian" oneway="1" width="2.00"/>
    <type id="highway.steps" priority="1" speed="1.39" allow="pedestrian" oneway="1" width="2.00"/>
    <type id="highway.tertiary" priority="10" speed="22.22" disallow="pedestrian tram rail_urban rail rail_electric rail_fast ship" oneway="0"/>
    <type id="highway.tertiary_link" priority="5" speed="22.22" disallow="pedestrian tram rail_urban rail rail_electric rail_fast ship" oneway="0"/>
    <type id="highway.track" priority="1" speed="5.56" allow="pedestrian motorcycle moped bicycle" oneway="0"/>
    <type id="highway.trunk" priority="13" speed="27.78" disallow="pedestrian bicycle tram rail_urban rail rail_electric rail_fast ship" oneway="0"/>
    <type id="highway.trunk_link" priority="8" speed="22.22" disallow="pedestrian bicycle tram rail_urban rail rail_electric rail_fast ship" oneway="0"/>
    <type id="highway.unclassified" priority="4" speed="13.89" disallow="pedestrian tram rail_urban rail rail_electric rail_fast ship" oneway="0"/>
    <type id="highway.unsurfaced" priority="1" speed="8.33" disallow="tram rail_urban rail rail_electric rail_fast ship" oneway="0"/>
    <type id="railway.highspeed" priority="21" speed="69.44" allow="rail_fast" oneway="1"/>
    <type id="railway.light_rail" priority="19" speed="27.78" allow="rail_urban" oneway="1"/>
    <type id="railway.preserved" priority="16" speed="27.78" allow="rail" oneway="1"/>
    <type id="railway.rail" priority="20" speed="44.44" allow="rail" oneway="1"/>
    <type id="railway.subway" priority="18" speed="27.78" allow="rail_urban" oneway="1"/>
    <type id="railway.tram" priority="17" speed="13.89" allow="tram" oneway="1"/>

    <edge id=":45_0" function="internal">
        <lane id=":45_0_0" index="0" disallow="pedestrian tram rail_urban rail rail_electric rail_fast ship" speed="14.32" length="24.57" width="3.49" shape="-160.36,-665.02 -164.39,-665.70 -168.47,-666.12 -171.54,-666.21 -174.61,-666.03 -176.63,-665.72 -178.62,-665.23 -180.54,-664.52 -182.35,-663.55 -183.98,-662.32"/>
    </edge>
    <edge id=":45_1" function="internal">
        <lane id=":45_1_0" index="0" disallow="pedestrian tram rail_urban rail rail_electric rail_fast ship" speed="13.03" length="32.68" width="3.50" shape="-160.36,-665.02 -161.57,-665.28 -163.94,-665.95 -166.28,-666.83 -168.54,-667.96 -170.66,-669.37 -172.61,-671.04 -174.31,-672.97 -175.73,-675.10 -176.85,-677.38 -177.70,-679.76 -178.30,-682.19 -178.68,-684.65 -178.90,-688.29"/>
    </edge>
    <edge id=":45_2" function="internal">
        <lane id=":45_2_0" index="0" disallow="pedestrian tram rail_urban rail rail_electric rail_fast ship" speed="12.06" length="27.89" width="3.50" shape="-175.41,-688.35 -175.21,-685.14 -174.88,-683.01 -174.38,-680.93 -173.66,-678.90 -172.72,-676.98 -171.53,-675.19 -170.12,-673.57 -168.50,-672.17 -166.71,-670.98 -164.79,-670.02 -162.79,-669.26 -160.72,-668.68 -159.68,-668.45"/>
    </edge>
    <edge id=":45_3" function="internal">
        <lane id=":45_3_0" index="0" disallow="pedestrian tram rail_urban rail rail_electric rail_fast ship" speed="16.36" length="28.24" width="3.49" shape="-175.41,-688.35 -175.50,-683.83 -175.93,-679.33 -176.55,-676.00 -177.45,-672.73 -178.70,-669.58 -179.74,-667.58 -180.97,-665.68 -182.39,-663.92 -183.98,-662.32"/>
    </edge>
    <edge id=":45_4" function="internal">
        <lane id=":45_4_0" index="0" disallow="pedestrian tram rail_urban rail rail_electric rail_fast ship" speed="15.23" length="25.24" width="3.50" shape="-186.31,-664.93 -184.95,-666.30 -183.74,-667.83 -182.68,-669.49 -181.78,-671.24 -180.69,-674.06 -179.90,-677.00 -179.37,-680.02 -178.98,-684.15 -178.90,-688.29"/>
    </edge>
    <edge id=":45_5" function="internal">
        <lane id=":45_5_0" index="0" disallow="pedestrian tram rail_urban rail rail_electric rail_fast ship" speed="15.44" length="27.80" width="3.50" shape="-186.31,-664.93 -184.37,-666.41 -182.25,-667.58 -180.01,-668.45 -177.73,-669.06 -175.41,-669.45 -171.98,-669.69 -168.56,-669.63 -164.08,-669.19 -159.68,-668.45"/>
    </edge>
    <edge id=":46_0" function="internal">
        <lane id=":46_0_0" index="0" disallow="pedestrian tram rail_urban rail rail_electric rail_fast ship" speed="10.13" length="32.28" width="3.50" shape="-179.22,-711.87 -179.40,-715.60 -179.68,-718.06 -180.16,-720.50 -180.49,-721.70 -180.89,-722.88 -181.37,-724.02 -181.96,-725.11 -182.66,-726.14 -183.49,-727.06 -184.44,-727.85 -185.52,-728.47 -186.68,-728.91 -187.89,-729.16 -189.13,-729.25 -190.37,-729.19 -191.60,-729.01 -194.00,-728.39 -196.32,-727.51 -198.57,-726.44"/>
    </edge>
    <edge id=":46_1" function="internal">
        <lane id=":46_1_0" index="0" disallow="pedestrian tram rail_urban rail rail_electric rail_fast ship" speed="11.66" length="29.23" width="3.50" shape="-179.22,-711.87 -179.16,-716.96 -178.90,-720.76 -178.39,-724.54 -177.86,-727.02 -177.11,-729.45 -176.08,-731.78 -175.43,-732.87 -174.67,-733.88 -173.79,-734.80 -172.78,-735.57 -171.67,-736.18 -170.47,-736.59 -169.21,-736.81"/>
    </edge>
    <edge id=":46_2" function="internal">
        <lane id=":46_2_0" index="0" disallow="pedestrian tram rail_urban rail rail_electric rail_fast ship" speed="10.56" length="24.10" width="3.50" shape="-168.81,-733.33 -169.66,-733.19 -170.44,-732.90 -171.16,-732.44 -171.82,-731.84 -172.41,-731.12 -172.93,-730.29 -173.38,-729.42 -174.14,-727.43 -174.69,-725.34 -175.09,-723.19 -175.48,-719.85 -175.68,-716.47 -175.72,-711.93"/>
    </edge>
    <edge id=":46_3" function="internal">
        <lane id=":46_3_0" index="0" disallow="pedestrian tram rail_urban rail rail_electric rail_fast ship" speed="30.94" length="30.70" width="3.50" shape="-168.81,-733.33 -174.01,-732.76 -181.15,-731.68 -187.17,-730.43 -192.07,-729.07 -195.86,-727.69 -198.57,-726.44"/>
    </edge>
    <edge id=":46_4" function="internal">
        <lane id=":46_4_0" index="0" disallow="pedestrian tram rail_urban rail rail_electric rail_fast ship" speed="33.24" length="32.12" width="3.50" shape="-200.31,-729.48 -197.27,-730.89 -193.27,-732.36 -188.14,-733.79 -181.88,-735.10 -174.51,-736.22 -169.21,-736.81"/>
    </edge>
    <edge id=":46_5" function="internal">
        <lane id=":46_5_0" index="0" disallow="pedestrian tram rail_urban rail rail_electric rail_fast ship" speed="11.22" length="39.96" width="3.50" shape="-200.31,-729.48 -197.54,-730.80 -194.78,-731.86 -191.91,-732.62 -190.36,-732.86 -188.79,-732.96 -187.18,-732.87 -185.57,-732.57 -183.99,-732.02 -182.51,-731.21 -181.20,-730.18 -180.07,-728.98 -179.14,-727.67 -178.38,-726.30 -177.76,-724.88 -177.25,-723.45 -176.85,-721.99 -176.27,-719.12 -175.93,-716.22 -175.72,-711.93"/>
    </edge>
    <edge id=":47_0" function="internal">
        <lane id=":47_0_0" index="0" disallow="pedestrian tram rail_urban rail rail_electric rail_fast ship" speed="20.88" length="22.69" width="3.50" shape="-147.09,-727.08 -151.73,-729.29 -155.55,-730.87 -159.46,-732.18 -162.47,-732.92 -165.54,-733.36 -167.60,-733.41 -168.63,-733.35"/>
    </edge>
    <edge id=":47_1" function="internal">
        <lane id=":47_1_0" index="0" disallow="pedestrian tram rail_urban rail rail_electric rail_fast ship" speed="20.79" length="30.83" width="3.50" shape="-147.09,-727.07 -149.11,-728.36 -150.88,-729.88 -152.45,-731.55 -154.50,-734.16 -156.33,-736.90 -158.52,-740.64 -160.97,-745.43 -164.04,-752.25"/>
    </edge>
    <edge id=":47_2" function="internal">
        <lane id=":47_2_0" index="0" disallow="pedestrian tram rail_urban rail rail_electric rail_fast ship" speed="19.97" length="28.53" width="3.50" shape="-160.88,-753.75 -157.92,-747.14 -155.62,-742.62 -153.60,-739.10 -151.93,-736.55 -150.08,-734.13 -148.71,-732.63 -147.19,-731.29 -145.51,-730.20"/>
    </edge>
    <edge id=":47_3" function="internal">
        <lane id=":47_3_0" index="0" disallow="pedestrian tram rail_urban rail rail_electric rail_fast ship" speed="9.70" length="27.09" width="3.50" shape="-160.88,-753.75 -159.74,-750.83 -158.87,-747.97 -158.31,-745.03 -158.19,-743.53 -158.21,-742.04 -158.42,-740.55 -158.85,-739.12 -159.53,-737.79 -160.45,-736.61 -161.58,-735.63 -162.86,-734.86 -164.24,-734.27 -165.67,-733.84 -167.14,-733.54 -168.63,-733.35"/>
    </edge>
    <edge id=":47_4" function="internal">
        <lane id=":47_4_0" index="0" disallow="pedestrian tram rail_urban rail rail_electric rail_fast ship" speed="8.46" length="20.15" width="3.50" shape="-168.97,-736.83 -167.81,-736.99 -166.69,-737.22 -165.63,-737.55 -164.67,-737.98 -163.82,-738.52 -163.11,-739.19 -162.55,-739.98 -162.15,-740.89 -161.90,-741.89 -161.79,-742.96 -161.81,-744.09 -161.92,-745.22 -162.41,-747.60 -163.14,-749.94 -164.04,-752.25"/>
    </edge>
    <edge id=":47_5" function="internal">
        <lane id=":47_5_0" index="0" disallow="pedestrian tram rail_urban rail rail_electric rail_fast ship" speed="21.40" length="24.67" width="3.50" shape="-168.97,-736.83 -167.76,-736.91 -165.43,-736.86 -162.05,-736.40 -158.75,-735.61 -154.53,-734.22 -150.44,-732.54 -145.51,-730.20"/>
    </edge>
    <edge id=":48_0" function="internal">
        <lane id=":48_0_0" index="0" disallow="pedestrian tram rail_urban rail rail_electric rail_fast ship" speed="10.88" length="28.58" width="3.50" shape="-239.58,-672.21 -239.95,-673.27 -241.29,-676.48 -242.36,-678.44 -243.61,-680.27 -245.08,-681.92 -245.85,-682.61 -246.70,-683.25 -247.59,-683.81 -248.52,-684.28 -249.49,-684.66 -250.50,-684.96 -251.54,-685.16 -252.56,-685.28 -254.76,-685.28 -256.95,-684.99 -259.14,-684.46 -261.31,-683.74"/>
    </edge>
    <edge id=":48_1" function="internal">
        <lane id=":48_1_0" index="0" disallow="pedestrian tram rail_urban rail rail_electric rail_fast ship" speed="15.06" length="32.94" width="3.50" shape="-239.58,-672.21 -239.94,-673.36 -240.71,-676.75 -240.99,-679.12 -241.07,-681.49 -240.92,-683.86 -240.55,-686.21 -239.95,-688.51 -239.15,-690.76 -237.62,-693.93 -235.75,-696.89 -233.60,-699.63 -231.24,-702.19"/>
    </edge>
    <edge id=":48_2" function="internal">
        <lane id=":48_2_0" index="0" disallow="pedestrian tram rail_urban rail rail_electric rail_fast ship" speed="14.19" length="29.17" width="3.50" shape="-228.70,-699.78 -230.89,-697.42 -232.82,-694.97 -234.49,-692.34 -235.85,-689.54 -236.56,-687.59 -237.08,-685.58 -237.42,-683.53 -237.55,-681.46 -237.50,-679.39 -237.25,-677.33 -236.56,-674.29 -236.26,-673.30"/>
    </edge>
    <edge id=":48_3" function="internal">
        <lane id=":48_3_0" index="0" disallow="pedestrian tram rail_urban rail rail_electric rail_fast ship" speed="36.02" length="36.51" width="3.50" shape="-228.70,-699.77 -230.39,-698.29 -233.03,-696.46 -236.73,-694.32 -242.49,-691.46 -250.34,-688.04 -260.30,-684.12 -261.31,-683.74"/>
    </edge>
    <edge id=":48_4" function="internal">
        <lane id=":48_4_0" index="0" disallow="pedestrian tram rail_urban rail rail_electric rail_fast ship" speed="35.27" length="35.05" width="3.50" shape="-262.65,-686.97 -261.56,-687.39 -251.84,-691.20 -244.21,-694.51 -238.65,-697.25 -235.12,-699.27 -232.67,-700.95 -231.24,-702.19"/>
    </edge>
    <edge id=":48_5" function="internal">
        <lane id=":48_5_0" index="0" disallow="pedestrian tram rail_urban rail rail_electric rail_fast ship" speed="11.90" length="34.45" width="3.50" shape="-262.65,-686.97 -260.02,-687.86 -257.45,-688.48 -254.84,-688.83 -252.20,-688.84 -250.89,-688.70 -249.59,-688.45 -248.32,-688.08 -247.09,-687.60 -245.91,-687.01 -244.79,-686.32 -243.74,-685.53 -242.75,-684.65 -240.99,-682.69 -239.49,-680.51 -238.22,-678.20 -236.69,-674.55 -236.26,-673.30"/>
    </edge>
    <edge id=":49_0" function="internal">
        <lane id=":49_0_0" index="0" disallow="pedestrian tram rail_urban rail rail_electric rail_fast ship" speed="36.11" length="48.63" width="3.50" shape="-184.14,-662.18 -185.62,-660.80 -188.39,-657.88 -191.58,-653.97 -194.53,-649.83 -199.56,-642.03 -204.12,-635.06 -207.25,-630.80 -210.68,-626.75 -213.67,-623.73"/>
    </edge>
    <edge id=":49_1" function="internal">
        <lane id=":49_1_0" index="0" disallow="pedestrian tram rail_urban rail rail_electric rail_fast ship" speed="36.11" length="49.72" width="3.50" shape="-184.14,-662.17 -185.24,-661.38 -187.19,-660.32 -191.02,-658.62 -198.71,-655.68 -211.28,-651.32 -230.71,-645.03"/>
    </edge>
    <edge id=":49_2" function="internal">
        <lane id=":49_2_0" index="0" disallow="pedestrian tram rail_urban rail rail_electric rail_fast ship" speed="36.11" length="48.27" width="3.49" shape="-231.78,-648.36 -212.65,-654.55 -200.30,-658.80 -192.79,-661.64 -189.10,-663.24 -187.33,-664.17 -186.47,-664.78"/>
    </edge>
    <edge id=":49_3" function="internal">
        <lane id=":49_3_0" index="0" disallow="pedestrian tram rail_urban rail rail_electric rail_fast ship" speed="13.28" length="76.16" width="3.50" shape="-231.78,-648.36 -223.32,-650.90 -214.79,-653.09 -209.03,-654.26 -206.13,-654.70 -203.21,-654.99 -200.27,-655.06 -197.36,-654.76 -194.66,-653.68 -193.09,-651.33 -193.30,-648.44 -194.41,-645.73 -195.91,-643.20 -197.60,-640.80 -199.41,-638.49 -203.28,-634.07 -207.35,-629.84 -213.67,-623.73"/>
    </edge>
    <edge id=":49_4" function="internal">
        <lane id=":49_4_0" index="0" disallow="pedestrian tram rail_urban rail rail_electric rail_fast ship" speed="12.13" length="63.12" width="3.50" shape="-216.08,-626.26 -210.50,-631.66 -206.94,-635.37 -203.57,-639.24 -202.02,-641.21 -200.59,-643.25 -199.39,-645.31 -198.55,-647.31 -198.30,-649.04 -199.26,-650.24 -201.08,-650.76 -203.34,-650.94 -205.77,-650.86 -208.26,-650.60 -210.75,-650.22 -215.78,-649.20 -223.27,-647.26 -230.71,-645.03"/>
    </edge>
    <edge id=":49_5" function="internal">
        <lane id=":49_5_0" index="0" disallow="pedestrian tram rail_urban rail rail_electric rail_fast ship" speed="36.11" length="48.73" width="3.49" shape="-216.08,-626.26 -213.16,-629.21 -209.81,-633.16 -206.75,-637.34 -202.21,-644.27 -197.16,-652.11 -194.15,-656.32 -190.88,-660.34 -188.02,-663.34 -186.48,-664.78"/>
    </edge>

    <edge id="66070" from="45" to="46" priority="3" type="highway.residential" spreadType="center" length="23.59" shape="-175.84,-672.63 -183.69,-724.79">
        <lane id="66070_0" index="0" disallow="pedestrian tram rail_urban rail rail_electric rail_fast ship" speed="36.11" length="23.59" width="3.50" customShape="1" shape="-178.90,-688.29 -179.06,-700.09 -179.22,-711.88"/>
    </edge>
    <edge id="66071" from="46" to="45" priority="3" type="highway.residential" spreadType="center" length="23.59" shape="-180.23,-725.31 -172.38,-673.15">
        <lane id="66071_0" index="0" disallow="pedestrian tram rail_urban rail rail_electric rail_fast ship" speed="36.11" length="23.59" width="3.50" customShape="1" shape="-175.72,-711.93 -175.56,-700.14 -175.40,-688.34"/>
    </edge>
    <edge id="66085" from="28" to="45" priority="3" type="highway.residential" spreadType="center" length="70.04" shape="-125.25,-618.66 -175.41,-671.72">
        <lane id="66085_0" index="0" disallow="pedestrian tram rail_urban rail rail_electric rail_fast ship" speed="36.11" length="70.04" width="3.50" customShape="1" shape="-125.25,-618.66 -126.77,-619.70 -135.56,-624.83 -139.44,-627.26 -142.31,-629.36 -144.60,-631.38 -146.34,-633.24 -147.86,-635.28 -149.13,-637.48 -149.56,-638.40 -150.12,-639.82 -150.55,-641.28 -150.70,-642.80 -150.55,-644.32 -150.00,-646.27 -148.92,-648.57 -147.90,-650.34 -147.12,-651.65 -146.37,-652.98 -145.72,-654.36 -145.27,-655.82 -145.20,-656.83 -145.41,-657.82 -145.87,-658.73 -146.76,-659.97 -147.87,-661.01 -149.13,-661.87 -150.97,-662.74 -153.87,-663.67 -160.40,-665.03"/>
    </edge>
    <edge id="66086" from="45" to="13" priority="3" type="highway.residential" spreadType="center" length="70.00" shape="-172.86,-674.12 -123.89,-621.96">
        <lane id="66086_0" index="0" disallow="pedestrian tram rail_urban rail rail_electric rail_fast ship" speed="36.11" length="70.00" width="3.50" customShape="1" shape="-159.68,-668.45 -153.08,-667.08 -149.99,-666.11 -147.94,-665.19 -146.44,-664.29 -145.06,-663.17 -143.87,-661.85 -143.18,-660.84 -142.65,-659.66 -142.35,-658.39 -142.22,-656.60 -142.39,-654.85 -142.80,-653.20 -143.38,-651.63 -144.28,-649.69 -145.40,-647.44 -146.15,-645.72 -146.55,-644.49 -146.79,-643.31 -146.84,-642.19 -146.70,-641.04 -146.50,-640.33 -145.50,-638.22 -144.24,-636.28 -142.74,-634.49 -140.65,-632.53 -137.93,-630.47 -134.14,-628.07 -125.31,-622.91 -123.89,-621.96"/>
    </edge>
    <edge id="66094" from="49" to="45" priority="3" type="highway.residential" spreadType="center" length="0.27" shape="-211.61,-646.39 -175.17,-674.28">
        <lane id="66094_0" index="0" disallow="pedestrian tram rail_urban rail rail_electric rail_fast ship" speed="36.11" length="0.27" width="3.49" customShape="1" shape="-186.51,-664.75 -186.41,-664.84 -186.31,-664.93"/>
    </edge>
    <edge id="66095" from="45" to="49" priority="3" type="highway.residential" spreadType="center" length="0.30" shape="-173.04,-671.51 -209.48,-643.62">
        <lane id="66095_0" index="0" disallow="pedestrian tram rail_urban rail rail_electric rail_fast ship" speed="36.11" length="0.30" width="3.49" customShape="1" shape="-183.98,-662.32 -184.07,-662.24 -184.21,-662.12"/>
    </edge>
    <edge id="66097" from="44" to="49" priority="3" type="highway.residential" spreadType="center" length="70.04" shape="-260.93,-573.77 -211.92,-646.05">
        <lane id="66097_0" index="0" disallow="pedestrian tram rail_urban rail rail_electric rail_fast ship" speed="36.11" length="70.04" width="3.50" customShape="1" shape="-260.93,-573.77 -260.86,-573.89 -255.97,-584.37 -253.38,-589.25 -250.98,-593.08 -248.57,-596.31 -246.23,-598.94 -243.33,-601.72 -238.72,-605.60 -232.92,-610.43 -228.21,-614.96 -216.06,-626.29"/>
    </edge>
    <edge id="66098" from="49" to="34" priority="3" type="highway.residential" spreadType="center" length="70.00" shape="-209.02,-644.09 -258.34,-571.12">
        <lane id="66098_0" index="0" disallow="pedestrian tram rail_urban rail rail_electric rail_fast ship" speed="36.11" length="70.00" width="3.50" customShape="1" shape="-213.67,-623.73 -225.87,-612.35 -230.64,-607.77 -236.51,-602.89 -241.09,-599.03 -243.90,-596.32 -246.13,-593.76 -248.42,-590.62 -250.72,-586.85 -253.23,-581.99 -258.16,-571.46 -258.34,-571.12"/>
    </edge>
    <edge id="66310" from="47" to="23" priority="3" type="highway.residential" spreadType="center" length="70.00" shape="-158.36,-740.44 -83.09,-698.51">
        <lane id="66310_0" index="0" disallow="pedestrian tram rail_urban rail rail_electric rail_fast ship" speed="36.11" length="70.00" width="3.50" customShape="1" shape="-145.51,-730.20 -108.43,-711.37 -83.09,-698.51"/>
    </edge>
    <edge id="66311" from="26" to="47" priority="3" type="highway.residential" spreadType="center" length="70.00" shape="-84.71,-695.41 -160.07,-737.38">
        <lane id="66311_0" index="0" disallow="pedestrian tram rail_urban rail rail_electric rail_fast ship" speed="36.11" length="70.00" width="3.50" customShape="1" shape="-84.71,-695.41 -110.01,-708.25 -147.13,-727.10"/>
    </edge>
    <edge id="66313" from="46" to="47" priority="3" type="highway.residential" spreadType="center" length="0.30" shape="-182.86,-726.49 -160.00,-740.44">
        <lane id="66313_0" index="0" disallow="pedestrian tram rail_urban rail rail_electric rail_fast ship" speed="36.11" length="0.30" width="3.50" customShape="1" shape="-169.21,-736.81 -169.09,-736.82 -168.91,-736.84"/>
    </edge>
    <edge id="66314" from="47" to="46" priority="3" type="highway.residential" spreadType="center" length="0.25" shape="-158.18,-737.46 -181.04,-723.50">
        <lane id="66314_0" index="0" disallow="pedestrian tram rail_urban rail rail_electric rail_fast ship" speed="36.11" length="0.25" width="3.50" customShape="1" shape="-168.63,-733.35 -168.88,-733.33"/>
    </edge>
    <edge id="66316" from="48" to="46" priority="3" type="highway.residential" spreadType="center" length="41.40" shape="-244.25,-687.82 -182.88,-726.47">
        <lane id="66316_0" index="0" disallow="pedestrian tram rail_urban rail rail_electric rail_fast ship" speed="36.11" length="41.40" width="3.50" customShape="1" shape="-231.24,-702.19 -226.30,-707.38 -216.00,-717.40 -211.08,-721.91 -207.08,-725.13 -203.29,-727.77 -200.31,-729.48"/>
    </edge>
    <edge id="66317" from="46" to="48" priority="3" type="highway.residential" spreadType="center" length="40.48" shape="-181.02,-723.51 -242.39,-684.86">
        <lane id="66317_0" index="0" disallow="pedestrian tram rail_urban rail rail_electric rail_fast ship" speed="36.11" length="40.48" width="3.50" customShape="1" shape="-198.57,-726.44 -201.51,-724.76 -205.13,-722.23 -208.97,-719.10 -213.76,-714.70 -223.88,-704.85 -228.77,-699.71"/>
    </edge>
    <edge id="66319" from="42" to="48" priority="3" type="highway.residential" spreadType="center" length="69.87" shape="-311.16,-641.20 -244.25,-687.82">
        <lane id="66319_0" index="0" disallow="pedestrian tram rail_urban rail rail_electric rail_fast ship" speed="36.11" length="69.87" width="3.50" customShape="1" shape="-311.16,-641.20 -309.04,-646.98 -306.68,-653.86 -305.53,-656.75 -304.29,-659.03 -302.44,-661.54 -300.02,-664.24 -296.97,-667.06 -293.29,-669.95 -285.61,-675.26 -280.32,-678.56 -274.85,-681.54 -268.76,-684.44 -262.65,-686.97"/>
    </edge>
    <edge id="66320" from="48" to="38" priority="3" type="highway.residential" spreadType="center" length="70.00" shape="-242.23,-684.96 -308.84,-637.14">
        <lane id="66320_0" index="0" disallow="pedestrian tram rail_urban rail rail_electric rail_fast ship" speed="36.11" length="70.00" width="3.50" customShape="1" shape="-261.31,-683.74 -267.28,-681.27 -273.13,-678.49 -278.38,-675.64 -283.46,-672.49 -290.88,-667.37 -294.39,-664.66 -297.27,-662.04 -299.55,-659.55 -301.25,-657.29 -302.35,-655.29 -303.41,-652.60 -305.70,-645.92 -308.48,-638.36 -308.84,-637.14"/>
    </edge>
    <edge id="66430" from="36" to="47" priority="3" type="highway.residential" spreadType="center" length="46.31" shape="-180.59,-794.58 -157.55,-739.52">
        <lane id="66430_0" index="0" disallow="pedestrian tram rail_urban rail rail_electric rail_fast ship" speed="36.11" length="46.31" width="3.50" customShape="1" shape="-180.59,-794.58 -180.32,-789.54 -179.84,-786.04 -179.08,-783.11 -178.15,-780.76 -176.71,-778.10 -174.69,-775.20 -171.52,-771.26 -168.09,-766.90 -166.15,-763.94 -162.76,-757.74 -160.88,-753.75"/>
    </edge>
    <edge id="66431" from="47" to="21" priority="3" type="highway.residential" spreadType="center" length="47.70" shape="-160.78,-738.18 -184.09,-794.42">
        <lane id="66431_0" index="0" disallow="pedestrian tram rail_urban rail rail_electric rail_fast ship" speed="36.11" length="47.70" width="3.50" customShape="1" shape="-164.04,-752.25 -165.97,-756.31 -169.35,-762.47 -171.28,-765.33 -174.76,-769.68 -177.97,-773.75 -180.04,-776.87 -181.53,-779.77 -182.51,-782.35 -183.30,-785.52 -183.81,-789.24 -184.09,-794.42"/>
    </edge>
    <edge id="66608" from="49" to="35" priority="3" type="highway.residential" spreadType="center" length="70.00" shape="-209.94,-643.38 -294.82,-617.07">
        <lane id="66608_0" index="0" disallow="pedestrian tram rail_urban rail rail_electric rail_fast ship" speed="36.11" length="70.00" width="3.50" customShape="1" shape="-230.71,-645.03 -232.62,-644.42 -239.72,-641.91 -246.70,-639.08 -262.63,-631.66 -278.81,-624.82 -287.06,-621.13 -293.32,-617.94 -294.82,-617.07"/>
    </edge>
    <edge id="66609" from="43" to="49" priority="3" type="highway.residential" spreadType="center" length="70.00" shape="-295.91,-620.49 -210.98,-646.73">
        <lane id="66609_0" index="0" disallow="pedestrian tram rail_urban rail rail_electric rail_fast ship" speed="36.11" length="70.00" width="3.50" customShape="1" shape="-295.91,-620.49 -295.05,-620.98 -288.67,-624.23 -280.32,-627.98 -264.05,-634.86 -248.02,-642.32 -240.92,-645.20 -233.72,-647.74 -231.76,-648.37"/>
    </edge>
    <edge id="66732" from="41" to="48" priority="3" type="highway.residential" spreadType="center" length="15.60" shape="-234.72,-657.39 -244.96,-685.87">
        <lane id="66732_0" index="0" disallow="pedestrian tram rail_urban rail rail_electric rail_fast ship" speed="36.11" length="15.60" width="3.50" customShape="1" shape="-234.72,-657.39 -237.15,-664.80 -239.58,-672.21"/>
    </edge>
    <edge id="66733" from="48" to="37" priority="3" type="highway.residential" spreadType="center" length="15.59" shape="-241.67,-687.05 -231.39,-658.49">
        <lane id="66733_0" index="0" disallow="pedestrian tram rail_urban rail rail_electric rail_fast ship" speed="36.11" length="15.59" width="3.50" customShape="1" shape="-236.26,-673.30 -233.82,-665.89 -231.39,-658.49"/>
    </edge>

    <junction id="13" type="dead_end" x="-123.89" y="-621.96" incLanes="66086_0" intLanes="" shape="-122.92,-623.42 -124.87,-620.51" rightOfWay="edgePriority"/>
    <junction id="21" type="dead_end" x="-184.09" y="-794.42" incLanes="66431_0" intLanes="" shape="-185.84,-794.33 -182.34,-794.52" rightOfWay="edgePriority"/>
    <junction id="23" type="dead_end" x="-83.09" y="-698.51" incLanes="66310_0" intLanes="" shape="-82.30,-700.07 -83.88,-696.95" rightOfWay="edgePriority"/>
    <junction id="26" type="dead_end" x="-84.71" y="-695.41" incLanes="" intLanes="" shape="-83.92,-696.97 -85.51,-693.85" rightOfWay="edgePriority"/>
    <junction id="28" type="dead_end" x="-125.25" y="-618.66" incLanes="" intLanes="" shape="-124.26,-620.10 -126.24,-617.22" rightOfWay="edgePriority"/>
    <junction id="34" type="dead_end" x="-258.34" y="-571.12" incLanes="66098_0" intLanes="" shape="-256.79,-570.30 -259.89,-571.94" rightOfWay="edgePriority"/>
    <junction id="35" type="dead_end" x="-294.82" y="-617.07" incLanes="66608_0" intLanes="" shape="-293.93,-615.56 -295.70,-618.58" rightOfWay="edgePriority"/>