<routes>
	<vehicle depart="0.1" departLane="0" departPos="30.616259275347442" departSpeed="0.078245085" id="31" type="passenger">
		<route edges="66311 66431"/>
	</vehicle>
	<vehicle depart="0.1" departLane="0" departPos="13.049073653823607" departSpeed="10.536823" id="33" type="passenger">
		<route edges=":46_4 66313"/>
	</vehicle>
	<vehicle depart="0.1" departLane="0" departPos="23.488411765483935" departSpeed="0.0" id="37" type="passenger">
		<route edges="66070 66313"/>
	</vehicle>
	<vehicle depart="0.1" departLane="0" departPos="16.53618183334893" departSpeed="0.00042587251" id="316" type="passenger">
		<route edges="66070 66313"/>
	</vehicle>
	<vehicle depart="0.1" departLane="0" departPos="19.726854037035384" departSpeed="15.849487" id="334" type="passenger">
		<route edges=":46_3 66317 66320"/>
	</vehicle>
	<vehicle depart="0.1" departLane="0" departPos="23.348541897239613" departSpeed="10.951852" id="347" type="passenger">
		<route edges=":47_3 66314 66071"/>
	</vehicle>
	<vehicle depart="0.1" departLane="0" departPos="11.071628949112526" departSpeed="7.0861333" id="355" type="passenger">
		<route edges=":46_3 66317"/>
	</vehicle>
	<vehicle depart="0.1" departLane="0" departPos="15.022021212555469" departSpeed="11.399902" id="359" type="passenger">
		<route edges=":47_2 66310"/>
	</vehicle>
	<vehicle depart="0.1" departLane="0" departPos="14.505964143031823" departSpeed="7.7062892" id="364" type="passenger">
		<route edges=":47_3 66314 66317"/>
	</vehicle>
	<vehicle depart="0.1" departLane="0" departPos="27.870020022246585" departSpeed="1.4706804" id="325" type="truck">
		<route edges=":47_1 66431"/>
	</vehicle>
</routes>
