<!-- generated on 2020-12-18 15:56:42.926686 by ipykernel_launcher.py v1_2_0+5214-53edc58fcd
-->
<connections>
	<connection contPos="-4.0" from="43165" fromLane="1" keepClear="true" to="43481" toLane="1"/>
	<connection contPos="-4.0" from="43165" fromLane="0" keepClear="true" to="43505" toLane="0"/>
	<connection contPos="-4.0" from="43165" fromLane="0" keepClear="true" to="43481" toLane="0"/>
	<connection contPos="-4.0" from="43199" fromLane="1" keepClear="true" to="43203" toLane="1"/>
	<connection contPos="-4.0" from="43199" fromLane="0" keepClear="true" to="43203" toLane="0"/>
	<connection contPos="-4.0" from="43203" fromLane="1" keepClear="true" to="43207" toLane="1"/>
	<connection contPos="-4.0" from="43203" fromLane="0" keepClear="true" to="43207" toLane="0"/>
	<connection contPos="-4.0" from="43207" fromLane="1" keepClear="true" to="43213" toLane="1"/>
	<connection contPos="-4.0" from="43207" fromLane="1" keepClear="true" to="43213" toLane="2"/>
	<connection contPos="-4.0" from="43207" fromLane="0" keepClear="true" to="43213" toLane="0"/>
	<connection contPos="-4.0" from="43213" fromLane="2" keepClear="true" to="43219" toLane="2"/>
	<connection contPos="-4.0" from="43213" fromLane="1" keepClear="true" to="43219" toLane="1"/>
	<connection contPos="-4.0" from="43213" fromLane="0" keepClear="true" to="43219" toLane="0"/>
	<connection contPos="-4.0" from="43223" fromLane="1" keepClear="true" to="43229" toLane="1"/>
	<connection contPos="-4.0" from="43223" fromLane="1" keepClear="true" to="43229" toLane="2"/>
	<connection contPos="-4.0" from="43223" fromLane="0" keepClear="true" to="43463" toLane="0"/>
	<connection contPos="-4.0" from="43223" fromLane="0" keepClear="true" to="43229" toLane="0"/>
	<connection contPos="-4.0" from="43229" fromLane="2" keepClear="true" to="43235" toLane="2"/>
	<connection contPos="-4.0" from="43229" fromLane="1" keepClear="true" to="43235" toLane="1"/>
	<connection contPos="-4.0" from="43229" fromLane="0" keepClear="true" to="43235" toLane="0"/>
	<connection contPos="-4.0" from="43235" fromLane="2" keepClear="true" to="43241" toLane="2"/>
	<connection contPos="-4.0" from="43235" fromLane="1" keepClear="true" to="43241" toLane="1"/>
	<connection contPos="-4.0" from="43235" fromLane="0" keepClear="true" to="43455" toLane="0"/>
	<connection contPos="-4.0" from="43235" fromLane="0" keepClear="true" to="43241" toLane="0"/>
	<connection contPos="-4.0" from="43241" fromLane="2" keepClear="true" to="43247" toLane="2"/>
	<connection contPos="-4.0" from="43241" fromLane="1" keepClear="true" to="43247" toLane="1"/>
	<connection contPos="-4.0" from="43241" fromLane="0" keepClear="true" to="43247" toLane="0"/>
	<connection contPos="-4.0" from="43247" fromLane="2" keepClear="true" to="43497" toLane="2"/>
	<connection contPos="-4.0" from="43247" fromLane="1" keepClear="true" to="43497" toLane="1"/>
	<connection contPos="-4.0" from="43247" fromLane="0" keepClear="true" to="43509" toLane="0"/>
	<connection contPos="-4.0" from="43247" fromLane="0" keepClear="true" to="43497" toLane="0"/>
	<connection contPos="-4.0" from="43453" fromLane="0" keepClear="true" to="43203" toLane="0"/>
	<connection contPos="-4.0" from="43455" fromLane="0" keepClear="true" to="43457" toLane="0"/>
	<connection contPos="-4.0" from="43459" fromLane="0" keepClear="true" to="43461" toLane="0"/>
	<connection contPos="-4.0" from="43461" fromLane="0" keepClear="true" to="43247" toLane="0"/>
	<connection contPos="-4.0" from="43463" fromLane="0" keepClear="true" to="43465" toLane="0"/>
	<connection contPos="-4.0" from="43467" fromLane="0" keepClear="true" to="43469" toLane="0"/>
	<connection contPos="-4.0" from="43469" fromLane="0" keepClear="true" to="43235" toLane="0"/>
	<connection contPos="-4.0" from="43471" fromLane="0" keepClear="true" to="43511" toLane="0"/>
	<connection contPos="-4.0" from="43471" fromLane="0" keepClear="true" to="43503" toLane="0"/>
	<connection contPos="-4.0" from="43477" fromLane="0" keepClear="true" to="43507" toLane="0"/>
	<connection contPos="-4.0" from="43477" fromLane="0" keepClear="true" to="43501" toLane="0"/>
	<connection contPos="-4.0" from="43481" fromLane="1" keepClear="true" to="43527" toLane="0"/>
	<connection contPos="-4.0" from="43481" fromLane="1" keepClear="true" to="43519" toLane="1"/>
	<connection contPos="-4.0" from="43481" fromLane="0" keepClear="true" to="43519" toLane="0"/>
	<connection contPos="-4.0" from="43487" fromLane="2" keepClear="true" to="43171" toLane="2"/>
	<connection contPos="-4.0" from="43487" fromLane="1" keepClear="true" to="43171" toLane="1"/>
	<connection contPos="-4.0" from="43487" fromLane="0" keepClear="true" to="43171" toLane="0"/>
	<connection contPos="-4.0" from="43491" fromLane="1" keepClear="true" to="43199" toLane="1"/>
	<connection contPos="-4.0" from="43491" fromLane="0" keepClear="true" to="43451" toLane="0"/>
	<connection contPos="-4.0" from="43491" fromLane="0" keepClear="true" to="43199" toLane="0"/>
	<connection contPos="-4.0" from="43497" fromLane="2" keepClear="true" to="43523" toLane="2"/>
	<connection contPos="-4.0" from="43497" fromLane="2" keepClear="true" to="43525" toLane="0"/>
	<connection contPos="-4.0" from="43497" fromLane="1" keepClear="true" to="43523" toLane="1"/>
	<connection contPos="-4.0" from="43497" fromLane="0" keepClear="true" to="43523" toLane="0"/>
	<connection contPos="-4.0" from="43499" fromLane="0" keepClear="true" to="43475" toLane="0"/>
	<connection contPos="-4.0" from="43501" fromLane="0" keepClear="true" to="43597" toLane="0"/>
	<connection contPos="-4.0" from="43501" fromLane="0" keepClear="true" to="43515" toLane="0"/>
	<connection contPos="-4.0" from="43503" fromLane="0" keepClear="true" to="43595" toLane="0"/>
	<connection contPos="-4.0" from="43503" fromLane="0" keepClear="true" to="43513" toLane="0"/>
	<connection contPos="-4.0" from="43505" fromLane="0" keepClear="true" to="43473" toLane="0"/>
	<connection contPos="-4.0" from="43507" fromLane="0" keepClear="true" to="43171" toLane="0"/>
	<connection contPos="-4.0" from="43509" fromLane="0" keepClear="true" to="43475" toLane="0"/>
	<connection contPos="-4.0" from="43511" fromLane="0" keepClear="true" to="43451" toLane="0"/>
	<connection contPos="-4.0" from="43511" fromLane="0" keepClear="true" to="43199" toLane="0"/>
	<connection contPos="-4.0" from="43513" fromLane="0" keepClear="true" to="43499" toLane="0"/>
	<connection contPos="-4.0" from="43515" fromLane="0" keepClear="true" to="43781" toLane="0"/>
	<connection contPos="-4.0" from="43519" fromLane="1" keepClear="true" to="43491" toLane="1"/>
	<connection contPos="-4.0" from="43519" fromLane="0" keepClear="true" to="43491" toLane="0"/>
	<connection contPos="-4.0" from="43523" fromLane="1" keepClear="true" to="43487" toLane="1"/>
	<connection contPos="-4.0" from="43523" fromLane="0" keepClear="true" to="43487" toLane="0"/>
	<connection contPos="-4.0" from="43525" fromLane="0" keepClear="true" to="43781" toLane="0"/>
	<connection contPos="-4.0" from="43527" fromLane="0" keepClear="true" to="43499" toLane="0"/>
	<connection contPos="-4.0" from="43595" fromLane="0" keepClear="true" to="43171" toLane="2"/>
	<connection contPos="-4.0" from="43597" fromLane="0" keepClear="true" to="43199" toLane="1"/>
	<connection contPos="-4.0" from="43781" fromLane="0" keepClear="true" to="43473" toLane="0"/>
	<connection contPos="-4.0" from="43523" fromLane="2" keepClear="true" to="43487" toLane="2"/>
</connections>
