<routes>
	<vehicle depart="0.1" departLane="0" departPos="23.849359942323584" departSpeed="2.6457" id="413" type="passenger">
		<route edges="43213 43219"/>
	</vehicle>
	<vehicle depart="0.1" departLane="0" departPos="0" departSpeed="4.761" id="415" type="passenger">
		<route edges="43213 43219"/>
	</vehicle>
	<vehicle depart="0.1" departLane="1" departPos="19.82596393364418" departSpeed="2.411" id="418" type="passenger">
		<route edges="43213 43219"/>
	</vehicle>
	<vehicle depart="0.1" departLane="2" departPos="0" departSpeed="5.5199" id="419" type="passenger">
		<route edges="43213 43213 43219"/>
	</vehicle>
	<vehicle depart="0.1" departLane="1" departPos="13.656697197276653" departSpeed="6.9159" id="420" type="passenger">
		<route edges="43203 43207 43213 43219"/>
	</vehicle>
	<vehicle depart="0.1" departLane="1" departPos="0" departSpeed="12.1737" id="423" type="passenger">
		<route edges="43491 43597 43199 43199 43453 43203 43203 43203 43207 43213 43219"/>
	</vehicle>
	<vehicle depart="0.1" departLane="2" departPos="19.58837233175664" departSpeed="9.9822" id="443" type="passenger">
		<route edges="43247 43199 43203 43207 43213 43219"/>
	</vehicle>
	<vehicle depart="0.1" departLane="1" departPos="0" departSpeed="10.8753" id="449" type="passenger">
		<route edges="43165 43481 43527 43519 43597 43497 43247 43199 43203 43207 43213 43219"/>
	</vehicle>
</routes>
