<routes>
	<vehicle depart="0.1" departLane="0" departPos="14.3040243903232" departSpeed="1.9720962" id="38" type="bicycle">
		<route edges=":25_4 108605"/>
	</vehicle>
	<vehicle depart="0.1" departLane="0" departPos="54.729959204725034" departSpeed="1.0104076" id="310" type="bicycle">
		<route edges="107265 108605"/>
	</vehicle>
	<vehicle depart="0.1" departLane="0" departPos="19.610752766599195" departSpeed="4.0349868" id="333" type="bicycle">
		<route edges="107264"/>
	</vehicle>
	<vehicle depart="0.1" departLane="0" departPos="48.78462468080963" departSpeed="0.10723503" id="313" type="passenger">
		<route edges="107265 108605"/>
	</vehicle>
	<vehicle depart="0.1" departLane="0" departPos="19.625927824064885" departSpeed="1.0678794" id="318" type="passenger">
		<route edges=":25_8 108605"/>
	</vehicle>
	<vehicle depart="0.1" departLane="0" departPos="62.48323345853391" departSpeed="0.77278884" id="319" type="passenger">
		<route edges="107265 108605"/>
	</vehicle>
	<vehicle depart="0.1" departLane="0" departPos="34.29176136293989" departSpeed="0.20921885" id="325" type="passenger">
		<route edges="107265 108605"/>
	</vehicle>
	<vehicle depart="0.1" departLane="0" departPos="2.5" departSpeed="10.425819" id="342" type="passenger">
		<route edges="108605 108118"/>
	</vehicle>
	<vehicle depart="0.1" departLane="0" departPos="21.60461434411263" departSpeed="7.8429529" id="345" type="passenger">
		<route edges=":25_0 108605 108118"/>
	</vehicle>
	<vehicle depart="0.1" departLane="0" departPos="47.36377456853804" departSpeed="0.26702318" id="322" type="truck">
		<route edges="108608 107264"/>
	</vehicle>
</routes>
