<!-- generated on Tue Feb  9 22:01:38 2021 by Eclipse SUMO netconvert Version 1.8.0
<configuration xmlns:xsi="http://www.w3.org/2001/XMLSchema-instance" xsi:noNamespaceSchemaLocation="http://sumo.dlr.de/xsd/netconvertConfiguration.xsd">

    <input>
        <node-files value="./converted_scenarios/scenario-factory/PRI_Barceloneta-3_2_I-1-1/PRI_Barceloneta-3_2_I-1-1.nod.xml"/>
        <edge-files value="./converted_scenarios/scenario-factory/PRI_Barceloneta-3_2_I-1-1/PRI_Barceloneta-3_2_I-1-1.edg.xml"/>
        <connection-files value="./converted_scenarios/scenario-factory/PRI_Barceloneta-3_2_I-1-1/PRI_Barceloneta-3_2_I-1-1.con.xml"/>
        <tllogic-files value="./converted_scenarios/scenario-factory/PRI_Barceloneta-3_2_I-1-1/PRI_Barceloneta-3_2_I-1-1.tll.xml"/>
        <type-files value="/home/zen/commonroad-interactive-benchmarks/install/commonroad-map-tool/crmapconverter/sumo_map/templates/DEU.typ.xml"/>
    </input>

    <output>
        <output-file value="./converted_scenarios/scenario-factory/PRI_Barceloneta-3_2_I-1-1/PRI_Barceloneta-3_2_I-1-1.net.xml"/>
    </output>

    <processing>
        <geometry.remove.keep-edges.explicit value="true"/>
        <geometry.avoid-overlap value="true"/>
        <offset.disable-normalization value="true"/>
    </processing>

    <junctions>
        <no-turnarounds value="true"/>
        <junctions.internal-link-detail value="20"/>
    </junctions>

    <report>
        <aggregate-warnings value="5"/>
    </report>

    <random_number>
        <seed value="1234"/>
    </random_number>

</configuration>
--><net xmlns:xsi="http://www.w3.org/2001/XMLSchema-instance" version="1.6" junctionCornerDetail="5" junctionLinkDetail="20" limitTurnSpeed="5.50" xsi:noNamespaceSchemaLocation="http://sumo.dlr.de/xsd/net_file.xsd">

    <location netOffset="0.00,0.00" convBoundary="-111.86,-562.76,229.72,-262.04" origBoundary="-111.86,-562.76,229.72,-262.04" projParameter="!"/>

    <type id="highway.bridleway" priority="1" speed="2.78" allow="pedestrian" oneway="1" width="2.00"/>
    <type id="highway.bus_guideway" priority="1" speed="27.78" allow="bus" oneway="1"/>
    <type id="highway.cycleway" priority="1" speed="8.33" allow="bicycle" oneway="0" width="1.00"/>
    <type id="highway.footway" priority="1" speed="2.78" allow="pedestrian" oneway="1" width="2.00"/>
    <type id="highway.ford" priority="1" speed="2.78" allow="army" oneway="0"/>
    <type id="highway.living_street" priority="2" speed="2.78" disallow="tram rail_urban rail rail_electric rail_fast ship" oneway="0"/>
    <type id="highway.motorway" priority="14" speed="39.44" allow="private emergency authority army vip passenger hov taxi bus coach delivery truck trailer motorcycle evehicle custom1 custom2" oneway="1"/>
    <type id="highway.motorway_link" priority="9" speed="22.22" allow="private emergency authority army vip passenger hov taxi bus coach delivery truck trailer motorcycle evehicle custom1 custom2" oneway="1"/>
    <type id="highway.path" priority="1" speed="2.78" allow="pedestrian bicycle" oneway="0" width="2.00"/>
    <type id="highway.pedestrian" priority="1" speed="2.78" allow="pedestrian" oneway="1" width="2.00"/>
    <type id="highway.primary" priority="12" speed="27.78" disallow="pedestrian tram rail_urban rail rail_electric rail_fast ship" oneway="0"/>
    <type id="highway.primary_link" priority="7" speed="22.22" disallow="pedestrian tram rail_urban rail rail_electric rail_fast ship" oneway="0"/>
    <type id="highway.raceway" priority="15" speed="83.33" allow="vip" oneway="0"/>
    <type id="highway.residential" priority="3" speed="13.89" disallow="pedestrian tram rail_urban rail rail_electric rail_fast ship" oneway="0"/>
    <type id="highway.secondary" priority="11" speed="27.78" disallow="pedestrian tram rail_urban rail rail_electric rail_fast ship" oneway="0"/>
    <type id="highway.secondary_link" priority="6" speed="22.22" disallow="pedestrian tram rail_urban rail rail_electric rail_fast ship" oneway="0"/>
    <type id="highway.service" priority="1" speed="5.56" allow="pedestrian delivery bicycle" oneway="0"/>
    <type id="highway.stairs" priority="1" speed="1.39" allow="pedestrian" oneway="1" width="2.00"/>
    <type id="highway.step" priority="1" speed="1.39" allow="pedestrian" oneway="1" width="2.00"/>
    <type id="highway.steps" priority="1" speed="1.39" allow="pedestrian" oneway="1" width="2.00"/>
    <type id="highway.tertiary" priority="10" speed="22.22" disallow="pedestrian tram rail_urban rail rail_electric rail_fast ship" oneway="0"/>
    <type id="highway.tertiary_link" priority="5" speed="22.22" disallow="pedestrian tram rail_urban rail rail_electric rail_fast ship" oneway="0"/>
    <type id="highway.track" priority="1" speed="5.56" allow="pedestrian motorcycle moped bicycle" oneway="0"/>
    <type id="highway.trunk" priority="13" speed="27.78" disallow="pedestrian bicycle tram rail_urban rail rail_electric rail_fast ship" oneway="0"/>
    <type id="highway.trunk_link" priority="8" speed="22.22" disallow="pedestrian bicycle tram rail_urban rail rail_electric rail_fast ship" oneway="0"/>
    <type id="highway.unclassified" priority="4" speed="13.89" disallow="pedestrian tram rail_urban rail rail_electric rail_fast ship" oneway="0"/>
    <type id="highway.unsurfaced" priority="1" speed="8.33" disallow="tram rail_urban rail rail_electric rail_fast ship" oneway="0"/>
    <type id="railway.highspeed" priority="21" speed="69.44" allow="rail_fast" oneway="1"/>
    <type id="railway.light_rail" priority="19" speed="27.78" allow="rail_urban" oneway="1"/>
    <type id="railway.preserved" priority="16" speed="27.78" allow="rail" oneway="1"/>
    <type id="railway.rail" priority="20" speed="44.44" allow="rail" oneway="1"/>
    <type id="railway.subway" priority="18" speed="27.78" allow="rail_urban" oneway="1"/>
    <type id="railway.tram" priority="17" speed="13.89" allow="tram" oneway="1"/>

    <edge id=":52_0" function="internal">
        <lane id=":52_0_0" index="0" disallow="pedestrian tram rail_urban rail rail_electric rail_fast ship" speed="36.11" length="0.10" width="3.50" shape="104.17,-431.69 104.17,-431.69"/>
    </edge>
    <edge id=":55_0" function="internal">
        <lane id=":55_0_0" index="0" disallow="pedestrian tram rail_urban rail rail_electric rail_fast ship" speed="36.11" length="3.00" width="3.50" shape="68.75,-299.63 68.39,-296.65"/>
    </edge>
    <edge id=":61_0" function="internal">
        <lane id=":61_0_0" index="0" disallow="pedestrian tram rail_urban rail rail_electric rail_fast ship" speed="36.11" length="3.00" width="3.50" shape="64.91,-297.08 65.28,-300.06"/>
    </edge>
    <edge id=":79_0" function="internal">
        <lane id=":79_0_0" index="0" disallow="pedestrian tram rail_urban rail rail_electric rail_fast ship" speed="36.11" length="2.66" width="3.49" shape="104.49,-427.90 104.30,-427.97 104.13,-428.02 103.98,-428.08 103.84,-428.13 103.71,-428.17 103.60,-428.21 103.49,-428.25 103.38,-428.28 103.28,-428.32 103.18,-428.35 103.08,-428.38 102.98,-428.41 102.86,-428.43 102.74,-428.46 102.61,-428.49 102.47,-428.52 102.31,-428.55 102.14,-428.58 101.94,-428.62"/>
    </edge>
    <edge id=":81_0" function="internal">
        <lane id=":81_0_0" index="0" disallow="pedestrian tram rail_urban rail rail_electric rail_fast ship" speed="36.11" length="34.17" width="3.50" shape="50.92,-473.52 47.26,-444.75 46.58,-439.63"/>
    </edge>
    <edge id=":81_1" function="internal">
        <lane id=":81_1_0" index="0" disallow="pedestrian tram rail_urban rail rail_electric rail_fast ship" speed="11.44" length="31.21" width="3.50" shape="50.92,-473.52 50.44,-470.80 49.64,-468.22 49.08,-466.98 48.42,-465.80 47.64,-464.70 46.74,-463.68 45.74,-462.77 44.65,-461.98 43.47,-461.31 42.24,-460.75 40.96,-460.31 38.32,-459.73 35.62,-459.49 32.92,-459.50 28.88,-459.90 27.51,-460.12"/>
    </edge>
    <edge id=":81_2" function="internal">
        <lane id=":81_2_0" index="0" disallow="pedestrian tram rail_urban rail rail_electric rail_fast ship" speed="10.35" length="25.42" width="3.50" shape="28.10,-463.57 29.28,-463.38 32.81,-463.02 35.10,-462.99 37.36,-463.18 39.56,-463.63 40.56,-463.95 41.54,-464.37 42.46,-464.87 43.31,-465.46 44.09,-466.13 44.78,-466.89 45.40,-467.72 45.93,-468.63 46.37,-469.56 47.05,-471.67 47.44,-473.92"/>
    </edge>
    <edge id=":81_3" function="internal">
        <lane id=":81_3_0" index="0" disallow="pedestrian tram rail_urban rail rail_electric rail_fast ship" speed="12.39" length="34.41" width="3.50" shape="28.10,-463.57 32.01,-462.70 34.52,-461.89 36.95,-460.84 39.24,-459.52 41.34,-457.91 42.29,-456.99 43.16,-455.99 43.94,-454.92 44.63,-453.80 45.22,-452.61 45.72,-451.39 46.43,-448.84 46.80,-446.22 46.88,-443.58 46.73,-440.94 46.58,-439.63"/>
    </edge>
    <edge id=":81_4" function="internal">
        <lane id=":81_4_0" index="0" disallow="pedestrian tram rail_urban rail rail_electric rail_fast ship" speed="11.40" length="28.98" width="3.50" shape="43.11,-440.08 43.24,-441.22 43.38,-443.52 43.30,-445.77 42.99,-447.97 42.38,-450.10 41.98,-451.07 41.50,-452.03 40.94,-452.94 40.31,-453.80 39.60,-454.60 38.85,-455.33 37.09,-456.68 35.17,-457.78 33.10,-458.66 30.94,-459.36 27.51,-460.12"/>
    </edge>
    <edge id=":81_5" function="internal">
        <lane id=":81_5_0" index="0" disallow="pedestrian tram rail_urban rail rail_electric rail_fast ship" speed="36.11" length="34.12" width="3.50" shape="43.11,-440.08 43.79,-445.21 47.44,-473.92"/>
    </edge>
    <edge id=":82_0" function="internal">
        <lane id=":82_0_0" index="0" disallow="pedestrian tram rail_urban rail rail_electric rail_fast ship" speed="10.87" length="29.62" width="3.50" shape="-5.72,-399.33 -9.14,-399.42 -11.41,-399.24 -13.65,-398.82 -14.75,-398.51 -15.81,-398.11 -16.84,-397.62 -17.83,-397.04 -18.75,-396.37 -19.59,-395.61 -20.35,-394.76 -21.03,-393.84 -21.61,-392.86 -22.10,-391.83 -22.51,-390.77 -23.09,-388.57 -23.42,-386.32 -23.54,-384.04 -23.50,-381.76"/>
    </edge>
    <edge id=":82_1" function="internal">
        <lane id=":82_1_0" index="0" disallow="pedestrian tram rail_urban rail rail_electric rail_fast ship" speed="12.61" length="35.26" width="3.50" shape="-5.72,-399.33 -9.62,-399.80 -12.17,-400.33 -14.68,-401.07 -17.10,-402.05 -19.39,-403.31 -21.48,-404.87 -22.43,-405.77 -23.31,-406.74 -24.10,-407.77 -24.81,-408.87 -25.97,-411.21 -26.79,-413.69 -27.30,-416.25 -27.54,-418.86 -27.57,-421.46"/>
    </edge>
    <edge id=":82_2" function="internal">
        <lane id=":82_2_0" index="0" disallow="pedestrian tram rail_urban rail rail_electric rail_fast ship" speed="11.64" length="29.89" width="3.50" shape="-24.07,-421.39 -24.05,-419.10 -23.83,-416.87 -23.40,-414.70 -22.71,-412.64 -21.73,-410.68 -21.16,-409.82 -20.51,-408.98 -19.79,-408.20 -19.03,-407.49 -17.27,-406.19 -15.35,-405.14 -13.28,-404.32 -11.12,-403.69 -8.90,-403.23 -5.46,-402.82"/>
    </edge>
    <edge id=":82_3" function="internal">
        <lane id=":82_3_0" index="0" disallow="pedestrian tram rail_urban rail rail_electric rail_fast ship" speed="36.11" length="39.64" width="3.50" shape="-24.07,-421.39 -24.24,-408.86 -24.04,-395.31 -23.50,-381.76"/>
    </edge>
    <edge id=":82_4" function="internal">
        <lane id=":82_4_0" index="0" disallow="pedestrian tram rail_urban rail rail_electric rail_fast ship" speed="36.11" length="39.89" width="3.50" shape="-26.99,-381.58 -27.54,-395.22 -27.74,-408.86 -27.57,-421.46"/>
    </edge>
    <edge id=":82_5" function="internal">
        <lane id=":82_5_0" index="0" disallow="pedestrian tram rail_urban rail rail_electric rail_fast ship" speed="11.89" length="35.70" width="3.50" shape="-26.99,-381.58 -27.04,-384.22 -26.90,-386.88 -26.51,-389.55 -25.81,-392.17 -25.30,-393.50 -24.69,-394.76 -23.97,-395.99 -23.12,-397.14 -22.15,-398.21 -21.08,-399.17 -19.93,-400.02 -18.70,-400.74 -17.42,-401.34 -16.11,-401.83 -14.76,-402.22 -12.10,-402.71 -9.41,-402.92 -5.46,-402.82"/>
    </edge>
    <edge id=":83_0" function="internal">
        <lane id=":83_0_0" index="0" disallow="pedestrian tram rail_urban rail rail_electric rail_fast ship" speed="11.13" length="28.66" width="3.50" shape="52.37,-346.37 50.06,-346.62 47.79,-346.70 45.56,-346.57 43.39,-346.20 41.30,-345.54 40.36,-345.12 39.44,-344.61 38.57,-344.02 37.75,-343.36 37.00,-342.62 36.31,-341.82 35.69,-340.98 34.60,-339.07 33.77,-337.03 33.14,-334.89 32.53,-331.48"/>
    </edge>
    <edge id=":83_1" function="internal">
        <lane id=":83_1_0" index="0" disallow="pedestrian tram rail_urban rail rail_electric rail_fast ship" speed="12.31" length="34.50" width="3.50" shape="52.37,-346.37 48.43,-347.13 45.89,-347.89 43.44,-348.91 41.13,-350.21 40.06,-350.98 39.04,-351.83 38.10,-352.77 37.24,-353.77 36.47,-354.85 35.80,-356.00 35.22,-357.19 34.36,-359.70 33.84,-362.30 33.63,-364.94 33.67,-367.59 33.91,-370.23"/>
    </edge>
    <edge id=":83_2" function="internal">
        <lane id=":83_2_0" index="0" disallow="pedestrian tram rail_urban rail rail_electric rail_fast ship" speed="11.30" length="28.99" width="3.50" shape="37.38,-369.81 37.17,-367.49 37.14,-365.21 37.32,-362.96 37.74,-360.79 38.47,-358.70 38.93,-357.76 39.47,-356.84 40.09,-355.97 40.78,-355.16 41.54,-354.41 42.37,-353.72 43.23,-353.10 45.17,-352.00 47.25,-351.15 49.41,-350.50 52.86,-349.84"/>
    </edge>
    <edge id=":83_3" function="internal">
        <lane id=":83_3_0" index="0" disallow="pedestrian tram rail_urban rail rail_electric rail_fast ship" speed="36.11" length="38.64" width="3.50" shape="37.38,-369.81 34.96,-350.65 32.53,-331.48"/>
    </edge>
    <edge id=":83_4" function="internal">
        <lane id=":83_4_0" index="0" disallow="pedestrian tram rail_urban rail rail_electric rail_fast ship" speed="36.11" length="38.62" width="3.50" shape="29.06,-331.92 31.48,-351.09 33.91,-370.23"/>
    </edge>
    <edge id=":83_5" function="internal">
        <lane id=":83_5_0" index="0" disallow="pedestrian tram rail_urban rail rail_electric rail_fast ship" speed="12.15" length="34.30" width="3.50" shape="29.05,-331.92 29.76,-335.84 30.50,-338.36 31.50,-340.80 32.80,-343.09 33.58,-344.15 34.43,-345.15 35.38,-346.07 36.40,-346.90 37.49,-347.64 38.64,-348.28 39.84,-348.82 42.35,-349.61 44.94,-350.06 47.57,-350.21 50.20,-350.12 52.86,-349.84"/>
    </edge>
    <edge id=":84_0" function="internal">
        <lane id=":84_0_0" index="0" disallow="pedestrian tram rail_urban rail rail_electric rail_fast ship" speed="11.04" length="28.91" width="3.50" shape="34.91,-378.17 35.17,-381.67 35.11,-383.93 34.82,-386.15 34.25,-388.30 33.87,-389.28 33.40,-390.24 32.85,-391.15 32.23,-392.00 31.52,-392.79 30.74,-393.51 29.90,-394.16 29.02,-394.73 27.03,-395.73 24.91,-396.46 22.71,-396.97 19.26,-397.42"/>
    </edge>
    <edge id=":84_1" function="internal">
        <lane id=":84_1_0" index="0" disallow="pedestrian tram rail_urban rail rail_electric rail_fast ship" speed="36.11" length="38.91" width="3.50" shape="34.91,-378.17 37.43,-397.48 39.95,-416.75"/>
    </edge>
    <edge id=":84_2" function="internal">
        <lane id=":84_2_0" index="0" disallow="pedestrian tram rail_urban rail rail_electric rail_fast ship" speed="36.11" length="38.87" width="3.50" shape="43.42,-416.29 40.90,-397.02 38.39,-377.75"/>
    </edge>
    <edge id=":84_3" function="internal">
        <lane id=":84_3_0" index="0" disallow="pedestrian tram rail_urban rail rail_electric rail_fast ship" speed="12.53" length="34.63" width="3.50" shape="43.42,-416.29 43.00,-413.82 42.38,-411.38 41.53,-408.98 40.41,-406.66 38.97,-404.48 37.25,-402.53 36.23,-401.63 35.15,-400.82 32.91,-399.50 30.50,-398.52 28.01,-397.85 25.50,-397.47 22.98,-397.31 19.26,-397.42"/>
    </edge>
    <edge id=":84_4" function="internal">
        <lane id=":84_4_0" index="0" disallow="pedestrian tram rail_urban rail rail_electric rail_fast ship" speed="11.55" length="29.26" width="3.50" shape="19.53,-400.91 22.78,-400.81 24.94,-400.94 27.09,-401.27 29.18,-401.82 31.19,-402.64 33.06,-403.73 33.93,-404.38 34.74,-405.10 36.19,-406.71 37.38,-408.52 38.33,-410.47 39.05,-412.52 39.59,-414.62 39.95,-416.75"/>
    </edge>
    <edge id=":84_5" function="internal">
        <lane id=":84_5_0" index="0" disallow="pedestrian tram rail_urban rail rail_electric rail_fast ship" speed="12.05" length="34.66" width="3.50" shape="19.53,-400.91 23.49,-400.40 26.09,-399.79 28.61,-398.92 30.99,-397.73 32.11,-397.00 33.17,-396.19 34.14,-395.28 35.03,-394.29 35.82,-393.21 36.51,-392.07 37.10,-390.87 37.58,-389.63 38.26,-387.06 38.61,-384.41 38.68,-381.75 38.39,-377.75"/>
    </edge>
    <edge id=":85_0" function="internal">
        <lane id=":85_0_0" index="0" disallow="pedestrian tram rail_urban rail rail_electric rail_fast ship" speed="10.42" length="24.34" width="3.50" shape="69.78,-484.44 66.40,-484.50 63.05,-484.27 60.90,-483.91 58.83,-483.35 56.85,-482.54 55.98,-482.06 55.14,-481.50 54.36,-480.87 53.66,-480.17 53.03,-479.40 52.49,-478.57 52.02,-477.69 51.64,-476.75 51.34,-475.80 50.94,-473.69"/>
    </edge>
    <edge id=":85_1" function="internal">
        <lane id=":85_1_0" index="0" disallow="pedestrian tram rail_urban rail rail_electric rail_fast ship" speed="14.69" length="33.85" width="3.50" shape="69.78,-484.44 66.25,-484.76 62.73,-485.40 59.28,-486.39 57.01,-487.30 54.84,-488.41 52.78,-489.73 50.86,-491.25 49.10,-492.97 47.54,-494.85 46.17,-496.88 45.00,-499.03 43.62,-502.31"/>
    </edge>
    <edge id=":85_2" function="internal">
        <lane id=":85_2_0" index="0" disallow="pedestrian tram rail_urban rail rail_electric rail_fast ship" speed="13.81" length="29.77" width="3.50" shape="46.91,-503.51 48.14,-500.57 49.16,-498.71 50.36,-496.95 51.72,-495.32 53.25,-493.84 54.92,-492.53 56.72,-491.40 58.62,-490.44 60.59,-489.66 63.66,-488.78 66.80,-488.22 69.99,-487.93"/>
    </edge>
    <edge id=":85_3" function="internal">
        <lane id=":85_3_0" index="0" disallow="pedestrian tram rail_urban rail rail_electric rail_fast ship" speed="30.33" length="30.35" width="3.50" shape="46.91,-503.51 47.60,-501.46 49.11,-496.30 50.27,-491.04 50.91,-486.75 51.25,-482.42 51.27,-478.06 50.94,-473.69"/>
    </edge>
    <edge id=":85_4" function="internal">
        <lane id=":85_4_0" index="0" disallow="pedestrian tram rail_urban rail rail_electric rail_fast ship" speed="28.53" length="28.77" width="3.50" shape="47.46,-474.05 47.78,-478.22 47.76,-482.32 47.42,-486.41 46.81,-490.47 45.71,-495.48 44.26,-500.41 43.62,-502.31"/>
    </edge>
    <edge id=":85_5" function="internal">
        <lane id=":85_5_0" index="0" disallow="pedestrian tram rail_urban rail rail_electric rail_fast ship" speed="11.52" length="29.74" width="3.50" shape="47.45,-474.05 47.94,-476.66 48.31,-477.89 48.78,-479.09 49.36,-480.25 50.04,-481.34 50.83,-482.36 51.72,-483.29 52.70,-484.13 53.75,-484.88 54.86,-485.52 57.23,-486.55 59.71,-487.26 62.25,-487.70 66.10,-487.99 69.99,-487.93"/>
    </edge>
    <edge id=":86_0" function="internal">
        <lane id=":86_0_0" index="0" disallow="pedestrian tram rail_urban rail rail_electric rail_fast ship" speed="10.48" length="30.60" width="3.50" shape="-26.89,-447.72 -26.98,-451.25 -27.26,-453.59 -27.77,-455.88 -28.14,-457.00 -28.59,-458.09 -29.14,-459.13 -29.80,-460.11 -30.56,-461.01 -31.42,-461.80 -32.38,-462.48 -33.42,-463.04 -34.52,-463.47 -35.65,-463.78 -36.81,-463.99 -37.98,-464.10 -40.34,-464.08 -42.68,-463.81 -46.12,-463.07"/>
    </edge>
    <edge id=":86_1" function="internal">
        <lane id=":86_1_0" index="0" disallow="pedestrian tram rail_urban rail rail_electric rail_fast ship" speed="12.11" length="37.46" width="3.50" shape="-26.89,-447.72 -26.63,-451.87 -26.23,-454.62 -25.60,-457.32 -24.69,-459.94 -24.11,-461.21 -23.44,-462.42 -22.67,-463.58 -21.80,-464.66 -20.82,-465.65 -19.75,-466.53 -18.60,-467.30 -17.38,-467.95 -16.09,-468.48 -14.77,-468.90 -13.41,-469.20 -10.66,-469.52 -7.88,-469.51 -5.12,-469.24 -3.76,-469.04"/>
    </edge>
    <edge id=":86_2" function="internal">
        <lane id=":86_2_0" index="0" disallow="pedestrian tram rail_urban rail rail_electric rail_fast ship" speed="11.11" length="31.32" width="3.50" shape="-4.33,-465.58 -5.51,-465.76 -7.91,-465.99 -10.26,-466.00 -12.59,-465.72 -13.67,-465.47 -14.73,-465.13 -15.75,-464.70 -16.72,-464.18 -17.62,-463.56 -18.46,-462.86 -19.22,-462.07 -19.90,-461.20 -20.52,-460.26 -21.06,-459.26 -21.52,-458.24 -22.29,-456.00 -22.82,-453.68 -23.16,-451.30 -23.39,-447.64"/>
    </edge>
    <edge id=":86_3" function="internal">
        <lane id=":86_3_0" index="0" disallow="pedestrian tram rail_urban rail rail_electric rail_fast ship" speed="36.11" length="42.19" width="3.50" shape="-4.33,-465.58 -9.43,-466.30 -14.56,-466.70 -19.70,-466.81 -24.85,-466.63 -30.99,-466.05 -37.09,-465.10 -43.13,-463.82 -46.12,-463.07"/>
    </edge>
    <edge id=":86_4" function="internal">
        <lane id=":86_4_0" index="0" disallow="pedestrian tram rail_urban rail rail_electric rail_fast ship" speed="36.11" length="43.70" width="3.50" shape="-47.05,-466.44 -43.93,-467.23 -37.70,-468.55 -31.39,-469.53 -25.03,-470.12 -19.70,-470.31 -14.36,-470.20 -9.04,-469.77 -3.76,-469.04"/>
    </edge>
    <edge id=":86_5" function="internal">
        <lane id=":86_5_0" index="0" disallow="pedestrian tram rail_urban rail rail_electric rail_fast ship" speed="11.53" length="37.35" width="3.50" shape="-47.05,-466.45 -43.02,-467.31 -40.24,-467.63 -37.43,-467.66 -35.97,-467.52 -34.53,-467.27 -33.09,-466.87 -31.69,-466.32 -30.35,-465.61 -29.10,-464.72 -27.97,-463.68 -26.99,-462.53 -26.15,-461.28 -25.46,-459.97 -24.90,-458.63 -24.44,-457.24 -23.83,-454.51 -23.50,-451.73 -23.39,-447.64"/>
    </edge>
    <edge id=":87_0" function="internal">
        <lane id=":87_0_0" index="0" disallow="pedestrian tram rail_urban rail rail_electric rail_fast ship" speed="11.23" length="28.54" width="3.50" shape="68.59,-326.61 68.79,-328.89 68.82,-331.14 68.64,-333.35 68.21,-335.48 67.49,-337.54 67.04,-338.46 66.50,-339.36 65.89,-340.22 65.20,-341.01 64.45,-341.75 63.63,-342.43 62.78,-343.03 60.86,-344.11 58.82,-344.95 56.69,-345.59 53.29,-346.24"/>
    </edge>
    <edge id=":87_1" function="internal">
        <lane id=":87_1_0" index="0" disallow="pedestrian tram rail_urban rail rail_electric rail_fast ship" speed="36.11" length="38.58" width="3.50" shape="68.59,-326.61 71.04,-345.74 73.49,-364.88"/>
    </edge>
    <edge id=":87_2" function="internal">
        <lane id=":87_2_0" index="0" disallow="pedestrian tram rail_urban rail rail_electric rail_fast ship" speed="36.11" length="38.54" width="3.50" shape="76.96,-364.42 74.51,-345.29 72.06,-326.19"/>
    </edge>
    <edge id=":87_3" function="internal">
        <lane id=":87_3_0" index="0" disallow="pedestrian tram rail_urban rail rail_electric rail_fast ship" speed="12.17" length="34.32" width="3.50" shape="76.96,-364.42 76.24,-360.50 75.51,-357.97 74.52,-355.53 73.24,-353.23 72.48,-352.15 71.64,-351.14 70.72,-350.20 69.71,-349.35 68.63,-348.59 67.49,-347.92 66.30,-347.36 65.07,-346.90 62.51,-346.25 59.90,-345.93 57.26,-345.89 53.29,-346.24"/>
    </edge>
    <edge id=":87_4" function="internal">
        <lane id=":87_4_0" index="0" disallow="pedestrian tram rail_urban rail rail_electric rail_fast ship" speed="11.16" length="28.71" width="3.50" shape="53.78,-349.71 57.24,-349.40 59.47,-349.44 61.67,-349.70 63.81,-350.25 64.78,-350.62 65.74,-351.07 66.65,-351.60 67.51,-352.21 68.32,-352.89 69.06,-353.64 69.74,-354.46 70.34,-355.31 71.42,-357.25 72.24,-359.31 72.87,-361.46 73.49,-364.88"/>
    </edge>
    <edge id=":87_5" function="internal">
        <lane id=":87_5_0" index="0" disallow="pedestrian tram rail_urban rail rail_electric rail_fast ship" speed="12.24" length="34.05" width="3.50" shape="53.78,-349.71 57.67,-348.96 60.18,-348.21 62.59,-347.21 64.87,-345.93 65.94,-345.17 66.95,-344.33 67.88,-343.42 68.73,-342.42 69.49,-341.36 70.16,-340.23 70.73,-339.06 71.59,-336.59 72.11,-334.02 72.33,-331.42 72.30,-328.80 72.06,-326.19"/>
    </edge>
    <edge id=":88_0" function="internal">
        <lane id=":88_0_0" index="0" disallow="pedestrian tram rail_urban rail rail_electric rail_fast ship" speed="8.29" length="14.84" width="3.50" shape="90.98,-429.92 87.74,-429.98 87.01,-429.35 86.48,-428.54 86.07,-427.67 85.73,-426.76 85.45,-425.84 84.98,-423.96 84.61,-422.06 84.18,-419.19"/>
    </edge>
    <edge id=":88_1" function="internal">
        <lane id=":88_1_0" index="0" disallow="pedestrian tram rail_urban rail rail_electric rail_fast ship" speed="9.17" length="21.58" width="3.50" shape="90.98,-429.92 86.95,-430.72 85.43,-431.94 84.49,-433.46 84.01,-434.98 83.80,-436.45 83.76,-437.86 83.84,-439.24 84.00,-440.60 84.48,-443.20 85.44,-446.93"/>
    </edge>
    <edge id=":88_2" function="internal">
        <lane id=":88_2_0" index="0" disallow="pedestrian tram rail_urban rail rail_electric rail_fast ship" speed="7.85" length="15.46" width="3.50" shape="88.81,-445.98 88.00,-442.99 87.57,-440.96 87.39,-439.94 87.26,-438.92 87.18,-437.89 87.17,-436.85 87.29,-435.82 87.60,-434.84 88.22,-434.03 91.22,-433.41"/>
    </edge>
    <edge id=":88_3" function="internal">
        <lane id=":88_3_0" index="0" disallow="pedestrian tram rail_urban rail rail_electric rail_fast ship" speed="36.11" length="27.20" width="3.50" shape="88.81,-445.98 87.81,-441.92 86.45,-434.72 84.59,-422.31 84.18,-419.19"/>
    </edge>
    <edge id=":88_4" function="internal">
        <lane id=":88_4_0" index="0" disallow="pedestrian tram rail_urban rail rail_electric rail_fast ship" speed="36.11" length="27.70" width="3.50" shape="80.71,-419.65 81.13,-422.81 83.02,-435.40 84.40,-442.75 85.44,-446.93"/>
    </edge>
    <edge id=":88_5" function="internal">
        <lane id=":88_5_0" index="0" disallow="pedestrian tram rail_urban rail rail_electric rail_fast ship" speed="9.51" length="19.89" width="3.50" shape="80.71,-419.65 81.29,-423.25 81.84,-425.66 82.59,-428.04 83.11,-429.26 83.76,-430.45 84.62,-431.60 85.75,-432.61 87.19,-433.34 91.22,-433.41"/>
    </edge>
    <edge id=":89_0" function="internal">
        <lane id=":89_0_0" index="0" disallow="pedestrian tram rail_urban rail rail_electric rail_fast ship" speed="10.49" length="32.25" width="3.50" shape="162.33,-393.30 158.78,-395.14 156.39,-396.13 153.93,-396.88 152.73,-397.12 151.52,-397.27 150.33,-397.31 149.16,-397.22 148.05,-396.99 146.99,-396.62 146.01,-396.10 145.11,-395.43 144.29,-394.63 143.55,-393.72 142.90,-392.71 142.33,-391.62 141.84,-390.50 141.02,-388.05 140.42,-385.52 140.00,-382.91"/>
    </edge>
    <edge id=":89_1" function="internal">
        <lane id=":89_1_0" index="0" disallow="pedestrian tram rail_urban rail rail_electric rail_fast ship" speed="36.11" length="41.57" width="3.50" shape="162.33,-393.30 150.68,-400.17 139.24,-407.33 128.01,-414.79 127.13,-415.39"/>
    </edge>
    <edge id=":89_2" function="internal">
        <lane id=":89_2_0" index="0" disallow="pedestrian tram rail_urban rail rail_electric rail_fast ship" speed="36.11" length="41.30" width="3.50" shape="129.07,-418.30 129.98,-417.69 141.14,-410.27 152.49,-403.16 164.04,-396.35"/>
    </edge>
    <edge id=":89_3" function="internal">
        <lane id=":89_3_0" index="0" disallow="pedestrian tram rail_urban rail rail_electric rail_fast ship" speed="16.03" length="39.10" width="3.50" shape="129.08,-418.31 130.97,-416.88 132.66,-415.33 134.20,-413.63 135.57,-411.79 136.76,-409.82 138.21,-406.71 139.29,-403.44 140.02,-400.08 140.46,-396.66 140.64,-393.22 140.55,-388.64 140.15,-384.06 140.00,-382.91"/>
    </edge>
    <edge id=":89_4" function="internal">
        <lane id=":89_4_0" index="0" disallow="pedestrian tram rail_urban rail rail_electric rail_fast ship" speed="15.22" length="35.19" width="3.50" shape="136.53,-383.37 136.66,-384.42 137.05,-388.68 137.14,-392.92 136.99,-396.07 136.62,-399.18 135.98,-402.22 135.05,-405.15 133.78,-407.95 132.76,-409.67 131.57,-411.30 130.24,-412.80 128.76,-414.16 127.13,-415.39"/>
    </edge>
    <edge id=":89_5" function="internal">
        <lane id=":89_5_0" index="0" disallow="pedestrian tram rail_urban rail rail_electric rail_fast ship" speed="11.54" length="39.41" width="3.50" shape="136.53,-383.37 137.02,-386.37 137.71,-389.33 138.67,-392.20 139.27,-393.59 139.98,-394.93 140.80,-396.20 141.75,-397.38 142.83,-398.44 144.04,-399.35 145.38,-400.06 146.80,-400.58 148.28,-400.89 149.79,-401.01 151.31,-400.96 152.81,-400.78 154.30,-400.48 157.20,-399.60 160.00,-398.45 164.04,-396.35"/>
    </edge>
    <edge id=":90_0" function="internal">
        <lane id=":90_0_0" index="0" disallow="pedestrian tram rail_urban rail rail_electric rail_fast ship" speed="12.19" length="33.97" width="3.50" shape="149.85,-323.84 146.00,-324.58 143.50,-325.34 141.08,-326.33 138.81,-327.62 137.75,-328.38 136.74,-329.22 135.82,-330.14 134.97,-331.14 134.22,-332.20 133.56,-333.33 132.99,-334.51 132.15,-336.98 131.66,-339.55 131.46,-342.15 131.51,-344.77 131.77,-347.37"/>
    </edge>
    <edge id=":90_1" function="internal">
        <lane id=":90_1_0" index="0" disallow="pedestrian tram rail_urban rail rail_electric rail_fast ship" speed="11.18" length="28.45" width="3.50" shape="135.24,-346.93 135.02,-344.65 134.97,-342.41 135.13,-340.20 135.54,-338.06 136.25,-336.01 136.69,-335.09 137.22,-334.18 137.83,-333.33 138.51,-332.53 139.25,-331.79 140.06,-331.11 140.91,-330.51 142.82,-329.43 144.85,-328.59 146.98,-327.95 150.34,-327.30"/>
    </edge>
    <edge id=":90_2" function="internal">
        <lane id=":90_2_0" index="0" disallow="pedestrian tram rail_urban rail rail_electric rail_fast ship" speed="36.11" length="38.61" width="3.50" shape="135.24,-346.93 132.69,-327.79 130.14,-308.66"/>
    </edge>
    <edge id=":90_3" function="internal">
        <lane id=":90_3_0" index="0" disallow="pedestrian tram rail_urban rail rail_electric rail_fast ship" speed="36.11" length="38.58" width="3.50" shape="126.67,-309.13 129.22,-328.25 131.77,-347.37"/>
    </edge>

    <edge id="19804" from="90" to="74" priority="3" type="highway.residential" spreadType="center" length="21.28" shape="139.03,-326.78 127.30,-287.57">