<additional>
	<vTypeDistribution id="DEFAULT_VEHTYPE">
		<vType accel="2.9" decel="7.5" guiShape="passenger" id="passenger" impatience="0.00" lcCooperative="1.00" lcImpatience="0.00" lcSpeedGain="3.00" lcStrategic="10.00" length="5.0" maxSpeed="50.0" minGap="1.0" probability="0.6" sigma="0.50" speedDev="0.10" speedFactor="0.90" vClass="passenger" width="2.0"/>
		<vType accel="2.5" decel="6" guiShape="motorcycle" id="motorcycle" impatience="0.00" lcCooperative="1.00" lcImpatience="0.00" lcSpeedGain="3.00" lcStrategic="10.00" length="2.5" maxSpeed="36.11111111111111" minGap="2.5" probability="0.3" sigma="0.50" speedDev="0.10" speedFactor="0.90" vClass="motorcycle" width="0.8"/>
		<vType accel="1.3" decel="4" guiShape="truck" id="truck" impatience="0.00" lcCooperative="1.00" lcImpatience="0.00" lcSpeedGain="3.00" lcStrategic="10.00" length="7.5" maxSpeed="36.11111111111111" minGap="2.5" probability="0.1" sigma="0.50" speedDev="0.10" speedFactor="0.90" vClass="truck" width="2.6"/>
	</vTypeDistribution>
</additional>
