<routes>
	<vehicle depart="0.1" departLane="0" departPos="16.43950790228439" departSpeed="1.4291694" id="31" type="passenger">
		<route edges="20035 19916"/>
	</vehicle>
	<vehicle depart="0.1" departLane="0" departPos="2.5" departSpeed="0.035678476" id="319" type="passenger">
		<route edges=":88_4 20016 20146"/>
	</vehicle>
	<vehicle depart="0.1" departLane="0" departPos="11.369743901256921" departSpeed="0.077346274" id="325" type="passenger">
		<route edges=":89_5 20031"/>
	</vehicle>
	<vehicle depart="0.1" departLane="0" departPos="18.95461322330817" departSpeed="1.8528848" id="339" type="passenger">
		<route edges=":89_1 20035"/>
	</vehicle>
	<vehicle depart="0.1" departLane="0" departPos="36.676985838879354" departSpeed="1.6731722" id="346" type="passenger">
		<route edges=":89_4 20035 19916"/>
	</vehicle>
	<vehicle depart="0.1" departLane="0" departPos="10.56936719194855" departSpeed="1.8175244" id="354" type="passenger">
		<route edges=":89_1 20035"/>
	</vehicle>
	<vehicle depart="0.1" departLane="0" departPos="18.04260489422548" departSpeed="1.4950502" id="323" type="motorcycle">
		<route edges="20034 19807"/>
	</vehicle>
	<vehicle depart="0.1" departLane="0" departPos="8.920936319520635" departSpeed="0.91298216" id="327" type="motorcycle">
		<route edges="20035 19916"/>
	</vehicle>
	<vehicle depart="0.1" departLane="0" departPos="8.341255619724004" departSpeed="1.8640287" id="334" type="motorcycle">
		<route edges="20035 19916"/>
	</vehicle>
	<vehicle depart="0.1" departLane="0" departPos="29.954379409383005" departSpeed="0.29670912" id="320" type="truck">
		<route edges="20035 19916 20016"/>
	</vehicle>
</routes>
