<!-- generated on 2020-12-18 15:55:07.733934 by ipykernel_launcher.py v1_2_0+5214-53edc58fcd
-->
<edges>
	<edge from="1" function="normal" id="544" length="154.00985769200494" numLanes="6" priority="1" speed="36.11111111111111" spreadType="center" to="2">
		<lane allow="moped bicycle pedestrian custom1 trailer evehicle rail_urban ship private vip custom2 authority delivery rail_electric taxi tram army hov coach motorcycle passenger rail emergency" index="0" length="154.00985769200494" shape="-34.5565,-12.9905 -31.780050000000003,-13.0266 -30.835900000000002,-13.05805 -27.3948,-13.1218 -26.45065,-13.1532 -22.94535,-13.24495 -22.001199999999997,-13.27635 -18.477899999999998,-13.366299999999999 -17.5338,-13.3977 -14.0927,-13.46145 -13.14855,-13.49285 -12.2332,-13.5107 -9.624849999999999,-13.5634 -8.68075,-13.59555 -5.2003,-13.6858 -4.25615,-13.71795 -0.7008049999999999,-13.7935 0.24333000000000002,-13.82565 3.55605,-13.8848 4.5001999999999995,-13.91695 7.90925,-13.96345 8.019,-13.9673 8.93145,-13.996649999999999 12.62575,-14.0991 13.5699,-14.13125 17.0273,-14.2309 17.971400000000003,-14.26305 21.58685,-14.3179 22.530949999999997,-14.35005 25.93495,-14.4296 26.879150000000003,-14.461749999999999 30.38275,-14.5425 31.22485,-14.5716 31.331249999999997,-14.5746 34.8035,-14.59135 34.960300000000004,-14.596250000000001 35.8748,-14.623000000000001 39.3059,-14.749400000000001 40.25005,-14.7804 43.6913,-14.8428 44.6354,-14.873800000000001 48.2521,-14.9609 49.19625,-14.99195 52.4237,-15.042449999999999 53.36785,-15.073450000000001 56.9571,-15.15485 57.901250000000005,-15.18585 61.18565,-15.1934 61.3561,-15.1985 62.27375,-15.22475 65.8562,-15.348749999999999 66.80035000000001,-15.3798 67.63025,-15.395599999999998 70.3263,-15.4475 71.27045000000001,-15.47875 74.68015,-15.532350000000001 75.6243,-15.5636 79.0886,-15.6173 80.0328,-15.64855 85.83945,-15.75785 86.7836,-15.7891 90.4651,-15.833400000000001 91.40925,-15.86465 95.11045,-15.9208 96.0546,-15.95205 99.71265,-16.0407 100.6568,-16.07195 104.098,-16.1351 105.04214999999999,-16.16635 108.30905,-16.2161 109.4647,-16.27255 109.53965,-16.27705 110.07195,-16.304100000000002 110.2268,-16.3089 113.25309999999999,-16.39905 114.1972,-16.43575 117.93385,-16.558500000000002 118.87795,-16.5952 119.40475,-16.6114" speed="36.11111111111111" width="3.5861768751694334"/>
		<lane allow="moped bicycle pedestrian custom1 trailer evehicle rail_urban ship private vip custom2 authority delivery rail_electric taxi tram army hov coach motorcycle passenger rail emergency" index="1" length="154.00985769200494" shape="-34.476200000000006,-9.33775 -33.700450000000004,-9.3461 -31.64265,-9.40855 -30.698999999999998,-9.4553 -29.86495,-9.4829 -27.6699,-9.47325 -26.92335,-9.47705 -26.00995,-9.47875 -25.830399999999997,-9.4835 -25.62115,-9.488800000000001 -25.52665,-9.49085 -22.814950000000003,-9.5992 -22.78655,-9.6005 -21.8622,-9.6464 -21.7404,-9.6509 -18.43705,-9.7357 -17.6025,-9.76325 -17.5357,-9.7649 -17.43825,-9.7674 -14.0106,-9.8326 -13.2182,-9.85905 -13.156649999999999,-9.86065 -13.060400000000001,-9.86335 -12.451899999999998,-9.876100000000001 -12.3834,-9.8797 -9.4855,-9.98315 -8.639050000000001,-10.02495 -0.76427,-10.14215 0.0084641,-10.1601 0.099221,-10.16105 0.20373,-10.162849999999999 1.4352,-10.175650000000001 1.521,-10.1801 3.6984,-10.252600000000001 4.64205,-10.299299999999999 5.31175,-10.31645 8.064,-10.346 8.82665,-10.3697 8.879,-10.37085 12.630700000000001,-10.46485 13.463750000000001,-10.4905 15.70885,-10.54925 17.16945,-10.6143 18.1131,-10.66105 19.61335,-10.704899999999999 21.65515,-10.7253 22.3863,-10.7464 22.454250000000002,-10.7477 22.526850000000003,-10.7495 25.93625,-10.81315 26.7341,-10.83555 26.80185,-10.83675 26.8774,-10.83865 29.88945,-10.8941 29.931649999999998,-10.895 30.445999999999998,-10.905650000000001 31.407049999999998,-10.936250000000001 33.874,-10.9452 35.01235,-10.95275 35.81075,-10.9796 39.181200000000004,-11.106 40.178,-11.1403 40.248,-11.14215 40.346450000000004,-11.1447 43.7729,-11.21075 43.88935,-11.214300000000001 44.53935,-11.23585 44.59465,-11.23715 44.65645,-11.238949999999999 47.9029,-11.31555 47.93935,-11.3167 48.35145,-11.32895 49.2969,-11.36575 52.5235,-11.435749999999999 53.3939,-11.46965 53.43625,-11.471 53.4853,-11.47255 57.0561,-11.5756 58.0002,-11.61235 59.21225,-11.6202 61.4041,-11.624600000000001 62.182950000000005,-11.649550000000001 62.77205,-11.6686 65.65925,-11.75535 66.62270000000001,-11.78255 66.70400000000001,-11.7839 66.8,-11.786000000000001 70.34469999999999,-11.83735 71.09485,-11.857600000000001 71.18235,-11.85905 71.30105,-11.8613 73.1568,-11.88285 74.75655,-11.906400000000001 75.5255,-11.931049999999999 75.60405,-11.9328 75.717,-11.9354 77.01675,-11.955549999999999 79.1862,-12.0003 80.13034999999999,-12.036200000000001 85.9359,-12.1739 86.88,-12.2098 86.98345,-12.21075 90.5407,-12.2501 91.11005,-12.26445 91.21119999999999,-12.2652 91.32985,-12.26675 95.05575,-12.2744 95.34825000000001,-12.2776 95.43275,-12.2803 95.91635,-12.291699999999999 95.98455000000001,-12.2928 96.04615000000001,-12.29435 96.1072,-12.2964 99.56985,-12.37715 99.8147,-12.38455 100.75880000000001,-12.4214 104.1992,-12.5048 105.14325,-12.541599999999999 106.6024,-12.5718 108.81975,-12.6032 109.59545,-12.62805 109.65115,-12.6294 109.71445,-12.6312 110.43039999999999,-12.64795 113.37424999999999,-12.73045 114.23625,-12.763349999999999 114.2672,-12.764399999999998 114.3185,-12.76625 118.05510000000001,-12.88675 118.91685,-12.919599999999999 118.9538,-12.920850000000002 119.00685,-12.92265 119.4925,-12.93725" speed="36.11111111111111" width="3.413764720949586"/>
		<lane allow="moped bicycle pedestrian custom1 trailer evehicle rail_urban ship private vip custom2 authority delivery rail_electric taxi tram army hov coach motorcycle passenger rail emergency" index="2" length="154.00985769200494" shape="-34.402100000000004,-5.9678 -33.608000000000004,-5.9979 -32.43455,-6.0624 -30.149900000000002,-6.1337 -29.9941,-6.13485 -29.785600000000002,-6.13635 -25.5348,-6.10325 -22.41135,-6.196199999999999 -22.304699999999997,-6.2012 -22.18325,-6.20585 -21.61935,-6.232049999999999 -21.5462,-6.2341 -18.17975,-6.3649000000000004 -12.4633,-6.4586500000000004 -8.776399999999999,-6.575900000000001 -8.59245,-6.580349999999999 -7.7322500000000005,-6.59065 -7.63125,-6.59565 -3.86415,-6.7043 1.48435,-6.74995 5.13,-6.8726 5.2654499999999995,-6.87655 6.61985,-6.9011499999999995 6.6815,-6.904299999999999 10.481300000000001,-7.0421 15.73705,-7.11195 19.400199999999998,-7.22555 19.555750000000003,-7.22955 21.0518,-7.25045 21.13015,-7.254449999999999 24.9142,-7.3828000000000005 30.04585,-7.5019 33.90415,-7.6034 35.363200000000006,-7.64415 39.20655,-7.727399999999999 44.1391,-7.836 48.01035,-7.914949999999999 49.40705,-7.95285 53.28125,-8.0572 59.170100000000005,-8.22545 59.2265,-8.226849999999999 63.07995,-8.3108 63.8428,-8.324 67.70214999999999,-8.3843 73.20685,-8.46585 77.05799999999999,-8.53965 86.9494,-8.788 86.9979,-8.789100000000001 90.87665000000001,-8.863800000000001 92.83945,-8.874749999999999 95.79105,-8.8951 96.65555,-8.9124 99.67405,-8.99615 106.67269999999999,-9.2387 106.726,-9.23995 110.50755000000001,-9.31555 110.56595,-9.3175 119.572,-9.609200000000001" speed="36.11111111111111" width="3.133750374551233"/>
		<lane allow="moped bicycle pedestrian custom1 trailer evehicle rail_urban ship private vip custom2 authority delivery rail_electric taxi tram army hov coach motorcycle passenger rail emergency" index="3" length="154.00985769200494" shape="-34.330600000000004,-2.7177499999999997 -32.49405,-2.7926 -32.3953,-2.7951500000000005 -32.269800000000004,-2.7983499999999997 -28.5678,-2.8609 -24.711150000000004,-2.9781500000000003 -21.9877,-2.99465 -18.37395,-3.10335 -18.19825,-3.1073500000000003 -14.29005,-3.1439500000000002 -10.4321,-3.2693000000000003 -7.6756,-3.3153 -3.9734,-3.4593499999999997 -3.80535,-3.4643 0.14376,-3.53825 4.0005500000000005,-3.6695 6.554,-3.68295 10.2219,-3.7739000000000003 10.39915,-3.7774 14.47575,-3.7951 18.33415,-3.9174 21.11425,-3.95735 24.799799999999998,-4.09485 24.8841,-4.097849999999999 29.07545,-4.2105 32.93195,-4.3794 35.31685,-4.4376 35.3528,-4.4383 35.3936,-4.43915 39.264700000000005,-4.5093 43.41415000000001,-4.5855 43.4304,-4.5858 47.2969,-4.6645 49.5976,-4.7265999999999995 53.4559,-4.8290500000000005 57.608599999999996,-4.9464500000000005 61.467600000000004,-5.0303 63.91535,-5.1008 67.7736,-5.20495 72.1831,-5.3202 76.04235,-5.39415 86.41319999999999,-5.56155 86.4321,-5.56185 90.2926,-5.63575 92.80435,-5.673299999999999 96.666,-5.7341 100.91069999999999,-5.83345 104.80795,-5.9406 104.8434,-5.941599999999999 106.80574999999999,-6.0047 110.6647,-6.0998 115.24375,-6.2415 119.05535,-6.341849999999999 119.11245,-6.3436 119.1301,-6.344150000000001 119.64955,-6.36195" speed="36.11111111111111" width="3.0368621256158472"/>
		<lane allow="moped bicycle pedestrian custom1 trailer evehicle rail_urban ship private vip custom2 authority delivery rail_electric taxi tram army hov coach motorcycle passenger rail emergency" index="4" length="154.00985769200494" shape="-34.25835,0.5660000000000001 -28.71765,0.47840000000000005 -28.46425,0.4673999999999999 -24.910600000000002,0.2721 -24.66725,0.2659 -14.24775,0.15794999999999992 -14.09935,0.1523 -14.0314,0.14859999999999995 -10.32845,-0.05149999999999999 -10.1174,-0.05890000000000006 0.165005,-0.20199999999999996 0.26167,-0.20665 3.9642999999999997,-0.41015 14.533349999999999,-0.5315 14.6406,-0.5361000000000001 14.68995,-0.5388 18.43385,-0.742745 18.6033,-0.748165 29.06725,-0.8935899999999999 29.22135,-0.90035 32.86405,-1.1005449999999999 43.1419,-1.2976949999999998 43.50465,-1.30422 46.9958,-1.37403 47.3677,-1.38189 57.45735,-1.661935 57.5946,-1.6656905 57.6262,-1.6663700000000001 57.67945,-1.6676545 61.3922,-1.742228 61.5596,-1.7467190000000001 72.13804999999999,-2.097925 72.24465000000001,-2.10069 76.02619999999999,-2.1766 76.1054,-2.178235 86.49615,-2.3586400000000003 86.6738,-2.3622699999999996 90.354,-2.4358649999999997 90.5469,-2.438855 100.98485,-2.599125 101.11590000000001,-2.601225 104.8303,-2.6755 104.99260000000001,-2.6797500000000003 115.36314999999999,-2.9918 119.2048,-3.06865 119.7278,-3.08435" speed="36.11111111111111" width="3.1809179355808594"/>
		<lane allow="moped bicycle pedestrian custom1 trailer evehicle rail_urban ship private vip custom2 authority delivery rail_electric taxi tram army hov coach motorcycle passenger rail emergency" index="5" length="154.00985769200494" shape="-34.18555,3.8770000000000002 -28.66445,3.8497500000000002 -28.41,3.8422 -28.24785,3.8354999999999997 -24.7291,3.64735 -24.26995,3.63295 -13.9098,3.4899 -13.63175,3.4804000000000004 -13.4972,3.47445 -9.98825,3.2852 -9.5146,3.2732 0.213145,3.22905 0.466615,3.2215499999999997 0.6299399999999999,3.21475 4.1491,3.0267 4.58915,3.0098000000000003 14.82395,2.7532 15.056650000000001,2.74465 15.13175,2.7409 15.23045,2.73625 18.727600000000002,2.545935 19.1948,2.53321 29.11355,2.45781 29.3752,2.4496550000000004 29.529049999999998,2.443175 33.04485,2.254655 33.490300000000005,2.2385099999999998 43.2059,2.028505 43.707449999999994,2.018065 47.0623,1.95097 47.54625,1.9407450000000002 57.60505,1.7154589999999998 58.10525,1.70486625 61.460049999999995,1.637772 61.85915,1.6274535 61.89065,1.626523 61.93255,1.625295 72.2561,1.2914349999999999 72.73945,1.278945 76.09425,1.21185 76.59200000000001,1.201695 86.74215000000001,0.99088 87.24515,0.9806349999999999 90.59995,0.9135449999999999 91.10565,0.903635 101.03605,0.7133250000000001 101.5361,0.7035399999999999 104.89654999999999,0.6363500000000001 105.3083,0.6259499999999999 105.336,0.6251500000000001 105.37285,0.62415 115.46855,0.3125500000000001 115.95435,0.30025 119.30915,0.23319999999999996 119.7804,0.2229 119.8035,0.22229999999999994 119.8068,0.22224999999999995" speed="36.11111111111111" width="3.389134943034875"/>
	</edge>
</edges>
