<?xml version="1.0" encoding="UTF-8"?>

<!-- generated on Fri Dec 18 15:55:07 2020 by Eclipse SUMO netconvert Version 1.8.0
<configuration xmlns:xsi="http://www.w3.org/2001/XMLSchema-instance" xsi:noNamespaceSchemaLocation="http://sumo.dlr.de/xsd/netconvertConfiguration.xsd">

    <input>
        <node-files value="./converted_scenarios/NGSIM/US101/USA_US101-1_2_I-1-1/nodes.net.xml"/>
        <edge-files value="./converted_scenarios/NGSIM/US101/USA_US101-1_2_I-1-1/edges.net.xml"/>
        <connection-files value="./converted_scenarios/NGSIM/US101/USA_US101-1_2_I-1-1/_connections.net.xml"/>
        <tllogic-files value="./converted_scenarios/NGSIM/US101/USA_US101-1_2_I-1-1/_tll.net.xml"/>
    </input>

    <output>
        <output-file value="./converted_scenarios/NGSIM/US101/USA_US101-1_2_I-1-1/USA_US101-1_2_I-1-1.net.xml"/>
    </output>

    <processing>
        <plain.extend-edge-shape value="true"/>
        <geometry.remove.keep-edges.explicit value="true"/>
        <geometry.avoid-overlap value="true"/>
        <offset.disable-normalization value="true"/>
    </processing>

    <junctions>
        <no-turnarounds value="true"/>
        <junctions.internal-link-detail value="20"/>
    </junctions>

    <report>
        <aggregate-warnings value="5"/>
    </report>

    <random_number>
        <seed value="1234"/>
    </random_number>

</configuration>
-->

<net version="1.6" junctionCornerDetail="5" junctionLinkDetail="20" limitTurnSpeed="5.50" xmlns:xsi="http://www.w3.org/2001/XMLSchema-instance" xsi:noNamespaceSchemaLocation="http://sumo.dlr.de/xsd/net_file.xsd">

    <location netOffset="0.00,0.00" convBoundary="-34.37,-8.06,119.61,-4.43" origBoundary="-34.56,-16.61,119.81,3.88" projParameter="!"/>

    <edge id="544" from="1" to="2" priority="1" spreadType="center" length="154.01">
        <lane id="544_0" index="0" disallow="bus truck rail_fast" speed="36.11" length="154.01" width="3.59" customShape="1" shape="-34.41,-12.99 -31.78,-13.03 -30.84,-13.06 -27.39,-13.12 -26.45,-13.15 -22.95,-13.24 -22.00,-13.28 -18.48,-13.37 -17.53,-13.40 -14.09,-13.46 -13.15,-13.49 -12.23,-13.51 -9.62,-13.56 -8.68,-13.60 -5.20,-13.69 -4.26,-13.72 -0.70,-13.79 0.24,-13.83 3.56,-13.88 4.50,-13.92 7.91,-13.96 8.02,-13.97 8.93,-14.00 12.63,-14.10 13.57,-14.13 17.03,-14.23 17.97,-14.26 21.59,-14.32 22.53,-14.35 25.93,-14.43 26.88,-14.46 30.38,-14.54 31.22,-14.57 31.33,-14.57 34.80,-14.59 34.96,-14.60 35.87,-14.62 39.31,-14.75 40.25,-14.78 43.69,-14.84 44.64,-14.87 48.25,-14.96 49.20,-14.99 52.42,-15.04 53.37,-15.07 56.96,-15.15 57.90,-15.19 61.19,-15.19 61.36,-15.20 62.27,-15.22 65.86,-15.35 66.80,-15.38 67.63,-15.40 70.33,-15.45 71.27,-15.48 74.68,-15.53 75.62,-15.56 79.09,-15.62 80.03,-15.65 85.84,-15.76 86.78,-15.79 90.47,-15.83 91.41,-15.86 95.11,-15.92 96.05,-15.95 99.71,-16.04 100.66,-16.07 104.10,-16.14 105.04,-16.17 108.31,-16.22 109.46,-16.27 110.07,-16.30 110.23,-16.31 113.25,-16.40 114.20,-16.44 117.93,-16.56 118.88,-16.60 119.40,-16.61"/>
        <lane id="544_1" index="1" disallow="bus truck rail_fast" speed="36.11" length="154.01" width="3.41" customShape="1" shape="-34.48,-9.34 -33.70,-9.35 -31.64,-9.41 -30.70,-9.46 -29.86,-9.48 -27.67,-9.47 -26.92,-9.48 -26.01,-9.48 -25.83,-9.48 -25.62,-9.49 -22.81,-9.60 -21.86,-9.65 -21.74,-9.65 -18.44,-9.74 -17.60,-9.76 -17.44,-9.77 -14.01,-9.83 -13.22,-9.86 -13.06,-9.86 -12.45,-9.88 -9.49,-9.98 -8.64,-10.02 -0.76,-10.14 0.01,-10.16 0.20,-10.16 1.44,-10.18 3.70,-10.25 4.64,-10.30 5.31,-10.32 8.06,-10.35 8.83,-10.37 12.63,-10.46 13.46,-10.49 15.71,-10.55 17.17,-10.61 18.11,-10.66 19.61,-10.70 21.66,-10.73 22.39,-10.75 22.53,-10.75 25.94,-10.81 26.73,-10.84 26.88,-10.84 29.89,-10.89 30.45,-10.91 31.41,-10.94 33.87,-10.95 35.01,-10.95 35.81,-10.98 39.18,-11.11 40.18,-11.14 40.35,-11.14 43.77,-11.21 43.89,-11.21 44.54,-11.24 44.66,-11.24 47.90,-11.32 48.35,-11.33 49.30,-11.37 52.52,-11.44 53.39,-11.47 57.06,-11.58 58.00,-11.61 59.21,-11.62 61.40,-11.62 62.18,-11.65 62.77,-11.67 65.66,-11.76 66.62,-11.78 66.80,-11.79 70.34,-11.84 71.09,-11.86 71.30,-11.86 73.16,-11.88 74.76,-11.91 75.53,-11.93 75.72,-11.94 77.02,-11.96 79.19,-12.00 80.13,-12.04 85.94,-12.17 86.88,-12.21 86.98,-12.21 90.54,-12.25 91.11,-12.26 91.21,-12.27 91.33,-12.27 95.06,-12.27 95.35,-12.28 95.92,-12.29 96.05,-12.29 99.57,-12.38 99.81,-12.38 100.76,-12.42 104.20,-12.50 105.14,-12.54 106.60,-12.57 108.82,-12.60 109.60,-12.63 109.71,-12.63 110.43,-12.65 113.37,-12.73 114.24,-12.76 118.06,-12.89 118.92,-12.92 119.49,-12.94"/>
        <lane id="544_2" index="2" disallow="bus truck rail_fast" speed="36.11" length="154.01" width="3.13" customShape="1" shape="-34.40,-5.97 -33.61,-6.00 -32.43,-6.06 -30.15,-6.13 -29.99,-6.13 -29.79,-6.14 -25.53,-6.10 -22.41,-6.20 -22.30,-6.20 -22.18,-6.21 -21.62,-6.23 -18.18,-6.36 -12.46,-6.46 -8.78,-6.58 -8.59,-6.58 -7.73,-6.59 -7.63,-6.60 -3.86,-6.70 1.48,-6.75 5.13,-6.87 5.27,-6.88 6.62,-6.90 10.48,-7.04 15.74,-7.11 19.40,-7.23 19.56,-7.23 21.05,-7.25 24.91,-7.38 30.05,-7.50 33.90,-7.60 35.36,-7.64 39.21,-7.73 44.14,-7.84 48.01,-7.91 49.41,-7.95 53.28,-8.06 59.17,-8.23 63.08,-8.31 63.84,-8.32 67.70,-8.38 73.21,-8.47 77.06,-8.54 86.95,-8.79 90.88,-8.86 92.84,-8.87 95.79,-8.90 96.66,-8.91 99.67,-9.00 106.67,-9.24 110.51,-9.32 119.57,-9.61"/>
        <lane id="544_3" index="3" disallow="bus truck rail_fast" speed="36.11" length="154.01" width="3.04" customShape="1" shape="-34.36,-2.72 -32.49,-2.79 -32.27,-2.80 -28.57,-2.86 -24.71,-2.98 -21.99,-2.99 -18.37,-3.10 -18.20,-3.11 -14.29,-3.14 -10.43,-3.27 -7.68,-3.32 -3.97,-3.46 -3.81,-3.46 0.14,-3.54 4.00,-3.67 6.55,-3.68 10.22,-3.77 10.40,-3.78 14.48,-3.80 18.33,-3.92 21.11,-3.96 24.80,-4.09 29.08,-4.21 32.93,-4.38 35.32,-4.44 39.26,-4.51 43.41,-4.59 47.30,-4.66 49.60,-4.73 53.46,-4.83 57.61,-4.95 61.47,-5.03 63.92,-5.10 67.77,-5.20 72.18,-5.32 76.04,-5.39 86.41,-5.56 90.29,-5.64 92.80,-5.67 96.67,-5.73 100.91,-5.83 104.81,-5.94 106.81,-6.00 110.66,-6.10 115.24,-6.24 119.06,-6.34 119.66,-6.36"/>
        <lane id="544_4" index="4" disallow="bus truck rail_fast" speed="36.11" length="154.01" width="3.18" customShape="1" shape="-34.34,0.57 -28.72,0.48 -28.46,0.47 -24.91,0.27 -24.67,0.27 -14.25,0.16 -14.10,0.15 -10.33,-0.05 -10.12,-0.06 0.17,-0.20 3.96,-0.41 14.53,-0.53 14.64,-0.54 18.43,-0.74 18.60,-0.75 29.07,-0.89 29.22,-0.90 32.86,-1.10 43.14,-1.30 43.50,-1.30 47.00,-1.37 47.37,-1.38 57.46,-1.66 57.59,-1.67 61.39,-1.74 61.56,-1.75 72.14,-2.10 72.24,-2.10 76.03,-2.18 86.50,-2.36 86.67,-2.36 90.35,-2.44 90.55,-2.44 100.98,-2.60 101.12,-2.60 104.83,-2.68 104.99,-2.68 115.36,-2.99 119.20,-3.07 119.76,-3.09"/>
        <lane id="544_5" index="5" disallow="bus truck rail_fast" speed="36.11" length="154.01" width="3.39" customShape="1" shape="-34.33,3.88 -28.66,3.85 -28.41,3.84 -28.25,3.84 -24.73,3.65 -24.27,3.63 -13.91,3.49 -13.63,3.48 -13.50,3.47 -9.99,3.29 -9.51,3.27 0.21,3.23 0.47,3.22 0.63,3.21 4.15,3.03 4.59,3.01 14.82,2.75 15.06,2.74 15.23,2.74 18.73,2.55 19.19,2.53 29.11,2.46 29.38,2.45 29.53,2.44 33.04,2.25 33.49,2.24 43.21,2.03 43.71,2.02 47.06,1.95 47.55,1.94 57.61,1.72 58.11,1.70 61.46,1.64 61.86,1.63 72.26,1.29 72.74,1.28 76.09,1.21 76.59,1.20 86.74,0.99 87.25,0.98 90.60,0.91 91.11,0.90 101.04,0.71 101.54,0.70 104.90,0.64 105.31,0.63 115.47,0.31 115.95,0.30 119.31,0.23 119.86,0.22"/>
    </edge>

    <junction id="1" type="dead_end" x="-34.37" y="-4.43" incLanes="" intLanes="" shape="-34.32,5.57 -34.42,-14.79"/>
    <junction id="2" type="dead_end" x="119.61" y="-8.06" incLanes="544_0 544_1 544_2 544_3 544_4 544_5" intLanes="" shape="119.29,-18.40 119.92,1.91"/>

</net>
