<routes>
	<vehicle depart="0.1" departLane="5" departPos="42.95344571155749" departSpeed="15.7033" id="484" type="passenger">
		<route edges="544"/>
	</vehicle>
	<vehicle depart="0.1" departLane="5" departPos="14.357608516927614" departSpeed="16.764" id="489" type="passenger">
		<route edges="544"/>
	</vehicle>
</routes>
