<routes>
	<vehicle depart="0.1" departLane="0" departPos="14.223509345400357" departSpeed="6.2394527" id="327" type="passenger">
		<route edges="40728 40766"/>
	</vehicle>
	<vehicle depart="0.1" departLane="0" departPos="30.382513576637827" departSpeed="5.6348108" id="345" type="passenger">
		<route edges=":73_2 40728 40762"/>
	</vehicle>
	<vehicle depart="0.1" departLane="0" departPos="30.690682313764125" departSpeed="0.0" id="350" type="passenger">
		<route edges="40890 40788"/>
	</vehicle>
	<vehicle depart="0.1" departLane="0" departPos="23.277616576522533" departSpeed="3.6380832e-05" id="358" type="passenger">
		<route edges="40890 40788"/>
	</vehicle>
	<vehicle depart="0.1" departLane="0" departPos="15.776775321602946" departSpeed="0.00018924808" id="367" type="passenger">
		<route edges="40890 40788"/>
	</vehicle>
	<vehicle depart="0.1" departLane="0" departPos="8.275319763961635" departSpeed="0.00068892394" id="374" type="passenger">
		<route edges="40890 40788"/>
	</vehicle>
	<vehicle depart="0.1" departLane="0" departPos="21.474782085345915" departSpeed="5.33263" id="380" type="passenger">
		<route edges=":69_5 40766"/>
	</vehicle>
	<vehicle depart="0.1" departLane="0" departPos="2.5" departSpeed="3.0658603" id="383" type="passenger">
		<route edges=":69_5 40766"/>
	</vehicle>
	<vehicle depart="0.1" departLane="0" departPos="33.93610781297687" departSpeed="3.1134843" id="384" type="passenger">
		<route edges="40763 40727"/>
	</vehicle>
</routes>
