<routes>
	<vehicle depart="0.1" departLane="0" departPos="35.17164072013063" departSpeed="4.7143709" id="331" type="bicycle">
		<route edges="2711 2708"/>
	</vehicle>
	<vehicle depart="0.1" departLane="0" departPos="15.527292345477655" departSpeed="0.082378719" id="319" type="passenger">
		<route edges=":39_3 2715"/>
	</vehicle>
	<vehicle depart="0.1" departLane="0" departPos="41.15029510139678" departSpeed="15.648662" id="345" type="passenger">
		<route edges="2711 2708"/>
	</vehicle>
	<vehicle depart="0.1" departLane="0" departPos="14.016390087246045" departSpeed="15.181788" id="347" type="passenger">
		<route edges="2711 2708"/>
	</vehicle>
	<vehicle depart="0.1" departLane="0" departPos="9.935506509404641" departSpeed="10.650383" id="349" type="passenger">
		<route edges="2816 2769"/>
	</vehicle>
	<vehicle depart="0.1" departLane="0" departPos="8.019304188661128" departSpeed="13.212862" id="351" type="passenger">
		<route edges=":39_5 2711 2708"/>
	</vehicle>
	<vehicle depart="0.1" departLane="0" departPos="54.45252021237622" departSpeed="11.583623" id="355" type="passenger">
		<route edges="2714 2711"/>
	</vehicle>
</routes>
