<!-- generated on 2020-12-18 15:43:58.736464 by ipykernel_launcher.py v1_2_0+5214-53edc58fcd
-->
<edges>
	<edge from="1" function="normal" id="23" length="56.141061240015546" numLanes="5" priority="1" speed="36.11111111111111" spreadType="center" to="2">
		<lane allow="pedestrian rail private passenger ship delivery vip emergency bicycle rail_electric army rail_urban trailer coach custom2 tram taxi evehicle custom1 motorcycle authority hov moped" index="0" length="56.141061240015546" shape="-27.36205,30.48855 -25.4637,28.7283 -17.651699999999998,21.61155 -17.07145,21.0739 -14.7097,18.90225 -7.4028,12.286999999999999 -6.6034,11.5546 -3.6841999999999997,8.83835 -0.62195,6.0891 4.19145,1.9199 7.1389499999999995,-0.725 8.68735,-2.06445 14.6255,-7.2284500000000005 14.63495,-7.236699999999999" speed="36.11111111111111" width="3.5709983926067506"/>
		<lane allow="pedestrian rail private passenger ship delivery vip emergency bicycle rail_electric army rail_urban trailer coach custom2 tram taxi evehicle custom1 motorcycle authority truck hov moped" index="1" length="56.141061240015546" shape="-24.9952,33.07565 -23.1009,31.32665 -17.448,26.1983 -15.24285,24.177599999999998 -14.55415,23.53545 -12.37605,21.54675 -6.2423,16.03245 -4.1715,14.13115 -3.3491999999999997,13.36435 -1.3107499999999999,11.5073 4.513199999999999,6.3882 6.5493500000000004,4.55505 7.399699999999999,3.7620999999999998 9.399149999999999,1.95525 15.5121,-3.3724999999999996 16.9103,-4.6297" speed="36.11111111111111" width="3.2505506856531245"/>
		<lane allow="pedestrian rail private passenger ship delivery vip emergency bicycle rail_electric army rail_urban trailer coach bus custom2 tram taxi evehicle custom1 motorcycle authority truck hov moped" index="2" length="56.141061240015546" shape="-22.72925,35.552350000000004 -20.371299999999998,33.4127 -17.4602,30.72475 -15.2142,28.678600000000003 -12.31045,26.00725 -9.58305,23.5499 -6.65735,20.87855 -4.01175,18.50945 -1.11155,15.85735 1.4523000000000001,13.5658 4.38085,10.8979 6.644349999999999,8.93135 9.57215,6.32965 12.335,3.94465 15.2737,1.2889 17.7132,-0.85395 19.1047,-2.11545" speed="36.11111111111111" width="3.189710972799886"/>
		<lane allow="pedestrian rail private passenger ship delivery vip emergency bicycle rail_electric army rail_urban trailer coach custom2 tram taxi evehicle custom1 motorcycle authority truck hov moped" index="3" length="56.141061240015546" shape="-20.4676,38.0245 -18.36235,36.114000000000004 -18.0995,35.872749999999996 -15.48425,33.434 -15.220949999999998,33.1905 -7.51415,26.158050000000003 -7.34435,26.0016 -4.63165,23.472 -4.4984,23.350450000000002 3.51175,16.1826 3.6888500000000004,16.02025 6.38725,13.50395 6.50885,13.3941 14.546050000000001,6.4723500000000005 14.63035,6.3962 17.48435,3.73705 17.60255,3.6308000000000002 21.3218,0.4248" speed="36.11111111111111" width="3.2118758662189926"/>
		<lane allow="pedestrian rail private passenger ship delivery vip emergency bicycle rail_electric army rail_urban trailer coach bus custom2 tram taxi evehicle custom1 motorcycle authority truck hov moped" index="4" length="56.141061240015546" shape="-18.133650000000003,40.575599999999994 -16.04615,38.665800000000004 -15.7554,38.3973 -13.134699999999999,35.95355 -12.8335,35.6751 -5.2102,28.6826 -4.9197,28.413899999999998 -2.3006,25.97175 -1.97965,25.67955 5.7982,18.73825 6.09055,18.47155 8.727599999999999,16.01365 9.06395,15.71125 16.9144,8.85205 17.2081,8.58695 19.8592,6.1171500000000005 20.22195,5.7984 23.557299999999998,2.98615" speed="36.11111111111111" width="3.479396558312949"/>
	</edge>
	<edge from="2" function="normal" id="20" length="212.3444861747039" numLanes="6" priority="1" speed="36.11111111111111" spreadType="center" to="3">
		<lane allow="pedestrian rail private passenger ship delivery vip emergency bicycle rail_electric army rail_urban trailer coach custom2 tram taxi evehicle custom1 motorcycle authority hov moped" index="0" length="212.3444861747039" shape="12.168700000000001,-10.0624 14.33295,-11.9174 15.05635,-12.56325 17.7262,-14.87725 18.449550000000002,-15.5231 21.15165,-17.901400000000002 21.875,-18.5473 24.592399999999998,-20.9359 25.31575,-21.58175 27.985599999999998,-23.8958 28.709,-24.54165 29.43595,-25.172849999999997 31.43945,-26.91525 32.16235,-27.561700000000002 34.8458,-29.92245 35.5687,-30.5689 38.32085,-32.9673 39.04375,-33.613749999999996 41.615449999999996,-35.8397 42.338300000000004,-36.486149999999995 45.05515,-38.8177 45.77805,-39.4641 48.62195,-41.9751 49.34485,-42.62155 52.0039,-44.97455 52.7268,-45.620999999999995 55.53985,-48.042699999999996 56.26275,-48.689099999999996 58.89305,-50.9911 59.615899999999996,-51.63755 62.3238,-54.0061 62.96835,-54.583 63.0502,-54.65535 65.87535,-57.036950000000004 66.59895,-57.682500000000005 69.21975,-60.0393 69.9434,-60.684799999999996 72.6143,-62.99785 73.3379,-63.6434 76.13075,-66.09129999999999 76.85435000000001,-66.73685 79.3646,-68.89985 80.08824999999999,-69.5454 82.86325,-71.97075000000001 83.58685,-72.6163 86.28345,-74.87785 87.0071,-75.52345 89.7487,-77.97794999999999 90.47235,-78.6235 91.13055,-79.19454999999999 93.20645,-80.99645 93.92994999999999,-81.64215 96.58175,-83.92750000000001 97.30525,-84.57325 100.00005,-86.8946 100.7235,-87.5403 105.22765,-91.4464 105.95115,-92.09215 108.82325,-94.549 109.54675,-95.1947 112.42654999999999,-97.67385 113.15005,-98.31954999999999 115.9745,-100.79595 116.69800000000001,-101.44165000000001 119.36834999999999,-103.7553 120.09185,-104.40100000000001 122.67415,-106.62425 122.8963,-106.82005000000001 123.6034,-107.48355000000001 124.09944999999999,-107.94264999999999 126.40950000000001,-109.986 127.12935,-110.636 129.9933,-113.19094999999999 130.71314999999998,-113.8409 133.5586,-116.36824999999999 134.27845,-117.01820000000001 137.03105,-119.43755 137.7509,-120.08755 139.6361,-121.71719999999999 140.48129999999998,-122.45045 142.1947,-123.9914 148.42700000000002,-129.28375 151.01525,-131.49085000000002 151.7427,-132.13175 154.56475,-134.5695 155.2921,-135.2104 155.93995,-135.7655 157.9855,-137.56095 158.70535,-138.21089999999998 161.37009999999998,-140.5617 162.09005,-141.21155 164.875,-143.6608 165.5949,-144.3107 168.3963,-146.74515 169.11625,-147.39505000000003 171.94529999999997,-149.9115" speed="36.11111111111111" width="3.681428812295585"/>
		<lane allow="pedestrian rail private passenger ship delivery vip emergency bicycle rail_electric army rail_urban trailer coach custom2 tram taxi evehicle custom1 motorcycle authority hov moped" index="1" length="212.3444861747039" shape="14.63495,-7.236699999999999 15.2408,-7.75355 16.821350000000002,-9.15655 17.53425,-9.8141 18.1734,-10.38455 20.01815,-11.91065 20.67275,-12.465399999999999 20.7857,-12.5565 21.378,-13.05535 21.55945,-13.2204 23.652749999999997,-15.1141 23.67425,-15.133849999999999 24.37255,-15.778100000000002 24.4655,-15.8617 27.0289,-18.115650000000002 27.7098,-18.72355 27.7793,-18.7838 30.43755,-21.09 31.102700000000002,-21.683999999999997 31.16615,-21.7393 31.63725,-22.149700000000003 33.90455,-24.1855 34.5441,-24.77535 34.56835,-24.79675 40.7033,-30.0748 41.37795,-30.665 41.4761,-30.748450000000002 42.384100000000004,-31.52145 42.448800000000006,-31.5814 44.1171,-33.070949999999996 44.82995,-33.72855 45.346450000000004,-34.182550000000006 47.495999999999995,-36.0165 48.15105,-36.598749999999995 48.20285,-36.644099999999995 51.03515,-39.130849999999995 51.72555,-39.7441 51.7752,-39.7875 53.3869,-41.2059 54.4951,-42.218 55.20805,-42.8756 56.361450000000005,-43.897099999999995 57.957049999999995,-45.25645 58.60125,-45.82645 58.6708,-45.88665 61.2996,-48.165000000000006 61.9681,-48.75605 62.039500000000004,-48.8178 64.36080000000001,-50.828599999999994 64.38185,-50.847 64.773,-51.1876 65.50345,-51.837999999999994 67.4417,-53.468 68.3338,-54.222750000000005 69.00110000000001,-54.819050000000004 71.5968,-57.1567 71.6465,-57.200649999999996 72.34125,-57.8225 72.41114999999999,-57.8831 75.06795,-60.1893 75.21465,-60.31985 75.7208,-60.7715 75.77785,-60.82145 78.2733,-63.00605 78.5994,-63.2954 79.3192,-63.9454 81.8159,-66.1232 82.5076,-66.74785 82.54965,-66.7849 85.2959,-69.21525 86.01570000000001,-69.86525 86.96575,-70.6688 88.6901,-72.11415 89.3509,-72.70265 89.8104,-73.11234999999999 92.05539999999999,-75.1034 92.79050000000001,-75.75274999999999 92.87375,-75.8242 95.61285000000001,-78.17805 96.26355,-78.75215 96.35640000000001,-78.83144999999999 97.7821,-80.04935 99.02725000000001,-81.1203 99.68424999999999,-81.7054 99.76515,-81.775 100.7761,-82.6459 102.4564,-84.10835 103.1768,-84.7577 107.66135,-88.68549999999999 108.38175,-89.33484999999999 108.46270000000001,-89.4037 111.2401,-91.7749 111.35294999999999,-91.8746 111.8018,-92.26775 111.91319999999999,-92.3612 114.80510000000001,-94.7836 115.13425000000001,-95.06524999999999 115.22335,-95.14465 115.53745,-95.42215 115.6061,-95.48145 118.27205000000001,-97.81485 118.46015,-97.98185000000001 119.1799,-98.6319 121.8363,-100.96095 122.55605,-101.611 123.68610000000001,-102.59469999999999 125.41284999999999,-104.07815 126.07235,-104.66555 126.1294,-104.7154 126.65265,-105.17305 128.91835,-107.1746 129.60735,-107.79585 129.639,-107.82400000000001 132.5043,-110.3771 133.19324999999998,-110.99825 133.23075,-111.03155000000001 135.70775,-113.22905 136.03640000000001,-113.51705 136.7165,-114.12245 136.78455,-114.1815 138.70475,-115.8477 139.5475,-116.57615 140.2,-117.15559999999999 140.2967,-117.2375 143.08679999999998,-119.61035000000001 143.73975,-120.1902 143.788,-120.23235 146.3693,-122.50444999999999 146.50475,-122.62415 147.20510000000002,-123.24755 147.30345,-123.33054999999999 149.4731,-125.17525 150.17765,-125.77879999999999 150.85404999999997,-126.38550000000001 150.92045000000002,-126.44295 153.46800000000002,-128.6562 154.14485000000002,-129.26330000000002 154.1934,-129.30595 156.9905,-131.7666 157.14479999999998,-131.9047 157.6411,-132.34765 157.70915,-132.4066 160.21465,-134.5783 160.45645000000002,-134.7905 161.14495,-135.41115000000002 161.19125000000003,-135.4519 163.8431,-137.78895 164.56349999999998,-138.43835 167.35014999999999,-140.88569999999999 168.0705,-141.5351 168.35410000000002,-141.78045 170.87145,-143.93894999999998 171.24345,-144.26954999999998 171.53365,-144.52875 171.58365,-144.5725 174.45735,-147.09545 174.45895,-147.09685000000002" speed="36.11111111111111" width="3.448898331351623"/>
		<lane allow="pedestrian rail private passenger ship delivery vip emergency bicycle rail_electric army rail_urban trailer coach custom2 tram taxi evehicle custom1 motorcycle authority hov moped" index="2" length="212.3444861747039" shape="16.9103,-4.6297 17.51625,-5.175800000000001 18.39855,-5.9986 20.27465,-7.666549999999999 20.4375,-7.7995 23.809150000000002,-10.5698 26.3334,-12.8079 26.4403,-12.90655 26.810000000000002,-13.2471 26.86635,-13.29685 29.43325,-15.614550000000001 33.89255,-19.463099999999997 36.76225,-22.02035 36.8802,-22.12105 37.518,-22.665399999999998 37.594350000000006,-22.7358 40.491550000000004,-25.299599999999998 44.67645,-28.854100000000003 47.521249999999995,-31.398 47.61865,-31.482149999999997 48.6241,-32.3517 51.57445,-35.003 55.682500000000005,-38.52615 58.54195,-41.0704 58.6539,-41.16625 59.76755,-42.1211 59.82665,-42.175799999999995 62.7243,-44.7663 66.69,-48.236000000000004 69.66385,-50.8543 70.78685,-51.8462 73.76495,-54.44365 77.5797,-57.77345 80.57545,-60.379599999999996 81.68295,-61.35635 84.65285,-63.97415 89.17875000000001,-67.97745 89.20925,-68.00399999999999 92.19075,-70.6052 92.78335000000001,-71.11745 95.785,-73.70384999999999 100.0695,-77.3895 103.05795,-79.9829 110.70490000000001,-86.69945 110.73775,-86.72795 113.73255,-89.32730000000001 115.27215000000001,-90.6271 117.58475,-92.5849 118.2547,-93.16725 120.57835,-95.219 125.9342,-100.01425 125.97534999999999,-100.05035000000001 128.9057,-102.59765 128.9206,-102.6109 136.77365,-109.61009999999999 137.93255,-110.63025 137.96255,-110.6563 139.7724,-112.22995 140.88455,-113.17685 148.438,-119.5861 148.48565000000002,-119.62729999999999 148.7716,-119.8745 151.4733,-122.223 151.79840000000002,-122.5147 159.1051,-129.09640000000002 159.43865,-129.3885 159.45589999999999,-129.40345000000002 162.10305,-131.7047 162.4602,-132.01945 170.26530000000002,-138.97775000000001 170.51555000000002,-139.19815 170.5448,-139.22359999999998 173.26875,-141.59175 173.49435,-141.78575 176.72379999999998,-144.5608" speed="36.11111111111111" width="3.2168796822386825"/>
		<lane allow="pedestrian rail private passenger ship delivery vip emergency bicycle rail_electric army rail_urban trailer coach custom2 tram taxi evehicle custom1 motorcycle authority truck hov moped" index="3" length="212.3444861747039" shape="19.1047,-2.11545 20.575400000000002,-3.4485 20.675649999999997,-3.53475 23.551949999999998,-6.019399999999999 26.5141,-8.648900000000001 28.64945,-10.4535 31.4861,-12.9727 31.60465,-13.0735 34.617450000000005,-15.63515 37.57535,-18.27185 39.7173,-20.121499999999997 42.5785,-22.7063 42.6693,-22.784950000000002 45.7328,-25.44125 48.68585,-28.081899999999997 50.72775,-29.80465 53.59055,-32.32265 53.72265,-32.43355 56.85835,-35.072 59.81855,-37.706649999999996 61.98315,-39.567049999999995 64.8397,-42.1396 64.9107,-42.202 68.09055,-45.0039 71.01859999999999,-47.67395 72.90185,-49.3256 72.93885,-49.35765 75.92905,-51.94695 79.1498,-54.7374 79.161,-54.7472 82.1515,-57.3487 83.92375,-58.911199999999994 86.89695,-61.530100000000004 90.0923,-64.35455 93.07825,-66.9593 94.96090000000001,-68.6251 97.93285,-71.24535 101.33205000000001,-74.237 104.3247,-76.83405 112.39275,-83.79305 112.40520000000001,-83.8039 115.39585,-86.39914999999999 117.36695,-88.09525 120.36410000000001,-90.67835 123.66355,-93.5658 123.70339999999999,-93.6012 126.65414999999999,-96.20570000000001 126.6851,-96.2333 128.16649999999998,-97.5532 131.1451,-100.16675000000001 134.66465,-103.29445 137.61445,-105.89150000000001 137.65109999999999,-105.92435 138.9951,-107.12695 141.96425,-109.75125 145.45315,-112.76865000000001 148.4703,-115.33625 150.6189,-117.161 153.60715,-119.75280000000001 157.15294999999998,-122.9163 160.10825,-125.5596 161.20409999999998,-126.53895 161.27755000000002,-126.6027 164.2671,-129.19819999999999 167.9984,-132.47770000000003 170.9763,-135.10055 171.0033,-135.12455 172.50205,-136.4548 175.48245,-139.06615 178.94925,-142.06889999999999" speed="36.11111111111111" width="3.049599213011436"/>
		<lane allow="pedestrian rail private passenger ship delivery vip emergency bicycle rail_electric army rail_urban trailer coach custom2 tram taxi evehicle custom1 motorcycle authority hov moped" index="4" length="212.3444861747039" shape="21.3218,0.4248 25.63055,-3.28925 25.823050000000002,-3.46465 28.49505,-5.956300000000001 28.556199999999997,-6.01335 28.6828,-6.12125 36.823,-13.0609 36.9919,-13.213750000000001 39.773849999999996,-15.8042 39.935249999999996,-15.94895 47.9443,-22.826 48.01745,-22.8933 50.80145,-25.4894 59.05075,-32.538 59.1716,-32.6483 61.98555,-35.2704 62.1155,-35.38615 70.26615000000001,-42.3845 70.38315,-42.491249999999994 73.12205,-45.0453 81.092,-51.9621 81.37355,-52.20585 84.07884999999999,-54.5575 84.36675,-54.8084 92.1477,-61.678799999999995 92.27175,-61.788250000000005 92.30510000000001,-61.81725 95.1819,-64.31845 95.3109,-64.43215000000001 103.41635,-71.66805 103.4482,-71.6965 103.4985,-71.74029999999999 106.42865,-74.28784999999999 106.49,-74.3412 114.5599,-81.31909999999999 114.69749999999999,-81.4388 117.5493,-83.91785 117.69935,-84.0471 125.8197,-91.04005 125.9216,-91.12795 128.79989999999998,-93.63 128.925,-93.7401 136.8924,-100.8084 139.8693,-103.39625 147.5688,-110.22815 147.60354999999998,-110.25855 147.81394999999998,-110.44255 150.58620000000002,-112.8524 150.81025,-113.04675 159.19275,-120.24065 159.2165,-120.2613 159.46314999999998,-120.47495 162.20255,-122.8563 162.4787,-123.10175 170.11645,-129.86325 170.26055,-129.98829999999998 173.1046,-132.46055 173.251,-132.58785 181.1981,-139.55075" speed="36.11111111111111" width="3.2654832184532836"/>
		<lane allow="pedestrian rail private passenger ship delivery vip emergency bicycle rail_electric army rail_urban trailer coach custom2 tram taxi evehicle custom1 motorcycle authority hov moped" index="5" length="212.3444861747039" shape="23.557299999999998,2.98615 27.890349999999998,-0.6674 28.12225,-0.87015 28.24725,-0.9864 30.8585,-3.4158 31.210900000000002,-3.72925 39.2812,-10.657350000000001 39.523399999999995,-10.8721 39.626599999999996,-10.9682 42.23695,-13.39855 42.60235,-13.71955 50.23935,-20.15385 50.47085,-20.356099999999998 50.59675,-20.4732 53.20805,-22.902549999999998 53.54375,-23.2053 61.44055,-30.1406 61.6957,-30.370449999999998 61.77105,-30.440649999999998 64.3805,-32.87195 64.74029999999999,-33.18935 72.50735,-39.7739 72.74234999999999,-39.98025 72.86075,-40.090500000000006 75.4718,-42.52015 75.8122,-42.825950000000006 83.3306,-49.382949999999994 83.719,-49.721149999999994 86.31864999999999,-51.98095 86.6996,-52.3129 94.47205,-59.10215 94.85929999999999,-59.43955 97.45894999999999,-61.69945 97.79910000000001,-61.9987 97.8313,-62.02735 105.73910000000001,-69.07464999999999 106.1117,-69.40245 108.7114,-71.66235 109.099,-71.99950000000001 116.95725,-78.84129999999999 117.3469,-79.18025 119.94655,-81.44015 120.3386,-81.78065000000001 128.03910000000002,-88.46334999999999 128.42895,-88.80195 131.0308,-91.06365 131.37695000000002,-91.36779999999999 131.40535,-91.39304999999999 139.1492,-98.2737 139.524,-98.60294999999999 142.12365,-100.86285000000001 142.49845,-101.1899 142.50865,-101.19885 150.0895,-107.84075 150.4745,-108.17675 153.07420000000002,-110.43655000000001 153.48065000000003,-110.78605 161.493,-117.60505 161.8718,-117.9307 161.8992,-117.95455 164.499,-120.21424999999999 164.80775,-120.48765 164.85975000000002,-120.53475 172.3635,-127.32669999999999 172.72495,-127.64689999999999 175.3246,-129.90675 175.7154,-130.24644999999998 183.47975,-136.99585000000002" speed="36.11111111111111" width="3.479158429850529"/>
	</edge>
	<edge from="3" function="normal" id="22" length="33.770460410259034" numLanes="5" priority="1" speed="36.11111111111111" spreadType="center" to="4">
		<lane allow="pedestrian rail private passenger ship delivery vip emergency bicycle rail_electric army rail_urban trailer coach bus custom2 tram taxi evehicle custom1 motorcycle authority truck hov moped" index="0" length="33.770460410259034" shape="174.45895,-147.09685000000002 179.17145,-151.21095 182.1562,-153.8164 182.168,-153.82675 190.28910000000002,-160.94945 193.27415000000002,-163.55515 199.94664999999998,-169.4323" speed="36.11111111111111" width="3.507742570372002"/>
		<lane allow="pedestrian rail private passenger ship delivery vip emergency bicycle rail_electric army rail_urban trailer coach custom2 tram taxi evehicle custom1 motorcycle authority hov moped" index="1" length="33.770460410259034" shape="176.72379999999998,-144.5608 181.4058,-148.58474999999999 181.5207,-148.68335000000002 181.54964999999999,-148.70850000000002 184.4407,-151.22140000000002 184.5222,-151.2926 192.52055000000001,-158.2975 192.55635,-158.32875 192.56799999999998,-158.3389 195.52224999999999,-160.90705 195.56405,-160.9436 202.23595,-166.82235" speed="36.11111111111111" width="3.2925795176426846"/>
		<lane allow="pedestrian rail private passenger ship delivery vip emergency bicycle rail_electric army rail_urban trailer coach custom2 tram taxi evehicle custom1 motorcycle authority hov moped" index="2" length="33.770460410259034" shape="178.94925,-142.06889999999999 179.25189999999998,-142.33044999999998 182.257,-144.9128 183.7533,-146.2287 186.7144,-148.8605 190.34555,-152.09615000000002 193.32635,-154.6943 194.6033,-155.7886 197.62095,-158.36665 201.3226,-161.54255 201.3706,-161.5845 204.36155,-164.1954 204.46215,-164.28435" speed="36.11111111111111" width="3.088246003802171"/>
		<lane allow="pedestrian rail private passenger ship delivery vip emergency bicycle rail_electric army rail_urban trailer coach custom2 tram taxi evehicle custom1 motorcycle authority hov moped" index="3" length="33.770460410259034" shape="181.1981,-139.55075 181.4306,-139.75455 181.4488,-139.77035 181.54829999999998,-139.857 184.44085,-142.37144999999998 192.2714,-149.43765000000002 192.43655,-149.5851 192.49130000000002,-149.63285 195.30505,-152.07985 195.44344999999998,-152.1991 195.4792,-152.22924999999998 203.55995000000001,-159.0636 203.68239999999997,-159.1689 203.70765,-159.1908 206.56365,-161.6733 206.6524,-161.75125 206.67025,-161.76704999999998" speed="36.11111111111111" width="3.362910776395929"/>
		<lane allow="pedestrian rail private passenger ship delivery vip emergency bicycle rail_electric army rail_urban trailer coach custom2 tram taxi evehicle custom1 motorcycle authority hov moped" index="4" length="33.770460410259034" shape="183.47975,-136.99585000000002 183.7979,-137.27245 184.18869999999998,-137.61214999999999 186.78834999999998,-139.87195 187.11655000000002,-140.1615 187.15625,-140.19709999999998 194.61124999999998,-146.8799 194.97965,-147.20485000000002 197.5793,-149.46474999999998 197.985,-149.81375000000003 205.94285000000002,-156.5933 206.3222,-156.91965 206.3483,-156.94234999999998 208.9322,-159.18824999999998" speed="36.11111111111111" width="3.4821943842927663"/>
	</edge>
	<edge from="5" function="normal" id="21" length="56.59496615334058" numLanes="1" priority="1" speed="36.11111111111111" spreadType="center" to="2">
		<lane allow="pedestrian rail private passenger ship delivery vip emergency bicycle rail_electric army rail_urban trailer coach bus custom2 tram taxi evehicle custom1 motorcycle authority truck hov moped" index="0" length="56.59496615334058" shape="-31.194850000000002,26.299100000000003 -25.453400000000002,21.625500000000002 -23.79925,20.258850000000002 -15.24765,13.155550000000002 -3.4025999999999996,3.3701499999999998 -3.0814,3.1047 2.77545,-1.87705 6.2354,-4.88195 12.168700000000001,-10.0624" speed="36.11111111111111" width="3.6400067087850263"/>
	</edge>
	<edge from="3" function="normal" id="19" length="33.93586703031025" numLanes="1" priority="1" speed="36.11111111111111" spreadType="center" to="6">
		<lane allow="pedestrian rail private passenger ship delivery vip emergency bicycle rail_electric army rail_urban trailer coach bus custom2 tram taxi evehicle custom1 motorcycle authority truck hov moped" index="0" length="33.93586703031025" shape="171.94529999999997,-149.9115 177.3468,-154.7867 190.32215000000002,-166.6596 196.88299999999998,-172.92505" speed="36.11111111111111" width="3.9632723701506998"/>
	</edge>
</edges>
