<!-- generated on 2020-12-18 15:43:58.812510 by ipykernel_launcher.py v1_2_0+5214-53edc58fcd
-->
<nodes>
	<node id="1" type="from" x="-22.737550000000002" y="35.543330000000005"/>
	<node id="2" type="to" x="19.105809999999998" y="-2.1141799999999997"/>
	<node id="3" type="to" x="177.79252499999998" y="-143.36410833333335"/>
	<node id="4" type="to" x="204.44943999999998" y="-164.29885999999996"/>
	<node id="5" type="from" x="-31.194850000000002" y="26.299100000000003"/>
	<node id="6" type="to" x="196.88299999999998" y="-172.92505"/>
</nodes>
