<routes>
	<vehicle depart="0.1" departLane="5" departPos="16.33192795754334" departSpeed="17.9062" id="661" type="passenger">
		<route edges="20 22"/>
	</vehicle>
	<vehicle depart="0.1" departLane="2" departPos="15.70163463531881" departSpeed="15.3142" id="665" type="passenger">
		<route edges="20 22"/>
	</vehicle>
	<vehicle depart="0.1" departLane="3" departPos="2.654955572428041" departSpeed="16.0047" id="667" type="passenger">
		<route edges="20 22"/>
	</vehicle>
	<vehicle depart="0.1" departLane="0" departPos="17.13574861966665" departSpeed="13.1466" id="668" type="passenger">
		<route edges="20 20 22"/>
	</vehicle>
	<vehicle depart="0.1" departLane="4" departPos="10.717387394118614" departSpeed="12.785" id="669" type="passenger">
		<route edges="20 22"/>
	</vehicle>
	<vehicle depart="0.1" departLane="3" departPos="36.45265273852551" departSpeed="13.7342" id="671" type="passenger">
		<route edges="23 20 22"/>
	</vehicle>
	<vehicle depart="0.1" departLane="5" departPos="0" departSpeed="15.3928" id="672" type="passenger">
		<route edges="20 22"/>
	</vehicle>
	<vehicle depart="0.1" departLane="3" departPos="56.22103303280831" departSpeed="14.3509" id="675" type="passenger">
		<route edges="23 20 22"/>
	</vehicle>
	<vehicle depart="0.1" departLane="4" departPos="27.65514278924125" departSpeed="14.3269" id="676" type="passenger">
		<route edges="23 20 22"/>
	</vehicle>
	<vehicle depart="0.1" departLane="0" departPos="56.59496615334058" departSpeed="12.1428" id="679" type="passenger">
		<route edges="21 20 20 22"/>
	</vehicle>
	<vehicle depart="0.1" departLane="1" departPos="44.15349289966347" departSpeed="14.0295" id="680" type="passenger">
		<route edges="23 20 22"/>
	</vehicle>
	<vehicle depart="0.1" departLane="4" departPos="46.14876813953612" departSpeed="14.2449" id="681" type="passenger">
		<route edges="23 20 22"/>
	</vehicle>
	<vehicle depart="0.1" departLane="3" departPos="44.7598428080955" departSpeed="12.0566" id="682" type="passenger">
		<route edges="23 20 22"/>
	</vehicle>
	<vehicle depart="0.1" departLane="2" departPos="28.96165752910535" departSpeed="13.4329" id="683" type="passenger">
		<route edges="23 20 22"/>
	</vehicle>
	<vehicle depart="0.1" departLane="0" departPos="40.00274934349914" departSpeed="12.2933" id="689" type="passenger">
		<route edges="23 20 22"/>
	</vehicle>
</routes>
