<routes>
	<vehicle depart="0.1" departLane="0" departPos="70.4475843545315" departSpeed="0.72803235" id="32" type="passenger">
		<route edges="4625 4628"/>
	</vehicle>
	<vehicle depart="0.1" departLane="0" departPos="62.39947314723862" departSpeed="0.0" id="33" type="passenger">
		<route edges="4627 4508"/>
	</vehicle>
	<vehicle depart="0.1" departLane="0" departPos="69.90068361836894" departSpeed="0.0" id="324" type="passenger">
		<route edges="4627 4508"/>
	</vehicle>
	<vehicle depart="0.1" departLane="0" departPos="37.75983338329983" departSpeed="14.36022" id="340" type="passenger">
		<route edges=":35_1 4505 4508"/>
	</vehicle>
	<vehicle depart="0.1" departLane="0" departPos="14.849132931259481" departSpeed="14.677058" id="345" type="passenger">
		<route edges=":35_1 4505 4508"/>
	</vehicle>
	<vehicle depart="0.1" departLane="0" departPos="23.960761084470775" departSpeed="15.176874" id="357" type="passenger">
		<route edges=":34_1 4502 4875"/>
	</vehicle>
	<vehicle depart="0.1" departLane="0" departPos="16.87432683825631" departSpeed="0.40365166" id="30" type="truck">
		<route edges=":35_5 4501"/>
	</vehicle>
</routes>
