<routes>
	<vehicle depart="0.1" departLane="0" departPos="23.59290050194938" departSpeed="4.8349707" id="352" type="bicycle">
		<route edges=":79_4 69554 69715"/>
	</vehicle>
	<vehicle depart="0.1" departLane="0" departPos="55.75341615793452" departSpeed="0.0" id="36" type="passenger">
		<route edges="69725 69623"/>
	</vehicle>
	<vehicle depart="0.1" departLane="0" departPos="48.25251861883782" departSpeed="0.00012824016" id="318" type="passenger">
		<route edges="69725 69623"/>
	</vehicle>
	<vehicle depart="0.1" departLane="0" departPos="19.97932474275936" departSpeed="8.3285366" id="379" type="passenger">
		<route edges=":82_3 69724 69598"/>
	</vehicle>
	<vehicle depart="0.1" departLane="0" departPos="59.65752574929733" departSpeed="11.846243" id="394" type="passenger">
		<route edges="69622 69619"/>
	</vehicle>
	<vehicle depart="0.1" departLane="0" departPos="21.21235509451601" departSpeed="9.6138107" id="398" type="passenger">
		<route edges="69622 69724"/>
	</vehicle>
	<vehicle depart="0.1" departLane="0" departPos="7.086735078618176" departSpeed="0.390306" id="30" type="truck">
		<route edges=":79_3 69620"/>
	</vehicle>
	<vehicle depart="0.1" departLane="0" departPos="17.08613930421184" departSpeed="5.3085037" id="371" type="truck">
		<route edges=":82_2 69619"/>
	</vehicle>
</routes>
