<routes>
	<vehicle depart="0.1" departLane="0" departPos="28.775614156174598" departSpeed="0.0" id="313" type="passenger">
		<route edges="5960 6262"/>
	</vehicle>
	<vehicle depart="0.1" departLane="0" departPos="63.725135669693785" departSpeed="1.5237887" id="322" type="passenger">
		<route edges="6259 6262"/>
	</vehicle>
	<vehicle depart="0.1" departLane="0" departPos="35.76942278509315" departSpeed="0.0" id="338" type="passenger">
		<route edges="5960 6262"/>
	</vehicle>
	<vehicle depart="0.1" departLane="0" departPos="10.016276888327033" departSpeed="0.36029774" id="356" type="passenger">
		<route edges=":113_4 6262"/>
	</vehicle>
	<vehicle depart="0.1" departLane="0" departPos="58.65717154034902" departSpeed="14.541428" id="3119" type="passenger">
		<route edges="6261 6258 5843"/>
	</vehicle>
	<vehicle depart="0.1" departLane="0" departPos="11.313053991756835" departSpeed="12.123461" id="3134" type="passenger">
		<route edges="6261 6258"/>
	</vehicle>
	<vehicle depart="0.1" departLane="0" departPos="33.44512767834786" departSpeed="6.2390216" id="3139" type="passenger">
		<route edges="6261 6258"/>
	</vehicle>
	<vehicle depart="0.1" departLane="0" departPos="77.0300040140861" departSpeed="0.303123" id="37" type="truck">
		<route edges="6259 6262"/>
	</vehicle>
</routes>
