<routes>
	<vehicle depart="0.1" departLane="0" departPos="10.603958623042407" departSpeed="6.0285842" id="311" type="bicycle">
		<route edges="44777 44780"/>
	</vehicle>
	<vehicle depart="0.1" departLane="0" departPos="15.912091940294971" departSpeed="1.2553384" id="32" type="passenger">
		<route edges=":34_3 44773"/>
	</vehicle>
	<vehicle depart="0.1" departLane="0" departPos="71.43918923807097" departSpeed="0.18487107" id="36" type="passenger">
		<route edges="44694 44780"/>
	</vehicle>
	<vehicle depart="0.1" departLane="0" departPos="19.089381183044903" departSpeed="8.2538881" id="39" type="passenger">
		<route edges=":37_2 44776 44773"/>
	</vehicle>
	<vehicle depart="0.1" departLane="0" departPos="56.78301241076047" departSpeed="1.2274483" id="313" type="passenger">
		<route edges="44694 44780"/>
	</vehicle>
	<vehicle depart="0.1" departLane="0" departPos="46.840198681083" departSpeed="1.7156545" id="316" type="passenger">
		<route edges="44694 44780"/>
	</vehicle>
	<vehicle depart="0.1" departLane="0" departPos="50.88813127270933" departSpeed="1.9294516" id="331" type="passenger">
		<route edges="44779 44776"/>
	</vehicle>
	<vehicle depart="0.1" departLane="0" departPos="57.78447643756696" departSpeed="1.9208331" id="329" type="motorcycle">
		<route edges="44779 44776"/>
	</vehicle>
	<vehicle depart="0.1" departLane="0" departPos="69.85822439263411" departSpeed="1.0292198" id="318" type="truck">
		<route edges="44779 44776"/>
	</vehicle>
</routes>
