<!-- generated on Tue Feb  9 22:14:46 2021 by Eclipse SUMO netconvert Version 1.8.0
<configuration xmlns:xsi="http://www.w3.org/2001/XMLSchema-instance" xsi:noNamespaceSchemaLocation="http://sumo.dlr.de/xsd/netconvertConfiguration.xsd">

    <input>
        <node-files value="./converted_scenarios/scenario-factory/DEU_Hennigsdorf-16_5_I-1-1/DEU_Hennigsdorf-16_5_I-1-1.nod.xml"/>
        <edge-files value="./converted_scenarios/scenario-factory/DEU_Hennigsdorf-16_5_I-1-1/DEU_Hennigsdorf-16_5_I-1-1.edg.xml"/>
        <connection-files value="./converted_scenarios/scenario-factory/DEU_Hennigsdorf-16_5_I-1-1/DEU_Hennigsdorf-16_5_I-1-1.con.xml"/>
        <tllogic-files value="./converted_scenarios/scenario-factory/DEU_Hennigsdorf-16_5_I-1-1/DEU_Hennigsdorf-16_5_I-1-1.tll.xml"/>
        <type-files value="/home/zen/commonroad-interactive-benchmarks/install/commonroad-map-tool/crmapconverter/sumo_map/templates/DEU.typ.xml"/>
    </input>

    <output>
        <output-file value="./converted_scenarios/scenario-factory/DEU_Hennigsdorf-16_5_I-1-1/DEU_Hennigsdorf-16_5_I-1-1.net.xml"/>
    </output>

    <processing>
        <geometry.remove.keep-edges.explicit value="true"/>
        <geometry.avoid-overlap value="true"/>
        <offset.disable-normalization value="true"/>
    </processing>

    <junctions>
        <no-turnarounds value="true"/>
        <junctions.internal-link-detail value="20"/>
    </junctions>

    <report>
        <aggregate-warnings value="5"/>
    </report>

    <random_number>
        <seed value="1234"/>
    </random_number>

</configuration>
--><net xmlns:xsi="http://www.w3.org/2001/XMLSchema-instance" version="1.6" junctionCornerDetail="5" junctionLinkDetail="20" limitTurnSpeed="5.50" xsi:noNamespaceSchemaLocation="http://sumo.dlr.de/xsd/net_file.xsd">

    <location netOffset="0.00,0.00" convBoundary="95.98,512.70,291.77,742.21" origBoundary="95.98,512.57,294.82,742.21" projParameter="!"/>

    <type id="highway.bridleway" priority="1" speed="2.78" allow="pedestrian" oneway="1" width="2.00"/>
    <type id="highway.bus_guideway" priority="1" speed="27.78" allow="bus" oneway="1"/>
    <type id="highway.cycleway" priority="1" speed="8.33" allow="bicycle" oneway="0" width="1.00"/>
    <type id="highway.footway" priority="1" speed="2.78" allow="pedestrian" oneway="1" width="2.00"/>
    <type id="highway.ford" priority="1" speed="2.78" allow="army" oneway="0"/>
    <type id="highway.living_street" priority="2" speed="2.78" disallow="tram rail_urban rail rail_electric rail_fast ship" oneway="0"/>
    <type id="highway.motorway" priority="14" speed="39.44" allow="private emergency authority army vip passenger hov taxi bus coach delivery truck trailer motorcycle evehicle custom1 custom2" oneway="1"/>
    <type id="highway.motorway_link" priority="9" speed="22.22" allow="private emergency authority army vip passenger hov taxi bus coach delivery truck trailer motorcycle evehicle custom1 custom2" oneway="1"/>
    <type id="highway.path" priority="1" speed="2.78" allow="pedestrian bicycle" oneway="0" width="2.00"/>
    <type id="highway.pedestrian" priority="1" speed="2.78" allow="pedestrian" oneway="1" width="2.00"/>
    <type id="highway.primary" priority="12" speed="27.78" disallow="pedestrian tram rail_urban rail rail_electric rail_fast ship" oneway="0"/>
    <type id="highway.primary_link" priority="7" speed="22.22" disallow="pedestrian tram rail_urban rail rail_electric rail_fast ship" oneway="0"/>
    <type id="highway.raceway" priority="15" speed="83.33" allow="vip" oneway="0"/>
    <type id="highway.residential" priority="3" speed="13.89" disallow="pedestrian tram rail_urban rail rail_electric rail_fast ship" oneway="0"/>
    <type id="highway.secondary" priority="11" speed="27.78" disallow="pedestrian tram rail_urban rail rail_electric rail_fast ship" oneway="0"/>
    <type id="highway.secondary_link" priority="6" speed="22.22" disallow="pedestrian tram rail_urban rail rail_electric rail_fast ship" oneway="0"/>
    <type id="highway.service" priority="1" speed="5.56" allow="pedestrian delivery bicycle" oneway="0"/>
    <type id="highway.stairs" priority="1" speed="1.39" allow="pedestrian" oneway="1" width="2.00"/>
    <type id="highway.step" priority="1" speed="1.39" allow="pedestrian" oneway="1" width="2.00"/>
    <type id="highway.steps" priority="1" speed="1.39" allow="pedestrian" oneway="1" width="2.00"/>
    <type id="highway.tertiary" priority="10" speed="22.22" disallow="pedestrian tram rail_urban rail rail_electric rail_fast ship" oneway="0"/>
    <type id="highway.tertiary_link" priority="5" speed="22.22" disallow="pedestrian tram rail_urban rail rail_electric rail_fast ship" oneway="0"/>
    <type id="highway.track" priority="1" speed="5.56" allow="pedestrian motorcycle moped bicycle" oneway="0"/>
    <type id="highway.trunk" priority="13" speed="27.78" disallow="pedestrian bicycle tram rail_urban rail rail_electric rail_fast ship" oneway="0"/>
    <type id="highway.trunk_link" priority="8" speed="22.22" disallow="pedestrian bicycle tram rail_urban rail rail_electric rail_fast ship" oneway="0"/>
    <type id="highway.unclassified" priority="4" speed="13.89" disallow="pedestrian tram rail_urban rail rail_electric rail_fast ship" oneway="0"/>
    <type id="highway.unsurfaced" priority="1" speed="8.33" disallow="tram rail_urban rail rail_electric rail_fast ship" oneway="0"/>
    <type id="railway.highspeed" priority="21" speed="69.44" allow="rail_fast" oneway="1"/>
    <type id="railway.light_rail" priority="19" speed="27.78" allow="rail_urban" oneway="1"/>
    <type id="railway.preserved" priority="16" speed="27.78" allow="rail" oneway="1"/>
    <type id="railway.rail" priority="20" speed="44.44" allow="rail" oneway="1"/>
    <type id="railway.subway" priority="18" speed="27.78" allow="rail_urban" oneway="1"/>
    <type id="railway.tram" priority="17" speed="13.89" allow="tram" oneway="1"/>

    <edge id=":25_0" function="internal">
        <lane id=":25_0_0" index="0" disallow="pedestrian tram rail_urban rail rail_electric rail_fast ship" speed="36.11" length="2.98" width="3.50" shape="266.93,612.82 267.06,615.80"/>
    </edge>
    <edge id=":48_0" function="internal">
        <lane id=":48_0_0" index="0" disallow="pedestrian tram rail_urban rail rail_electric rail_fast ship" speed="10.40" length="33.50" width="3.50" shape="258.72,590.45 258.32,586.36 257.78,583.68 256.94,581.08 256.04,579.24 254.84,577.58 253.85,576.64 252.71,575.88 251.46,575.34 250.13,575.01 248.08,574.90 246.05,575.14 243.41,575.83 240.24,577.11 236.60,579.03"/>
    </edge>
    <edge id=":48_1" function="internal">
        <lane id=":48_1_0" index="0" disallow="pedestrian tram rail_urban rail rail_electric rail_fast ship" speed="36.11" length="58.49" width="3.50" shape="258.72,590.45 256.81,558.23 254.95,532.08"/>
    </edge>
    <edge id=":48_2" function="internal">
        <lane id=":48_2_0" index="0" disallow="pedestrian tram rail_urban rail rail_electric rail_fast ship" speed="32.81" length="57.27" width="3.50" shape="262.22,590.25 262.32,588.46 262.78,586.28 263.56,583.75 264.62,580.94 265.91,577.88 267.40,574.64 269.05,571.27 270.83,567.81 272.69,564.33 274.59,560.86 276.49,557.46 278.37,554.19 280.17,551.10 281.85,548.23 283.39,545.65 284.74,543.39 285.86,541.52 286.71,540.08 287.26,539.12"/>
    </edge>
    <edge id=":48_3" function="internal">
        <lane id=":48_3_0" index="0" disallow="pedestrian tram rail_urban rail rail_electric rail_fast ship" speed="19.72" length="58.02" width="3.50" shape="295.15,544.56 283.88,551.37 280.48,553.96 277.71,556.46 275.16,559.20 272.87,562.15 270.88,565.32 269.21,568.66 267.87,572.15 266.85,575.74 266.15,579.42 265.72,583.67 265.64,587.94 265.71,590.07"/>
    </edge>
    <edge id=":48_4" function="internal">
        <lane id=":48_4_0" index="0" disallow="pedestrian tram rail_urban rail rail_electric rail_fast ship" speed="36.11" length="67.94" width="3.50" shape="295.15,544.56 262.04,564.05 236.60,579.03"/>
    </edge>
    <edge id=":48_5" function="internal">
        <lane id=":48_5_0" index="0" disallow="pedestrian tram rail_urban rail rail_electric rail_fast ship" speed="36.11" length="58.64" width="3.50" shape="261.93,531.55 264.15,563.32 265.71,590.07"/>
    </edge>
    <edge id=":48_6" function="internal">
        <lane id=":48_6_0" index="0" disallow="pedestrian tram rail_urban rail rail_electric rail_fast ship" speed="18.93" length="55.20" width="3.50" shape="258.45,531.81 258.68,537.17 258.55,541.99 258.07,546.79 257.30,551.00 256.18,555.14 254.88,558.66 253.29,562.05 251.39,565.29 249.19,568.33 246.72,571.15 244.01,573.74 241.09,576.09 237.53,578.48 236.60,579.03"/>
    </edge>
    <edge id=":48_7" function="internal">
        <lane id=":48_7_0" index="0" disallow="pedestrian tram rail_urban rail rail_electric rail_fast ship" speed="17.90" length="49.24" width="3.50" shape="233.08,572.98 237.14,570.39 240.55,567.79 243.33,565.28 245.88,562.54 248.18,559.58 250.17,556.41 251.83,553.05 253.15,549.54 254.12,545.93 254.75,542.23 255.09,537.97 255.05,533.68 254.95,532.08"/>
    </edge>
    <edge id=":48_8" function="internal">
        <lane id=":48_8_0" index="0" disallow="pedestrian tram rail_urban rail rail_electric rail_fast ship" speed="36.11" length="64.12" width="3.50" shape="233.08,572.98 288.33,540.45"/>
    </edge>
    <edge id=":48_9" function="internal">
        <lane id=":48_9_0" index="0" disallow="pedestrian tram rail_urban rail rail_electric rail_fast ship" speed="12.06" length="45.58" width="3.50" shape="234.84,576.00 239.04,573.74 242.76,572.07 245.98,570.95 248.62,570.31 251.33,570.00 253.37,570.04 255.38,570.38 257.30,571.07 259.04,572.12 260.56,573.48 261.82,575.09 262.84,576.85 263.88,579.37 264.78,582.65 265.35,586.00 265.71,590.07"/>
    </edge>
    <edge id=":5_0" function="internal">
        <lane id=":5_0_0" index="0" disallow="pedestrian tram rail_urban rail rail_electric rail_fast ship" speed="36.11" length="2.95" width="3.50" shape="225.32,585.58 222.75,587.02"/>
    </edge>
    <edge id=":50_0" function="internal">
        <lane id=":50_0_0" index="0" disallow="pedestrian tram rail_urban rail rail_electric rail_fast ship" speed="12.83" length="41.74" width="3.50" shape="163.17,641.06 161.88,639.21 160.42,637.50 158.76,635.97 156.90,634.69 154.86,633.72 153.79,633.37 152.69,633.11 151.58,632.94 149.33,632.85 147.08,633.08 144.88,633.55 142.73,634.24 139.61,635.57 136.63,637.16 133.76,638.96 130.09,641.60 127.44,643.71"/>
    </edge>
    <edge id=":50_1" function="internal">
        <lane id=":50_1_0" index="0" disallow="pedestrian tram rail_urban rail rail_electric rail_fast ship" speed="36.11" length="43.61" width="3.50" shape="163.17,641.06 161.32,638.56 159.16,636.32 156.76,634.34 154.18,632.59 149.67,630.02 141.37,625.70 137.82,623.56 135.29,621.73 132.97,619.66 130.93,617.30 129.76,615.58 129.25,614.68"/>
    </edge>
    <edge id=":50_2" function="internal">
        <lane id=":50_2_0" index="0" disallow="pedestrian tram rail_urban rail rail_electric rail_fast ship" speed="36.11" length="47.92" width="3.50" shape="167.32,617.22 155.07,624.53 144.75,631.11 136.35,636.88 129.82,641.78 127.44,643.71"/>
    </edge>
    <edge id=":50_3" function="internal">
        <lane id=":50_3_0" index="0" disallow="pedestrian tram rail_urban rail rail_electric rail_fast ship" speed="13.53" length="43.42" width="3.50" shape="167.32,617.22 165.19,618.42 160.83,620.62 157.42,622.07 153.90,623.29 150.25,624.18 147.72,624.54 145.14,624.66 142.54,624.46 139.99,623.92 138.70,623.49 137.47,622.96 136.26,622.31 134.11,620.79 132.21,618.95 130.60,616.89 129.25,614.68"/>
    </edge>
    <edge id=":50_4" function="internal">
        <lane id=":50_4_0" index="0" disallow="pedestrian tram rail_urban rail rail_electric rail_fast ship" speed="12.65" length="37.78" width="3.50" shape="132.32,613.01 133.49,614.91 134.87,616.65 136.50,618.17 138.34,619.40 139.34,619.89 140.37,620.30 141.44,620.62 143.62,621.01 145.84,621.11 148.06,620.95 150.25,620.59 153.48,619.74 156.62,618.62 159.67,617.29 163.64,615.28 165.57,614.19"/>
    </edge>
    <edge id=":50_5" function="internal">
        <lane id=":50_5_0" index="0" disallow="pedestrian tram rail_urban rail rail_electric rail_fast ship" speed="36.11" length="43.33" width="3.50" shape="132.32,613.01 132.79,613.82 133.85,615.40 135.74,617.58 137.92,619.51 140.30,621.24 143.75,623.30 152.01,627.59 156.60,630.20 159.29,632.03 161.83,634.11 164.14,636.51 166.09,639.14"/>
    </edge>
    <edge id=":50_6" function="internal">
        <lane id=":50_6_0" index="0" disallow="pedestrian tram rail_urban rail rail_electric rail_fast ship" speed="13.19" length="34.26" width="3.50" shape="132.32,613.01 133.93,616.32 135.20,619.76 135.81,622.13 136.20,624.55 136.32,626.99 136.15,629.43 135.67,631.83 134.88,634.14 133.81,636.34 132.49,638.40 130.97,640.31 129.27,642.08 127.44,643.71"/>
    </edge>
    <edge id=":50_7" function="internal">
        <lane id=":50_7_0" index="0" disallow="pedestrian tram rail_urban rail rail_electric rail_fast ship" speed="12.25" length="29.40" width="3.50" shape="125.21,641.01 126.81,639.59 128.28,638.06 129.59,636.42 130.70,634.66 131.60,632.81 132.25,630.87 132.64,628.86 132.77,626.81 132.66,624.74 132.32,622.67 131.79,620.63 130.67,617.60 129.25,614.68"/>
    </edge>
    <edge id=":50_8" function="internal">
        <lane id=":50_8_0" index="0" disallow="pedestrian tram rail_urban rail rail_electric rail_fast ship" speed="36.11" length="48.51" width="3.50" shape="125.21,641.01 127.65,639.04 134.26,634.07 142.77,628.22 153.20,621.57 165.57,614.19"/>
    </edge>
    <edge id=":50_9" function="internal">
        <lane id=":50_9_0" index="0" disallow="pedestrian tram rail_urban rail rail_electric rail_fast ship" speed="13.74" length="47.72" width="3.50" shape="125.21,641.01 128.12,638.70 132.16,635.82 135.35,633.85 138.70,632.09 142.22,630.66 144.71,629.92 147.28,629.43 149.91,629.25 152.55,629.42 153.91,629.67 155.21,630.03 156.52,630.51 158.89,631.71 161.06,633.27 162.98,635.08 164.66,637.08 166.09,639.14"/>
    </edge>
    <edge id=":51_0" function="internal">
        <lane id=":51_0_0" index="0" disallow="pedestrian tram rail_urban rail rail_electric rail_fast ship" speed="10.71" length="30.11" width="3.50" shape="180.43,675.51 179.30,673.34 178.04,671.29 176.62,669.38 175.00,667.67 174.16,666.95 173.25,666.30 172.29,665.74 171.30,665.29 170.27,664.95 169.22,664.74 168.14,664.63 167.04,664.65 165.93,664.77 164.85,664.99 162.62,665.70 160.48,666.70 158.41,667.92 156.41,669.31"/>
    </edge>
    <edge id=":51_1" function="internal">
        <lane id=":51_1_0" index="0" disallow="pedestrian tram rail_urban rail rail_electric rail_fast ship" speed="36.11" length="38.28" width="3.50" shape="180.43,675.51 169.07,652.27 164.34,643.08 163.31,641.28"/>
    </edge>
    <edge id=":51_2" function="internal">
        <lane id=":51_2_0" index="0" disallow="pedestrian tram rail_urban rail rail_electric rail_fast ship" speed="13.32" length="37.64" width="3.50" shape="180.43,675.51 178.92,672.05 177.74,668.48 177.17,666.04 176.82,663.56 176.73,661.05 176.93,658.55 177.45,656.10 178.30,653.74 179.45,651.52 180.88,649.46 182.55,647.58 184.39,645.88 186.38,644.35 188.49,642.97"/>
    </edge>
    <edge id=":51_3" function="internal">
        <lane id=":51_3_0" index="0" disallow="pedestrian tram rail_urban rail rail_electric rail_fast ship" speed="12.39" length="32.44" width="3.50" shape="190.31,645.95 188.45,647.18 186.72,648.51 185.13,649.98 183.72,651.59 182.52,653.33 181.56,655.19 180.86,657.17 180.44,659.23 180.28,661.34 180.37,663.48 180.68,665.62 181.18,667.74 182.23,670.91 183.58,674.00"/>
    </edge>
    <edge id=":51_4" function="internal">
        <lane id=":51_4_0" index="0" disallow="pedestrian tram rail_urban rail rail_electric rail_fast ship" speed="36.11" length="41.18" width="3.50" shape="190.31,645.95 189.43,646.49 180.78,652.05 169.76,659.62 156.41,669.31"/>
    </edge>
    <edge id=":51_5" function="internal">
        <lane id=":51_5_0" index="0" disallow="pedestrian tram rail_urban rail rail_electric rail_fast ship" speed="11.74" length="31.30" width="3.50" shape="190.31,645.95 186.86,647.84 184.47,648.87 181.98,649.67 179.43,650.16 178.13,650.27 176.83,650.28 175.53,650.18 174.24,649.96 172.98,649.62 171.76,649.16 170.59,648.59 169.48,647.92 167.42,646.31 165.61,644.44 164.02,642.37 163.31,641.28"/>
    </edge>
    <edge id=":51_6" function="internal">
        <lane id=":51_6_0" index="0" disallow="pedestrian tram rail_urban rail rail_electric rail_fast ship" speed="10.67" length="25.77" width="3.50" shape="166.27,639.42 166.86,640.32 168.21,642.07 169.70,643.61 171.40,644.92 172.26,645.42 173.19,645.86 174.15,646.21 175.14,646.47 176.15,646.63 177.18,646.71 178.22,646.69 179.25,646.60 181.38,646.17 183.46,645.49 185.49,644.61 188.49,642.97"/>
    </edge>
    <edge id=":51_7" function="internal">
        <lane id=":51_7_0" index="0" disallow="pedestrian tram rail_urban rail rail_electric rail_fast ship" speed="36.11" length="38.68" width="3.50" shape="166.27,639.42 167.36,641.31 172.15,650.61 183.58,674.00"/>
    </edge>
    <edge id=":51_8" function="internal">
        <lane id=":51_8_0" index="0" disallow="pedestrian tram rail_urban rail rail_electric rail_fast ship" speed="12.76" length="35.26" width="3.50" shape="166.27,639.42 167.49,641.62 168.48,643.97 169.13,646.47 169.41,649.03 169.39,650.38 169.26,651.68 169.01,652.99 168.27,655.43 167.21,657.75 165.91,659.90 164.41,661.91 161.94,664.61 159.25,667.06 156.41,669.31"/>
    </edge>
    <edge id=":51_9" function="internal">
        <lane id=":51_9_0" index="0" disallow="pedestrian tram rail_urban rail rail_electric rail_fast ship" speed="11.76" length="29.97" width="3.50" shape="154.33,666.49 156.86,664.50 159.24,662.35 161.42,659.99 162.73,658.30 163.87,656.49 164.80,654.56 165.46,652.52 165.68,651.48 165.81,650.41 165.85,649.34 165.67,647.21 165.15,645.14 164.35,643.15 163.31,641.28"/>
    </edge>
    <edge id=":51_10" function="internal">
        <lane id=":51_10_0" index="0" disallow="pedestrian tram rail_urban rail rail_electric rail_fast ship" speed="36.11" length="41.49" width="3.50" shape="154.33,666.49 167.76,656.75 178.86,649.12 187.59,643.52 188.49,642.97"/>
    </edge>
    <edge id=":51_11" function="internal">
        <lane id=":51_11_0" index="0" disallow="pedestrian tram rail_urban rail rail_electric rail_fast ship" speed="11.74" length="36.44" width="3.50" shape="154.33,666.49 156.64,664.90 159.05,663.48 161.59,662.29 164.26,661.43 165.63,661.16 167.02,661.00 168.42,660.98 169.82,661.11 171.19,661.39 172.52,661.83 173.79,662.40 175.01,663.11 176.14,663.92 177.21,664.83 179.14,666.86 180.81,669.11 182.28,671.50 183.58,674.00"/>
    </edge>
    <edge id=":52_0" function="internal">
        <lane id=":52_0_0" index="0" disallow="pedestrian tram rail_urban rail rail_electric rail_fast ship" speed="36.11" length="8.04" width="3.50" shape="205.02,590.66 211.63,586.09"/>
        <lane id=":52_0_1" index="1" disallow="pedestrian tram rail_urban rail rail_electric rail_fast ship" speed="36.11" length="8.04" width="3.50" shape="205.58,591.61 212.84,588.15"/>
    </edge>
    <edge id=":53_0" function="internal">
        <lane id=":53_0_0" index="0" disallow="pedestrian tram rail_urban rail rail_electric rail_fast ship" speed="36.11" length="3.08" width="3.50" shape="260.12,616.23 259.94,613.16"/>
    </edge>
    <edge id=":53_1" function="internal">
        <lane id=":53_1_0" index="0" disallow="pedestrian tram rail_urban rail rail_electric rail_fast ship" speed="36.11" length="3.14" width="3.50" shape="263.57,616.11 263.43,612.97"/>
    </edge>
    <edge id=":6_0" function="internal">
        <lane id=":6_0_0" index="0" disallow="pedestrian tram rail_urban rail rail_electric rail_fast ship" speed="36.11" length="2.95" width="3.50" shape="199.14,598.81 196.57,600.25"/>
    </edge>

    <edge id="1701" from="6" to="50" priority="3" type="highway.residential" spreadType="center" length="33.82" shape="197.84,599.51 147.90,629.53">
        <lane id="1701_0" index="0" disallow="pedestrian tram rail_urban rail rail_electric rail_fast ship" speed="36.11" length="33.82" width="3.50" customShape="1" shape="196.57,600.25 182.58,608.36 167.32,617.22"/>
    </edge>
    <edge id="1702" from="50" to="52" priority="3" type="highway.residential" spreadType="center" length="45.93" shape="146.10,626.53 208.32,588.38">
        <lane id="1702_0" index="0" disallow="pedestrian tram rail_urban rail rail_electric rail_fast ship" speed="36.11" length="45.93" width="3.50" customShape="1" shape="165.57,614.19 180.83,605.34 205.30,591.14"/>
    </edge>
    <edge id="1753" from="48" to="5" priority="3" type="highway.residential" spreadType="center" length="13.04" shape="257.55,565.30 224.05,586.33">
        <lane id="1753_0" index="0" disallow="pedestrian tram rail_urban rail rail_electric rail_fast ship" speed="36.11" length="13.04" width="3.50" customShape="1" shape="236.60,579.03 230.33,582.68 225.32,585.58"/>
    </edge>
    <edge id="1755" from="52" to="48" priority="3" type="highway.residential" spreadType="center" length="25.13" shape="208.32,588.38 254.97,560.74">
        <lane id="1755_0" index="0" disallow="pedestrian tram rail_urban rail rail_electric rail_fast ship" speed="36.11" length="25.13" width="3.50" customShape="1" shape="211.35,585.61 226.81,576.62 233.08,572.98"/>
        <lane id="1755_1" index="1" disallow="pedestrian tram rail_urban rail rail_electric rail_fast ship" speed="36.11" length="25.15" width="3.50" customShape="1" shape="213.12,588.63 228.57,579.65 234.86,575.99"/>
    </edge>
    <edge id="1763" from="50" to="16" priority="3" type="highway.residential" spreadType="center" length="33.08" shape="148.15,629.36 101.94,664.79">
        <lane id="1763_0" index="0" disallow="pedestrian tram rail_urban rail rail_electric rail_fast ship" speed="36.11" length="33.08" width="3.50" customShape="1" shape="127.44,643.71 114.69,654.25 101.94,664.79"/>
    </edge>
    <edge id="1764" from="42" to="50" priority="3" type="highway.residential" spreadType="center" length="33.06" shape="99.73,662.08 146.02,626.58">
        <lane id="1764_0" index="0" disallow="pedestrian tram rail_urban rail rail_electric rail_fast ship" speed="36.11" length="33.06" width="3.50" customShape="1" shape="99.73,662.08 112.46,651.55 125.21,641.01"/>
    </edge>
    <edge id="1781" from="44" to="48" priority="3" type="highway.residential" spreadType="center" length="0.20" shape="291.77,544.51 258.24,566.92">
        <lane id="1781_0" index="0" disallow="pedestrian tram rail_urban rail rail_electric rail_fast ship" speed="36.11" length="0.20" width="3.50" customShape="1" shape="295.32,544.45 295.15,544.56"/>
        <lane id="1781_1" index="1" disallow="pedestrian tram rail_urban rail rail_electric rail_fast ship" speed="36.11" length="0.21" width="3.50" customShape="1" shape="293.21,541.64 293.03,541.74"/>
    </edge>
    <edge id="2047" from="48" to="25" priority="3" type="highway.residential" spreadType="center" length="22.78" shape="258.27,563.50 267.01,614.31">
        <lane id="2047_0" index="0" disallow="pedestrian tram rail_urban rail rail_electric rail_fast ship" speed="36.11" length="22.78" width="3.50" customShape="1" shape="265.71,590.07 266.36,602.18 266.93,612.82"/>
    </edge>
    <edge id="2049" from="53" to="48" priority="3" type="highway.residential" spreadType="center" length="22.74" shape="261.76,614.57 253.07,564.22">
        <lane id="2049_0" index="0" disallow="pedestrian tram rail_urban rail rail_electric rail_fast ship" speed="36.11" length="22.74" width="3.50" acceleration="1" customShape="1" shape="259.94,613.16 259.37,602.56 258.72,590.45"/>
        <lane id="2049_1" index="1" disallow="pedestrian tram rail_urban rail rail_electric rail_fast ship" speed="36.11" length="22.75" width="3.50" customShape="1" shape="263.43,612.97 262.86,602.37 262.22,590.25"/>
    </edge>
    <edge id="2419" from="51" to="32" priority="3" type="highway.residential" spreadType="center" length="70.00" shape="174.01,658.22 103.10,714.48">
        <lane id="2419_0" index="0" disallow="pedestrian tram rail_urban rail rail_electric rail_fast ship" speed="36.11" length="70.00" width="3.50" customShape="1" shape="156.41,669.31 149.56,674.37 137.14,683.71 127.73,691.21 120.11,697.73 113.12,704.20 105.70,711.67 103.10,714.48"/>
    </edge>
    <edge id="2420" from="45" to="51" priority="3" type="highway.residential" spreadType="center" length="70.00" shape="100.98,711.62 171.83,655.48">
        <lane id="2420_0" index="0" disallow="pedestrian tram rail_urban rail rail_electric rail_fast ship" speed="36.11" length="70.00" width="3.50" customShape="1" shape="100.98,711.62 103.26,709.16 110.75,701.63 117.81,695.09 125.49,688.51 134.98,680.96 147.46,671.58 154.33,666.49"/>
    </edge>
    <edge id="2422" from="19" to="51" priority="3" type="highway.residential" spreadType="center" length="51.29" shape="234.11,619.27 173.81,658.36">
        <lane id="2422_0" index="0" disallow="pedestrian tram rail_urban rail rail_electric rail_fast ship" speed="36.11" length="51.29" width="3.50" customShape="1" shape="234.11,619.27 212.20,632.62 190.31,645.96"/>
    </edge>
    <edge id="2423" from="51" to="18" priority="3" type="highway.residential" spreadType="center" length="51.29" shape="171.90,655.42 232.29,616.28">
        <lane id="2423_0" index="0" disallow="pedestrian tram rail_urban rail rail_electric rail_fast ship" speed="36.11" length="51.29" width="3.50" customShape="1" shape="188.49,642.97 210.38,629.63 232.29,616.28"/>
    </edge>
    <edge id="2476" from="43" to="48" priority="3" type="highway.residential" spreadType="center" length="19.04" shape="258.75,512.70 260.05,564.01">
        <lane id="2476_0" index="0" disallow="pedestrian tram rail_urban rail rail_electric rail_fast ship" speed="36.11" length="19.04" width="3.50" customShape="1" shape="260.49,512.56 261.21,522.06 261.93,531.55"/>
        <lane id="2476_1" index="1" disallow="pedestrian tram rail_urban rail rail_electric rail_fast ship" speed="36.11" length="19.06" width="3.50" customShape="1" shape="257.00,512.82 257.72,522.32 258.45,531.82"/>
    </edge>
    <edge id="2478" from="48" to="24" priority="3" type="highway.residential" spreadType="center" length="19.07" shape="254.81,563.96 253.51,513.06">
        <lane id="2478_0" index="0" disallow="pedestrian tram rail_urban rail rail_electric rail_fast ship" speed="36.11" length="19.07" width="3.50" customShape="1" shape="254.95,532.08 254.23,522.59 253.51,513.06"/>
    </edge>
    <edge id="2646" from="37" to="50" priority="3" type="highway.residential" spreadType="center" length="70.01" shape="99.06,551.42 148.53,627.07">
        <lane id="2646_0" index="0" disallow="pedestrian tram rail_urban rail rail_electric rail_fast ship" speed="36.11" length="70.01" width="3.50" customShape="1" shape="99.06,551.42 108.14,568.24 132.33,613.02"/>
    </edge>
    <edge id="2647" from="50" to="14" priority="3" type="highway.residential" spreadType="center" length="69.99" shape="145.60,628.99 95.98,553.10">
        <lane id="2647_0" index="0" disallow="pedestrian tram rail_urban rail rail_electric rail_fast ship" speed="36.11" length="69.99" width="3.50" customShape="1" shape="129.25,614.68 105.06,569.91 95.98,553.10"/>
    </edge>
    <edge id="2743" from="51" to="33" priority="3" type="highway.residential" spreadType="center" length="70.00" shape="174.60,656.50 191.21,740.61">
        <lane id="2743_0" index="0" disallow="pedestrian tram rail_urban rail rail_electric rail_fast ship" speed="36.11" length="70.00" width="3.50" customShape="1" shape="183.58,674.00 187.85,683.10 190.58,689.59 192.61,695.28 194.15,700.60 195.22,705.51 195.84,709.49 196.01,710.99 195.98,713.00 195.56,715.48 194.65,719.41 192.99,725.21 191.59,730.04 190.74,732.41 190.14,734.33 189.87,735.82 189.86,737.32 190.20,738.79 190.87,740.14 191.21,740.61"/>
    </edge>
    <edge id="2744" from="41" to="51" priority="3" type="highway.residential" spreadType="center" length="70.03" shape="188.05,742.21 171.17,657.18">
        <lane id="2744_0" index="0" disallow="pedestrian tram rail_urban rail rail_electric rail_fast ship" speed="36.11" length="70.03" width="3.50" customShape="1" shape="188.05,742.21 187.25,740.75 186.66,738.99 186.42,737.15 186.50,735.35 186.92,733.12 187.69,730.59 189.19,725.86 190.86,720.03 191.81,716.16 192.30,713.76 192.48,712.00 192.45,710.76 191.90,706.84 190.89,701.99 189.40,696.74 187.41,691.10 184.70,684.63 180.41,675.48"/>
    </edge>
    <edge id="2746" from="50" to="51" priority="3" type="highway.residential" spreadType="center" length="0.36" shape="148.35,626.84 174.25,655.76">
        <lane id="2746_0" index="0" disallow="pedestrian tram rail_urban rail rail_electric rail_fast ship" speed="36.11" length="0.36" width="3.50" customShape="1" shape="166.09,639.14 166.20,639.31 166.28,639.44"/>
    </edge>
    <edge id="2747" from="51" to="50" priority="3" type="highway.residential" spreadType="center" length="0.29" shape="171.64,658.09 145.74,629.17">
        <lane id="2747_0" index="0" disallow="pedestrian tram rail_urban rail rail_electric rail_fast ship" speed="36.11" length="0.29" width="3.50" customShape="1" shape="163.31,641.28 163.24,641.18 163.15,641.04"/>
    </edge>
    <edge id="3554" from="25" to="40" priority="3" type="highway.residential" spreadType="center" length="27.46">
        <lane id="3554_0" index="0" disallow="pedestrian tram rail_urban rail rail_electric rail_fast ship" speed="36.11" length="27.46" width="3.50" customShape="1" shape="267.06,615.80 267.15,618.51 267.07,630.97 267.20,638.15 267.59,643.24"/>
    </edge>
    <edge id="3555" from="48" to="49" priority="3" type="highway.residential" spreadType="center" length="0.19" shape="255.50,562.47 283.93,543.03">