<routes>
	<vehicle depart="0.1" departLane="0" departPos="23.199343987321267" departSpeed="0.30174424" id="311" type="bicycle">
		<route edges="85474 85477"/>
	</vehicle>
	<vehicle depart="0.1" departLane="0" departPos="58.36537879391327" departSpeed="0.34269739" id="329" type="bus">
		<route edges="85543 85540"/>
	</vehicle>
	<vehicle depart="0.1" departLane="0" departPos="6.272453093576175" departSpeed="1.4809027" id="38" type="passenger">
		<route edges=":44_7 94344 85544"/>
	</vehicle>
	<vehicle depart="0.1" departLane="0" departPos="10.245492383188292" departSpeed="0.12254023" id="39" type="passenger">
		<route edges="85477 83741"/>
	</vehicle>
	<vehicle depart="0.1" departLane="0" departPos="15.229782682597133" departSpeed="4.489656" id="324" type="passenger">
		<route edges=":44_14 85430 85427"/>
	</vehicle>
	<vehicle depart="0.1" departLane="0" departPos="17.205094307726327" departSpeed="3.4309402" id="326" type="passenger">
		<route edges="84065 96338 85473"/>
	</vehicle>
	<vehicle depart="0.1" departLane="0" departPos="36.65465059911005" departSpeed="5.5372597" id="338" type="passenger">
		<route edges="84062 84065 83741"/>
	</vehicle>
	<vehicle depart="0.1" departLane="0" departPos="43.747522527894525" departSpeed="4.4279398" id="334" type="motorcycle">
		<route edges="84062 84065 83741"/>
	</vehicle>
	<vehicle depart="0.1" departLane="0" departPos="11.349593846746021" departSpeed="0.274585" id="30" type="truck">
		<route edges="85434 83741"/>
	</vehicle>
</routes>
