<routes>
	<vehicle depart="0.1" departLane="0" departPos="33.936812995085155" departSpeed="0.081728963" id="39" type="bicycle">
		<route edges="2709 3833"/>
	</vehicle>
	<vehicle depart="0.1" departLane="0" departPos="51.766441652719934" departSpeed="6.4412983" id="331" type="bicycle">
		<route edges="2711 3833"/>
	</vehicle>
	<vehicle depart="0.1" departLane="0" departPos="50.494179733041754" departSpeed="0.0" id="31" type="passenger">
		<route edges="3832 2708"/>
	</vehicle>
	<vehicle depart="0.1" departLane="0" departPos="62.51633751361551" departSpeed="0.021847291" id="324" type="passenger">
		<route edges="2709 3833"/>
	</vehicle>
	<vehicle depart="0.1" departLane="0" departPos="55.70660545475816" departSpeed="0.053600993" id="325" type="passenger">
		<route edges="2709 3833"/>
	</vehicle>
	<vehicle depart="0.1" departLane="0" departPos="47.94055066838447" departSpeed="0.0046518532" id="328" type="passenger">
		<route edges="2709 3833"/>
	</vehicle>
	<vehicle depart="0.1" departLane="0" departPos="39.794876937955415" departSpeed="0.55020383" id="329" type="passenger">
		<route edges="2709 3833"/>
	</vehicle>
	<vehicle depart="0.1" departLane="0" departPos="29.74348984642068" departSpeed="0.011178683" id="333" type="passenger">
		<route edges="2709 3833"/>
	</vehicle>
	<vehicle depart="0.1" departLane="0" departPos="21.83142571793519" departSpeed="20.254702" id="342" type="passenger">
		<route edges=":38_7 2708"/>
	</vehicle>
	<vehicle depart="0.1" departLane="0" departPos="3.75" departSpeed="0.18061294" id="30" type="truck">
		<route edges=":38_1 2712 2816"/>
	</vehicle>
</routes>
