<routes>
	<vehicle depart="0.1" departLane="1" departPos="48.747196105351335" departSpeed="2.8001901" id="315" type="bicycle">
		<route edges="14724 14720"/>
	</vehicle>
	<vehicle depart="0.1" departLane="0" departPos="58.442489608889225" departSpeed="1.6625746" id="33" type="passenger">
		<route edges="14724"/>
	</vehicle>
	<vehicle depart="0.1" departLane="1" departPos="61.711536707783566" departSpeed="0.4052882" id="335" type="passenger">
		<route edges="14724 14720"/>
	</vehicle>
	<vehicle depart="0.1" departLane="0" departPos="41.73823130214599" departSpeed="10.940103" id="340" type="passenger">
		<route edges="14727 14620"/>
	</vehicle>
	<vehicle depart="0.1" departLane="0" departPos="24.05509905331734" departSpeed="10.63493" id="344" type="passenger">
		<route edges="14727 14620"/>
	</vehicle>
	<vehicle depart="0.1" departLane="0" departPos="6.3021455912894115" departSpeed="11.56445" id="345" type="passenger">
		<route edges=":52_3 14727"/>
	</vehicle>
	<vehicle depart="0.1" departLane="1" departPos="15.304893838274317" departSpeed="9.6013661" id="349" type="passenger">
		<route edges="14724 14720"/>
	</vehicle>
	<vehicle depart="0.1" departLane="1" departPos="48.012305127269585" departSpeed="2.7960165" id="338" type="motorcycle">
		<route edges="14724 14720"/>
	</vehicle>
	<vehicle depart="0.1" departLane="1" departPos="36.633647341014246" departSpeed="4.9407494" id="343" type="motorcycle">
		<route edges="14724 14720"/>
	</vehicle>
	<vehicle depart="0.1" departLane="1" departPos="72.11504902099139" departSpeed="0.0" id="312" type="truck">
		<route edges="14724 14720"/>
	</vehicle>
</routes>
