<!-- generated on Tue Feb  9 22:20:43 2021 by Eclipse SUMO netconvert Version 1.8.0
<configuration xmlns:xsi="http://www.w3.org/2001/XMLSchema-instance" xsi:noNamespaceSchemaLocation="http://sumo.dlr.de/xsd/netconvertConfiguration.xsd">

    <input>
        <node-files value="./converted_scenarios/scenario-factory/ESP_Monzon-2_3_I-1-1/ESP_Monzon-2_3_I-1-1.nod.xml"/>
        <edge-files value="./converted_scenarios/scenario-factory/ESP_Monzon-2_3_I-1-1/ESP_Monzon-2_3_I-1-1.edg.xml"/>
        <connection-files value="./converted_scenarios/scenario-factory/ESP_Monzon-2_3_I-1-1/ESP_Monzon-2_3_I-1-1.con.xml"/>
        <tllogic-files value="./converted_scenarios/scenario-factory/ESP_Monzon-2_3_I-1-1/ESP_Monzon-2_3_I-1-1.tll.xml"/>
        <type-files value="/home/zen/commonroad-interactive-benchmarks/install/commonroad-map-tool/crmapconverter/sumo_map/templates/DEU.typ.xml"/>
    </input>

    <output>
        <output-file value="./converted_scenarios/scenario-factory/ESP_Monzon-2_3_I-1-1/ESP_Monzon-2_3_I-1-1.net.xml"/>
    </output>

    <processing>
        <geometry.remove.keep-edges.explicit value="true"/>
        <geometry.avoid-overlap value="true"/>
        <offset.disable-normalization value="true"/>
    </processing>

    <junctions>
        <no-turnarounds value="true"/>
        <junctions.internal-link-detail value="20"/>
    </junctions>

    <report>
        <aggregate-warnings value="5"/>
    </report>

    <random_number>
        <seed value="1234"/>
    </random_number>

</configuration>
--><net xmlns:xsi="http://www.w3.org/2001/XMLSchema-instance" version="1.6" junctionCornerDetail="5" junctionLinkDetail="20" limitTurnSpeed="5.50" xsi:noNamespaceSchemaLocation="http://sumo.dlr.de/xsd/net_file.xsd">

    <location netOffset="0.00,0.00" convBoundary="437.39,-849.79,652.41,-566.83" origBoundary="436.13,-849.79,652.98,-566.83" projParameter="!"/>

    <type id="highway.bridleway" priority="1" speed="2.78" allow="pedestrian" oneway="1" width="2.00"/>
    <type id="highway.bus_guideway" priority="1" speed="27.78" allow="bus" oneway="1"/>
    <type id="highway.cycleway" priority="1" speed="8.33" allow="bicycle" oneway="0" width="1.00"/>
    <type id="highway.footway" priority="1" speed="2.78" allow="pedestrian" oneway="1" width="2.00"/>
    <type id="highway.ford" priority="1" speed="2.78" allow="army" oneway="0"/>
    <type id="highway.living_street" priority="2" speed="2.78" disallow="tram rail_urban rail rail_electric rail_fast ship" oneway="0"/>
    <type id="highway.motorway" priority="14" speed="39.44" allow="private emergency authority army vip passenger hov taxi bus coach delivery truck trailer motorcycle evehicle custom1 custom2" oneway="1"/>
    <type id="highway.motorway_link" priority="9" speed="22.22" allow="private emergency authority army vip passenger hov taxi bus coach delivery truck trailer motorcycle evehicle custom1 custom2" oneway="1"/>
    <type id="highway.path" priority="1" speed="2.78" allow="pedestrian bicycle" oneway="0" width="2.00"/>
    <type id="highway.pedestrian" priority="1" speed="2.78" allow="pedestrian" oneway="1" width="2.00"/>
    <type id="highway.primary" priority="12" speed="27.78" disallow="pedestrian tram rail_urban rail rail_electric rail_fast ship" oneway="0"/>
    <type id="highway.primary_link" priority="7" speed="22.22" disallow="pedestrian tram rail_urban rail rail_electric rail_fast ship" oneway="0"/>
    <type id="highway.raceway" priority="15" speed="83.33" allow="vip" oneway="0"/>
    <type id="highway.residential" priority="3" speed="13.89" disallow="pedestrian tram rail_urban rail rail_electric rail_fast ship" oneway="0"/>
    <type id="highway.secondary" priority="11" speed="27.78" disallow="pedestrian tram rail_urban rail rail_electric rail_fast ship" oneway="0"/>
    <type id="highway.secondary_link" priority="6" speed="22.22" disallow="pedestrian tram rail_urban rail rail_electric rail_fast ship" oneway="0"/>
    <type id="highway.service" priority="1" speed="5.56" allow="pedestrian delivery bicycle" oneway="0"/>
    <type id="highway.stairs" priority="1" speed="1.39" allow="pedestrian" oneway="1" width="2.00"/>
    <type id="highway.step" priority="1" speed="1.39" allow="pedestrian" oneway="1" width="2.00"/>
    <type id="highway.steps" priority="1" speed="1.39" allow="pedestrian" oneway="1" width="2.00"/>
    <type id="highway.tertiary" priority="10" speed="22.22" disallow="pedestrian tram rail_urban rail rail_electric rail_fast ship" oneway="0"/>
    <type id="highway.tertiary_link" priority="5" speed="22.22" disallow="pedestrian tram rail_urban rail rail_electric rail_fast ship" oneway="0"/>
    <type id="highway.track" priority="1" speed="5.56" allow="pedestrian motorcycle moped bicycle" oneway="0"/>
    <type id="highway.trunk" priority="13" speed="27.78" disallow="pedestrian bicycle tram rail_urban rail rail_electric rail_fast ship" oneway="0"/>
    <type id="highway.trunk_link" priority="8" speed="22.22" disallow="pedestrian bicycle tram rail_urban rail rail_electric rail_fast ship" oneway="0"/>
    <type id="highway.unclassified" priority="4" speed="13.89" disallow="pedestrian tram rail_urban rail rail_electric rail_fast ship" oneway="0"/>
    <type id="highway.unsurfaced" priority="1" speed="8.33" disallow="tram rail_urban rail rail_electric rail_fast ship" oneway="0"/>
    <type id="railway.highspeed" priority="21" speed="69.44" allow="rail_fast" oneway="1"/>
    <type id="railway.light_rail" priority="19" speed="27.78" allow="rail_urban" oneway="1"/>
    <type id="railway.preserved" priority="16" speed="27.78" allow="rail" oneway="1"/>
    <type id="railway.rail" priority="20" speed="44.44" allow="rail" oneway="1"/>
    <type id="railway.subway" priority="18" speed="27.78" allow="rail_urban" oneway="1"/>
    <type id="railway.tram" priority="17" speed="13.89" allow="tram" oneway="1"/>

    <edge id=":52_0" function="internal">
        <lane id=":52_0_0" index="0" disallow="pedestrian tram rail_urban rail rail_electric rail_fast ship" speed="36.11" length="43.83" width="3.50" shape="520.02,-648.91 503.41,-631.11 489.92,-617.05"/>
    </edge>
    <edge id=":52_1" function="internal">
        <lane id=":52_1_0" index="0" disallow="pedestrian tram rail_urban rail rail_electric rail_fast ship" speed="12.65" length="38.52" width="3.50" shape="520.02,-648.91 517.51,-646.39 514.77,-644.12 512.30,-642.49 509.64,-641.18 507.39,-640.44 505.06,-640.01 502.69,-639.93 500.34,-640.21 498.05,-640.82 495.85,-641.71 493.26,-643.15 490.85,-644.87 488.17,-647.20 486.90,-648.46"/>
    </edge>
    <edge id=":52_2" function="internal">
        <lane id=":52_2_0" index="0" disallow="pedestrian tram rail_urban rail rail_electric rail_fast ship" speed="11.15" length="29.69" width="3.50" shape="489.42,-650.89 491.60,-648.89 493.54,-647.51 495.65,-646.42 497.34,-645.85 499.09,-645.52 500.87,-645.46 502.64,-645.66 504.36,-646.11 506.56,-647.01 508.62,-648.19 511.01,-649.96 513.64,-652.36 514.87,-653.65"/>
    </edge>
    <edge id=":52_3" function="internal">
        <lane id=":52_3_0" index="0" disallow="pedestrian tram rail_urban rail rail_electric rail_fast ship" speed="36.11" length="43.64" width="3.50" shape="484.90,-621.93 498.33,-635.93 514.87,-653.65"/>
        <lane id=":52_3_1" index="1" disallow="pedestrian tram rail_urban rail rail_electric rail_fast ship" speed="36.11" length="43.74" width="3.50" shape="487.41,-619.49 500.87,-633.53 517.45,-651.28"/>
    </edge>
    <edge id=":53_0" function="internal">
        <lane id=":53_0_0" index="0" disallow="pedestrian tram rail_urban rail rail_electric rail_fast ship" speed="16.85" length="38.93" width="3.50" shape="604.67,-719.03 602.40,-718.52 598.95,-717.31 595.15,-715.56 590.60,-712.99 585.79,-709.83 579.92,-705.46 573.45,-700.14 571.87,-698.77"/>
    </edge>
    <edge id=":53_1" function="internal">
        <lane id=":53_1_0" index="0" disallow="pedestrian tram rail_urban rail rail_electric rail_fast ship" speed="36.11" length="43.53" width="3.50" shape="605.65,-726.18 602.07,-723.71 595.16,-718.42 585.07,-710.13 571.87,-698.77"/>
        <lane id=":53_1_1" index="1" disallow="pedestrian tram rail_urban rail rail_electric rail_fast ship" speed="36.11" length="44.05" width="3.50" shape="603.74,-729.12 600.03,-726.55 593.03,-721.20 582.85,-712.84 569.55,-701.39"/>
    </edge>
    <edge id=":53_3" function="internal">
        <lane id=":53_3_0" index="0" disallow="pedestrian tram rail_urban rail rail_electric rail_fast ship" speed="36.11" length="45.09" width="3.50" shape="564.91,-706.63 578.61,-718.42 589.06,-726.98 596.22,-732.43 599.93,-734.99"/>
        <lane id=":53_3_1" index="1" disallow="pedestrian tram rail_urban rail rail_electric rail_fast ship" speed="36.11" length="44.57" width="3.50" shape="567.23,-704.01 580.75,-715.64 591.07,-724.10 598.14,-729.50 601.84,-732.05"/>
    </edge>
    <edge id=":54_0" function="internal">
        <lane id=":54_0_0" index="0" disallow="pedestrian tram rail_urban rail rail_electric rail_fast ship" speed="36.11" length="25.59" width="3.50" shape="626.90,-740.52 619.44,-737.27 616.87,-735.57 614.41,-733.53 609.46,-729.05 606.79,-726.96 605.88,-726.33"/>
        <lane id=":54_0_1" index="1" disallow="pedestrian tram rail_urban rail rail_electric rail_fast ship" speed="36.11" length="26.21" width="3.50" shape="625.52,-743.76 617.75,-740.32 614.98,-738.49 612.42,-736.38 607.49,-731.93 604.87,-729.88 603.95,-729.26"/>
    </edge>
    <edge id=":54_2" function="internal">
        <lane id=":54_2_0" index="0" disallow="pedestrian tram rail_urban rail rail_electric rail_fast ship" speed="36.11" length="24.34" width="3.50" shape="600.14,-735.13 604.79,-737.89 612.08,-741.92 615.48,-744.15 617.84,-746.05 620.33,-748.52"/>
        <lane id=":54_2_1" index="1" disallow="pedestrian tram rail_urban rail rail_electric rail_fast ship" speed="36.11" length="25.40" width="3.50" shape="602.05,-732.20 606.67,-734.94 614.18,-739.13 617.77,-741.51 620.28,-743.54 623.04,-746.29"/>
    </edge>
    <edge id=":55_0" function="internal">
        <lane id=":55_0_0" index="0" disallow="pedestrian tram rail_urban rail rail_electric rail_fast ship" speed="13.85" length="14.71" width="3.49" shape="625.24,-747.95 626.12,-747.13 625.40,-748.18 624.77,-749.29 623.80,-751.65 623.16,-754.12 622.76,-756.64 622.51,-759.93"/>
        <lane id=":55_0_1" index="1" disallow="pedestrian tram rail_urban rail rail_electric rail_fast ship" speed="12.43" length="11.42" width="3.50" shape="628.41,-749.69 628.92,-749.23 628.36,-750.04 627.90,-750.87 627.11,-752.79 626.57,-754.87 626.24,-757.05 626.03,-759.41"/>
    </edge>
    <edge id=":55_2" function="internal">
        <lane id=":55_2_0" index="0" disallow="pedestrian tram rail_urban rail rail_electric rail_fast ship" speed="11.18" length="12.48" width="3.49" shape="620.47,-748.66 620.16,-748.41 620.75,-749.22 621.27,-750.08 621.70,-750.99 622.05,-751.94 622.32,-752.91 622.63,-754.90 622.69,-756.91 622.51,-759.93"/>
    </edge>
    <edge id=":55_3" function="internal">
        <lane id=":55_3_0" index="0" disallow="pedestrian tram rail_urban rail rail_electric rail_fast ship" speed="11.74" length="14.22" width="3.50" shape="623.18,-746.44 622.91,-746.25 623.68,-747.30 624.35,-748.42 624.91,-749.59 625.36,-750.79 625.72,-752.09 626.12,-754.56 626.19,-756.99 626.03,-759.41"/>
    </edge>
    <edge id=":56_0" function="internal">
        <lane id=":56_0_0" index="0" disallow="pedestrian tram rail_urban rail rail_electric rail_fast ship" speed="16.42" length="14.52" width="3.50" shape="637.92,-739.78 635.42,-740.10 632.35,-740.25 629.28,-740.13 626.24,-739.70 623.55,-738.99"/>
        <lane id=":56_0_1" index="1" disallow="pedestrian tram rail_urban rail rail_electric rail_fast ship" speed="17.30" length="16.48" width="3.50" shape="638.49,-743.23 635.62,-743.59 632.21,-743.75 628.79,-743.60 625.37,-743.09 622.19,-742.24"/>
    </edge>
    <edge id=":56_2" function="internal">
        <lane id=":56_2_0" index="0" disallow="pedestrian tram rail_urban rail rail_electric rail_fast ship" speed="13.47" length="11.97" width="3.50" shape="638.50,-743.29 636.91,-743.67 634.88,-744.48 632.99,-745.56 630.84,-747.24 628.55,-749.54"/>
    </edge>
    <edge id=":56_3" function="internal">
        <lane id=":56_3_0" index="0" disallow="pedestrian tram rail_urban rail rail_electric rail_fast ship" speed="11.03" length="14.36" width="3.50" shape="631.01,-735.15 630.99,-737.27 630.66,-739.41 630.03,-741.47 629.08,-743.40 627.84,-745.17 625.38,-747.81"/>
    </edge>
    <edge id=":57_0" function="internal">
        <lane id=":57_0_0" index="0" disallow="pedestrian tram rail_urban rail rail_electric rail_fast ship" speed="24.39" length="43.89" width="3.50" shape="637.01,-734.06 636.30,-733.00 634.65,-729.80 632.95,-725.51 631.27,-720.12 629.56,-713.14 627.91,-704.57 626.30,-693.91 626.04,-691.87"/>
    </edge>
    <edge id=":57_1" function="internal">
        <lane id=":57_1_0" index="0" disallow="pedestrian tram rail_urban rail rail_electric rail_fast ship" speed="14.29" length="29.55" width="3.49" shape="636.67,-734.40 632.62,-730.59 627.47,-726.17 623.33,-723.01 619.82,-720.75 617.49,-719.57 615.53,-718.87 613.99,-718.62 612.95,-718.67 612.44,-718.79"/>
    </edge>
    <edge id=":57_2" function="internal">
        <lane id=":57_2_0" index="0" disallow="pedestrian tram rail_urban rail rail_electric rail_fast ship" speed="10.64" length="22.30" width="3.49" shape="622.57,-692.31 623.02,-697.28 623.06,-701.15 622.81,-704.46 622.34,-707.19 621.57,-709.84 620.69,-711.87 619.54,-713.76 619.43,-713.89"/>
    </edge>
    <edge id=":57_3" function="internal">
        <lane id=":57_3_0" index="0" disallow="pedestrian tram rail_urban rail rail_electric rail_fast ship" speed="36.11" length="44.57" width="3.50" shape="622.57,-692.31 623.65,-699.35 625.38,-707.82 629.58,-726.16 631.42,-735.98"/>
    </edge>
    <edge id=":58_0" function="internal">
        <lane id=":58_0_0" index="0" disallow="pedestrian tram rail_urban rail rail_electric rail_fast ship" speed="6.16" length="5.76" width="3.50" shape="622.50,-760.13 622.32,-759.77 621.66,-761.26 620.71,-762.58 619.55,-763.72 619.16,-764.00"/>
    </edge>
    <edge id=":58_1" function="internal">
        <lane id=":58_1_0" index="0" disallow="pedestrian tram rail_urban rail rail_electric rail_fast ship" speed="11.88" length="8.18" width="3.49" shape="622.50,-760.13 622.46,-760.73 622.44,-761.27 622.44,-761.76 622.45,-762.20 622.48,-762.61 622.52,-762.98 622.58,-763.33 622.66,-763.66 622.76,-763.98 622.88,-764.29 623.01,-764.59 623.17,-764.90 623.34,-765.23 623.54,-765.57 623.75,-765.93 623.99,-766.32 624.25,-766.75 624.53,-767.22 624.83,-767.74"/>
    </edge>
    <edge id=":58_2" function="internal">
        <lane id=":58_2_0" index="0" disallow="pedestrian tram rail_urban rail rail_electric rail_fast ship" speed="9.62" length="8.72" width="3.50" shape="626.01,-759.61 625.99,-760.04 625.98,-760.46 626.00,-760.88 626.04,-761.30 626.09,-761.72 626.17,-762.14 626.27,-762.56 626.39,-762.98 626.53,-763.39 626.69,-763.81 626.88,-764.22 627.08,-764.64 627.30,-765.05 627.55,-765.46 627.81,-765.87 628.10,-766.28 628.41,-766.69 628.74,-767.10 629.09,-767.51"/>
    </edge>
    <edge id=":60_0" function="internal">
        <lane id=":60_0_0" index="0" disallow="pedestrian tram rail_urban rail rail_electric rail_fast ship" speed="36.11" length="37.47" width="3.50" shape="589.58,-774.01 580.47,-776.20 571.29,-778.05 561.02,-779.73 552.76,-780.81"/>
    </edge>
    <edge id=":60_1" function="internal">
        <lane id=":60_1_0" index="0" disallow="pedestrian tram rail_urban rail rail_electric rail_fast ship" speed="12.14" length="34.52" width="3.50" shape="589.58,-774.01 585.78,-775.20 583.34,-776.22 581.00,-777.47 578.82,-778.98 577.81,-779.84 576.87,-780.78 576.02,-781.80 575.25,-782.88 574.60,-784.03 574.05,-785.24 573.61,-786.49 573.28,-787.78 573.06,-789.09 572.92,-791.74 573.10,-794.38 573.56,-796.99 574.25,-799.59"/>
    </edge>
    <edge id=":60_2" function="internal">
        <lane id=":60_2_0" index="0" disallow="pedestrian tram rail_urban rail rail_electric rail_fast ship" speed="11.13" length="28.81" width="3.50" shape="577.59,-798.58 577.00,-796.33 576.61,-794.10 576.46,-791.88 576.59,-789.67 576.77,-788.64 577.03,-787.61 577.39,-786.61 577.83,-785.65 578.36,-784.74 578.97,-783.88 579.66,-783.07 580.42,-782.31 581.23,-781.62 583.07,-780.35 585.05,-779.30 587.15,-778.43 590.49,-777.39"/>
    </edge>
    <edge id=":60_3" function="internal">
        <lane id=":60_3_0" index="0" disallow="pedestrian tram rail_urban rail rail_electric rail_fast ship" speed="36.11" length="38.07" width="3.50" shape="553.08,-784.29 561.53,-783.19 571.93,-781.49 581.24,-779.62 590.49,-777.39"/>
    </edge>
    <edge id=":61_0" function="internal">
        <lane id=":61_0_0" index="0" disallow="pedestrian tram rail_urban rail rail_electric rail_fast ship" speed="33.55" length="10.14" width="3.50" shape="644.95,-739.50 644.28,-739.17 643.66,-738.87 643.11,-738.61 642.59,-738.37 642.13,-738.16 641.69,-737.95 641.29,-737.76 640.91,-737.57 640.54,-737.38 640.19,-737.18 639.84,-736.96 639.49,-736.73 639.13,-736.47 638.76,-736.19 638.37,-735.86 637.94,-735.50 637.49,-735.09 637.00,-734.63 636.46,-734.11"/>
    </edge>
    <edge id=":61_1" function="internal">
        <lane id=":61_1_0" index="0" disallow="pedestrian tram rail_urban rail rail_electric rail_fast ship" speed="19.95" length="5.16" width="3.50" shape="644.89,-739.72 644.51,-739.66 644.17,-739.60 643.86,-739.54 643.58,-739.48 643.32,-739.43 643.08,-739.39 642.86,-739.35 642.65,-739.32 642.44,-739.30 642.23,-739.28 642.03,-739.27 641.81,-739.26 641.59,-739.27 641.35,-739.28 641.09,-739.30 640.81,-739.33 640.50,-739.37 640.16,-739.42 639.78,-739.49"/>
        <lane id=":61_1_1" index="1" disallow="pedestrian tram rail_urban rail rail_electric rail_fast ship" speed="11.34" length="3.72" width="3.50" shape="644.01,-743.09 643.74,-743.02 643.50,-742.96 643.28,-742.90 643.08,-742.85 642.90,-742.81 642.73,-742.78 642.57,-742.76 642.42,-742.74 642.27,-742.72 642.12,-742.72 641.97,-742.72 641.81,-742.72 641.65,-742.74 641.48,-742.76 641.29,-742.78 641.09,-742.81 640.87,-742.85 640.62,-742.89 640.35,-742.93"/>
    </edge>

    <edge id="14258" from="60" to="38" priority="3" type="highway.residential" spreadType="center" length="7.69" shape="573.24,-784.05 545.10,-781.51">
        <lane id="14258_0" index="0" disallow="pedestrian tram rail_urban rail rail_electric rail_fast ship" speed="36.11" length="7.69" width="3.50" customShape="1" shape="552.76,-780.81 551.43,-780.93 550.08,-781.05 545.10,-781.51"/>
    </edge>
    <edge id="14259" from="51" to="60" priority="3" type="highway.residential" spreadType="center" length="7.83" shape="545.35,-784.99 572.92,-787.52">
        <lane id="14259_0" index="0" disallow="pedestrian tram rail_urban rail rail_electric rail_fast ship" speed="36.11" length="7.83" width="3.50" customShape="1" shape="545.35,-784.99 550.33,-784.54 551.74,-784.41 553.15,-784.29"/>
    </edge>
    <edge id="14261" from="58" to="60" priority="3" type="highway.residential" spreadType="center" length="31.22" shape="617.34,-763.21 572.18,-784.22">
        <lane id="14261_0" index="0" disallow="pedestrian tram rail_urban rail rail_electric rail_fast ship" speed="36.11" length="31.22" width="3.50" customShape="1" shape="619.58,-765.44 603.90,-770.03 589.56,-774.02"/>
    </edge>
    <edge id="14262" from="60" to="45" priority="3" type="highway.residential" spreadType="center" length="21.60" shape="573.58,-787.41 611.28,-771.52">
        <lane id="14262_0" index="0" disallow="pedestrian tram rail_urban rail rail_electric rail_fast ship" speed="36.11" length="21.60" width="3.50" customShape="1" shape="590.49,-777.39 604.86,-773.39 611.28,-771.52"/>
    </edge>
    <edge id="14342" from="56" to="54" priority="3" type="highway.residential" spreadType="center" length="0.20">
        <lane id="14342_0" index="0" disallow="pedestrian tram rail_urban rail rail_electric rail_fast ship" speed="36.11" length="0.21" width="3.50" customShape="1" shape="627.09,-740.60 626.90,-740.52"/>
        <lane id="14342_1" index="1" disallow="pedestrian tram rail_urban rail rail_electric rail_fast ship" speed="36.11" length="0.20" width="3.50" customShape="1" shape="625.71,-743.83 625.52,-743.76"/>
    </edge>
    <edge id="14583" from="57" to="53" priority="3" type="highway.residential" spreadType="center" length="15.62">
        <lane id="14583_0" index="0" disallow="pedestrian tram rail_urban rail rail_electric rail_fast ship" speed="36.11" length="15.62" width="3.49" customShape="1" shape="620.20,-716.36 612.31,-718.83 605.29,-721.02"/>
    </edge>
    <edge id="14617" from="54" to="53" priority="3" type="highway.residential" spreadType="center" length="0.27" shape="614.46,-734.63 593.32,-714.56">
        <lane id="14617_0" index="0" disallow="pedestrian tram rail_urban rail rail_electric rail_fast ship" speed="36.11" length="0.27" width="3.50" customShape="1" shape="605.88,-726.33 605.76,-726.25 605.65,-726.18"/>
        <lane id="14617_1" index="1" disallow="pedestrian tram rail_urban rail rail_electric rail_fast ship" speed="36.11" length="0.30" width="3.50" customShape="1" shape="603.97,-729.27 603.85,-729.19 603.72,-729.10"/>
    </edge>
    <edge id="14620" from="53" to="54" priority="3" type="highway.residential" spreadType="center" length="0.27" shape="588.51,-719.63 609.68,-739.67">
        <lane id="14620_0" index="0" disallow="pedestrian tram rail_urban rail rail_electric rail_fast ship" speed="36.11" length="0.29" width="3.50" customShape="1" shape="599.93,-734.99 600.03,-735.06 600.17,-735.15"/>
        <lane id="14620_1" index="1" disallow="pedestrian tram rail_urban rail rail_electric rail_fast ship" speed="36.11" length="0.27" width="3.50" customShape="1" shape="601.83,-732.05 601.94,-732.12 602.05,-732.20"/>
    </edge>
    <edge id="14622" from="61" to="57" priority="3" type="highway.residential" spreadType="center" length="0.21">
        <lane id="14622_0" index="0" disallow="pedestrian tram rail_urban rail rail_electric rail_fast ship" speed="36.11" length="0.21" width="3.50" customShape="1" shape="636.46,-734.11 636.31,-733.97"/>
    </edge>
    <edge id="14667" from="55" to="58" priority="3" type="highway.residential" spreadType="center" length="0.20">
        <lane id="14667_0" index="0" disallow="pedestrian tram rail_urban rail rail_electric rail_fast ship" speed="36.11" length="0.20" width="3.49" customShape="1" shape="622.51,-759.93 622.50,-760.13"/>
        <lane id="14667_1" index="1" disallow="pedestrian tram rail_urban rail rail_electric rail_fast ship" speed="36.11" length="0.20" width="3.50" customShape="1" shape="626.03,-759.41 626.01,-759.61"/>
    </edge>
    <edge id="14671" from="57" to="56" priority="3" type="highway.residential" spreadType="center" length="0.20">
        <lane id="14671_0" index="0" disallow="pedestrian tram rail_urban rail rail_electric rail_fast ship" speed="36.11" length="0.20" width="3.50" customShape="1" shape="631.42,-735.98 631.45,-736.18"/>
    </edge>
    <edge id="14720" from="52" to="29" priority="3" type="highway.residential" spreadType="center" length="70.00" shape="499.89,-638.26 441.16,-566.83">
        <lane id="14720_0" index="0" disallow="pedestrian tram rail_urban rail rail_electric rail_fast ship" speed="36.11" length="70.00" width="3.50" customShape="1" shape="489.92,-617.05 456.03,-582.15 441.16,-566.83"/>
    </edge>
    <edge id="14722" from="49" to="52" priority="3" type="highway.residential" spreadType="center" length="70.00" shape="437.39,-570.49 495.90,-641.67">
        <lane id="14722_0" index="0" disallow="pedestrian tram rail_urban rail rail_electric rail_fast ship" speed="36.11" length="70.01" width="3.50" customShape="1" shape="436.13,-571.70 451.01,-587.02 484.90,-621.93"/>
        <lane id="14722_1" index="1" disallow="pedestrian tram rail_urban rail rail_electric rail_fast ship" speed="36.11" length="70.00" width="3.50" customShape="1" shape="438.65,-569.27 453.52,-584.59 487.41,-619.49"/>
    </edge>
    <edge id="14724" from="53" to="52" priority="3" type="highway.residential" spreadType="center" length="71.84" shape="593.25,-714.48 500.77,-636.67">
        <lane id="14724_0" index="0" disallow="pedestrian tram rail_urban rail rail_electric rail_fast ship" speed="36.11" length="71.84" width="3.50" customShape="1" shape="571.87,-698.77 570.38,-697.45 564.61,-691.94 557.33,-684.41 545.58,-671.49 522.59,-646.53"/>
        <lane id="14724_1" index="1" disallow="pedestrian tram rail_urban rail rail_electric rail_fast ship" speed="36.11" length="72.22" width="3.50" customShape="1" shape="569.57,-701.41 568.02,-700.03 562.18,-694.46 554.83,-686.87 543.07,-673.92 520.02,-648.91"/>
    </edge>
    <edge id="14727" from="52" to="53" priority="3" type="highway.residential" spreadType="center" length="72.58" shape="496.27,-642.02 588.74,-719.84">
        <lane id="14727_0" index="0" disallow="pedestrian tram rail_urban rail rail_electric rail_fast ship" speed="36.11" length="72.96" width="3.50" customShape="1" shape="514.87,-653.65 538.15,-678.92 550.09,-692.04 557.53,-699.71 563.44,-705.32 564.95,-706.67"/>
        <lane id="14727_1" index="1" disallow="pedestrian tram rail_urban rail rail_electric rail_fast ship" speed="36.11" length="72.58" width="3.50" customShape="1" shape="517.45,-651.28 540.61,-676.42 552.46,-689.46 559.85,-697.08 565.73,-702.68 567.26,-704.04"/>
    </edge>
    <edge id="14821" from="61" to="56" priority="3" type="highway.residential" spreadType="center" length="1.89">
        <lane id="14821_0" index="0" disallow="pedestrian tram rail_urban rail rail_electric rail_fast ship" speed="36.11" length="1.89" width="3.50" customShape="1" shape="639.78,-739.49 637.92,-739.80"/>
        <lane id="14821_1" index="1" disallow="pedestrian tram rail_urban rail rail_electric rail_fast ship" speed="36.11" length="1.89" width="3.50" customShape="1" shape="640.35,-742.93 638.49,-743.25"/>
    </edge>
    <edge id="14842" from="57" to="22" priority="3" type="highway.residential" spreadType="center" length="65.64" shape="627.90,-714.09 617.76,-626.75">
        <lane id="14842_0" index="0" disallow="pedestrian tram rail_urban rail rail_electric rail_fast ship" speed="36.11" length="65.64" width="3.50" customShape="1" shape="626.04,-691.87 621.90,-659.32 617.76,-626.75"/>
    </edge>
    <edge id="14843" from="20" to="57" priority="3" type="highway.residential" spreadType="center" length="65.64" shape="614.29,-627.20 624.42,-714.50">
        <lane id="14843_0" index="0" disallow="pedestrian tram rail_urban rail rail_electric rail_fast ship" speed="36.11" length="65.64" width="3.50" customShape="1" shape="614.29,-627.20 618.43,-659.76 622.57,-692.32"/>
    </edge>
    <edge id="14871" from="54" to="55" priority="3" type="highway.residential" spreadType="center" length="0.20">
        <lane id="14871_0" index="0" disallow="pedestrian tram rail_urban rail rail_electric rail_fast ship" speed="36.11" length="0.20" width="3.50" customShape="1" shape="620.33,-748.52 620.47,-748.66"/>
        <lane id="14871_1" index="1" disallow="pedestrian tram rail_urban rail rail_electric rail_fast ship" speed="36.11" length="0.21" width="3.50" customShape="1" shape="623.04,-746.29 623.18,-746.44"/>
    </edge>
    <edge id="14879" from="60" to="39" priority="3" type="highway.residential" spreadType="center" length="55.88" shape="571.24,-785.55 565.17,-846.68">
        <lane id="14879_0" index="0" disallow="pedestrian tram rail_urban rail rail_electric rail_fast ship" speed="36.11" length="55.88" width="3.50" customShape="1" shape="574.25,-799.59 576.39,-806.67 578.23,-813.35 579.29,-818.19 579.88,-822.11 580.15,-825.56 580.11,-829.03 579.80,-831.98 579.20,-834.89 578.29,-837.72 577.09,-840.44 576.36,-841.73 575.65,-842.41 574.34,-843.11 572.94,-843.59 570.55,-844.26 568.23,-845.10 565.17,-846.68"/>
    </edge>
    <edge id="14880" from="50" to="60" priority="3" type="highway.residential" spreadType="center" length="60.72" shape="566.78,-849.79 574.71,-785.94">
        <lane id="14880_0" index="0" disallow="pedestrian tram rail_urban rail rail_electric rail_fast ship" speed="36.11" length="60.72" width="3.50" customShape="1" shape="566.78,-849.79 569.85,-848.21 572.19,-847.44 574.71,-846.69 576.32,-846.03 577.90,-845.07 578.94,-844.08 579.98,-842.46 581.36,-839.49 582.41,-836.38 583.14,-833.19 583.55,-829.94 583.66,-826.17 583.43,-822.42 582.84,-818.20 581.75,-813.03 579.84,-805.99 577.59,-798.57"/>
    </edge>
    <edge id="14883" from="56" to="55" priority="3" type="highway.residential" spreadType="center" length="0.20">
        <lane id="14883_0" index="0" disallow="pedestrian tram rail_urban rail rail_electric rail_fast ship" speed="36.11" length="0.20" width="3.50" customShape="1" shape="625.38,-747.81 625.24,-747.95"/>
        <lane id="14883_1" index="1" disallow="pedestrian tram rail_urban rail rail_electric rail_fast ship" speed="36.11" length="0.21" width="3.50" customShape="1" shape="628.55,-749.54 628.41,-749.69"/>
    </edge>
    <edge id="14942" from="48" to="52" priority="3" type="highway.residential" spreadType="center" length="40.51" shape="461.21,-679.97 499.81,-640.53">
        <lane id="14942_0" index="0" disallow="pedestrian tram rail_urban rail rail_electric rail_fast ship" speed="36.11" length="40.51" width="3.50" customShape="1" shape="461.21,-679.97 475.32,-665.43 489.42,-650.89"/>
    </edge>
    <edge id="14943" from="52" to="30" priority="3" type="highway.residential" spreadType="center" length="40.51" shape="497.31,-638.08 458.69,-677.54">
        <lane id="14943_0" index="0" disallow="pedestrian tram rail_urban rail rail_electric rail_fast ship" speed="36.11" length="40.51" width="3.50" customShape="1" shape="486.90,-648.46 472.80,-662.99 458.69,-677.54"/>
    </edge>