<routes>
	<vehicle depart="0.1" departLane="0" departPos="20.03200361407205" departSpeed="4.9134853" id="1" type="passenger">
		<route edges="50201 50213 50197"/>
	</vehicle>
	<vehicle depart="0.1" departLane="0" departPos="88.54928357241761" departSpeed="3.2926039" id="2" type="passenger">
		<route edges="50195 50211 50199"/>
	</vehicle>
	<vehicle depart="0.1" departLane="0" departPos="147.3986059863715" departSpeed="2.377508" id="4" type="passenger">
		<route edges="50205 50217 50199"/>
	</vehicle>
	<vehicle depart="0.1" departLane="0" departPos="155.39876760444199" departSpeed="5.1636486" id="5" type="passenger">
		<route edges="50205 50217 50199"/>
	</vehicle>
	<vehicle depart="0.1" departLane="0" departPos="12.029683032889627" departSpeed="3.3255934" id="7" type="passenger">
		<route edges="50201 50213 50197"/>
	</vehicle>
</routes>
