<routes>
	<vehicle depart="0.1" departLane="0" departPos="33.1262011153134" departSpeed="8.4094871" id="39" type="bicycle">
		<route edges=":72_5 58475 58472"/>
	</vehicle>
	<vehicle depart="0.1" departLane="0" departPos="62.39541313939723" departSpeed="0.0" id="311" type="passenger">
		<route edges="58516 58478"/>
	</vehicle>
	<vehicle depart="0.1" departLane="0" departPos="18.202031770372585" departSpeed="0.8402879" id="318" type="passenger">
		<route edges=":72_7 58479 58519"/>
	</vehicle>
	<vehicle depart="0.1" departLane="0" departPos="69.89677328473658" departSpeed="0.0" id="321" type="passenger">
		<route edges="58516 58519"/>
	</vehicle>
	<vehicle depart="0.1" departLane="0" departPos="54.09211031611229" departSpeed="2.7508018" id="323" type="passenger">
		<route edges="58455 58458"/>
	</vehicle>
	<vehicle depart="0.1" departLane="0" departPos="15.681558944589794" departSpeed="5.1024355" id="332" type="passenger">
		<route edges="58478 58454"/>
	</vehicle>
	<vehicle depart="0.1" departLane="0" departPos="31.408805036150238" departSpeed="8.2067971" id="340" type="passenger">
		<route edges=":74_1 58478 58475"/>
	</vehicle>
	<vehicle depart="0.1" departLane="0" departPos="9.62257480675925" departSpeed="7.4586804" id="344" type="passenger">
		<route edges=":74_1 58478 58454"/>
	</vehicle>
</routes>
