<!-- generated on Tue Feb  9 22:04:32 2021 by Eclipse SUMO netconvert Version 1.8.0
<configuration xmlns:xsi="http://www.w3.org/2001/XMLSchema-instance" xsi:noNamespaceSchemaLocation="http://sumo.dlr.de/xsd/netconvertConfiguration.xsd">

    <input>
        <node-files value="./converted_scenarios/scenario-factory/ESP_Requena-6_2_I-1-1/ESP_Requena-6_2_I-1-1.nod.xml"/>
        <edge-files value="./converted_scenarios/scenario-factory/ESP_Requena-6_2_I-1-1/ESP_Requena-6_2_I-1-1.edg.xml"/>
        <connection-files value="./converted_scenarios/scenario-factory/ESP_Requena-6_2_I-1-1/ESP_Requena-6_2_I-1-1.con.xml"/>
        <tllogic-files value="./converted_scenarios/scenario-factory/ESP_Requena-6_2_I-1-1/ESP_Requena-6_2_I-1-1.tll.xml"/>
        <type-files value="/home/zen/commonroad-interactive-benchmarks/install/commonroad-map-tool/crmapconverter/sumo_map/templates/DEU.typ.xml"/>
    </input>

    <output>
        <output-file value="./converted_scenarios/scenario-factory/ESP_Requena-6_2_I-1-1/ESP_Requena-6_2_I-1-1.net.xml"/>
    </output>

    <processing>
        <geometry.remove.keep-edges.explicit value="true"/>
        <geometry.avoid-overlap value="true"/>
        <offset.disable-normalization value="true"/>
    </processing>

    <junctions>
        <no-turnarounds value="true"/>
        <junctions.internal-link-detail value="20"/>
    </junctions>

    <report>
        <aggregate-warnings value="5"/>
    </report>

    <random_number>
        <seed value="1234"/>
    </random_number>

</configuration>
--><net xmlns:xsi="http://www.w3.org/2001/XMLSchema-instance" version="1.6" junctionCornerDetail="5" junctionLinkDetail="20" limitTurnSpeed="5.50" xsi:noNamespaceSchemaLocation="http://sumo.dlr.de/xsd/net_file.xsd">

    <location netOffset="0.00,0.00" convBoundary="45.09,-838.42,327.65,-544.09" origBoundary="-2.43,-838.42,327.65,-541.97" projParameter="!"/>

    <type id="highway.bridleway" priority="1" speed="2.78" allow="pedestrian" oneway="1" width="2.00"/>
    <type id="highway.bus_guideway" priority="1" speed="27.78" allow="bus" oneway="1"/>
    <type id="highway.cycleway" priority="1" speed="8.33" allow="bicycle" oneway="0" width="1.00"/>
    <type id="highway.footway" priority="1" speed="2.78" allow="pedestrian" oneway="1" width="2.00"/>
    <type id="highway.ford" priority="1" speed="2.78" allow="army" oneway="0"/>
    <type id="highway.living_street" priority="2" speed="2.78" disallow="tram rail_urban rail rail_electric rail_fast ship" oneway="0"/>
    <type id="highway.motorway" priority="14" speed="39.44" allow="private emergency authority army vip passenger hov taxi bus coach delivery truck trailer motorcycle evehicle custom1 custom2" oneway="1"/>
    <type id="highway.motorway_link" priority="9" speed="22.22" allow="private emergency authority army vip passenger hov taxi bus coach delivery truck trailer motorcycle evehicle custom1 custom2" oneway="1"/>
    <type id="highway.path" priority="1" speed="2.78" allow="pedestrian bicycle" oneway="0" width="2.00"/>
    <type id="highway.pedestrian" priority="1" speed="2.78" allow="pedestrian" oneway="1" width="2.00"/>
    <type id="highway.primary" priority="12" speed="27.78" disallow="pedestrian tram rail_urban rail rail_electric rail_fast ship" oneway="0"/>
    <type id="highway.primary_link" priority="7" speed="22.22" disallow="pedestrian tram rail_urban rail rail_electric rail_fast ship" oneway="0"/>
    <type id="highway.raceway" priority="15" speed="83.33" allow="vip" oneway="0"/>
    <type id="highway.residential" priority="3" speed="13.89" disallow="pedestrian tram rail_urban rail rail_electric rail_fast ship" oneway="0"/>
    <type id="highway.secondary" priority="11" speed="27.78" disallow="pedestrian tram rail_urban rail rail_electric rail_fast ship" oneway="0"/>
    <type id="highway.secondary_link" priority="6" speed="22.22" disallow="pedestrian tram rail_urban rail rail_electric rail_fast ship" oneway="0"/>
    <type id="highway.service" priority="1" speed="5.56" allow="pedestrian delivery bicycle" oneway="0"/>
    <type id="highway.stairs" priority="1" speed="1.39" allow="pedestrian" oneway="1" width="2.00"/>
    <type id="highway.step" priority="1" speed="1.39" allow="pedestrian" oneway="1" width="2.00"/>
    <type id="highway.steps" priority="1" speed="1.39" allow="pedestrian" oneway="1" width="2.00"/>
    <type id="highway.tertiary" priority="10" speed="22.22" disallow="pedestrian tram rail_urban rail rail_electric rail_fast ship" oneway="0"/>
    <type id="highway.tertiary_link" priority="5" speed="22.22" disallow="pedestrian tram rail_urban rail rail_electric rail_fast ship" oneway="0"/>
    <type id="highway.track" priority="1" speed="5.56" allow="pedestrian motorcycle moped bicycle" oneway="0"/>
    <type id="highway.trunk" priority="13" speed="27.78" disallow="pedestrian bicycle tram rail_urban rail rail_electric rail_fast ship" oneway="0"/>
    <type id="highway.trunk_link" priority="8" speed="22.22" disallow="pedestrian bicycle tram rail_urban rail rail_electric rail_fast ship" oneway="0"/>
    <type id="highway.unclassified" priority="4" speed="13.89" disallow="pedestrian tram rail_urban rail rail_electric rail_fast ship" oneway="0"/>
    <type id="highway.unsurfaced" priority="1" speed="8.33" disallow="tram rail_urban rail rail_electric rail_fast ship" oneway="0"/>
    <type id="railway.highspeed" priority="21" speed="69.44" allow="rail_fast" oneway="1"/>
    <type id="railway.light_rail" priority="19" speed="27.78" allow="rail_urban" oneway="1"/>
    <type id="railway.preserved" priority="16" speed="27.78" allow="rail" oneway="1"/>
    <type id="railway.rail" priority="20" speed="44.44" allow="rail" oneway="1"/>
    <type id="railway.subway" priority="18" speed="27.78" allow="rail_urban" oneway="1"/>
    <type id="railway.tram" priority="17" speed="13.89" allow="tram" oneway="1"/>

    <edge id=":46_0" function="internal">
        <lane id=":46_0_0" index="0" disallow="pedestrian tram rail_urban rail rail_electric rail_fast ship" speed="36.11" length="0.10" width="3.50" shape="104.90,-550.83 104.90,-550.83"/>
    </edge>
    <edge id=":59_0" function="internal">
        <lane id=":59_0_0" index="0" disallow="pedestrian tram rail_urban rail rail_electric rail_fast ship" speed="36.11" length="3.78" width="3.50" shape="133.19,-544.69 129.58,-543.58"/>
    </edge>
    <edge id=":62_0" function="internal">
        <lane id=":62_0_0" index="0" disallow="pedestrian tram rail_urban rail rail_electric rail_fast ship" speed="36.11" length="3.73" width="3.50" shape="128.59,-546.94 132.15,-548.04"/>
    </edge>
    <edge id=":63_0" function="internal">
        <lane id=":63_0_0" index="0" disallow="pedestrian tram rail_urban rail rail_electric rail_fast ship" speed="36.11" length="0.10" width="3.50" shape="102.43,-548.36 102.43,-548.36"/>
    </edge>
    <edge id=":69_0" function="internal">
        <lane id=":69_0_0" index="0" disallow="pedestrian tram rail_urban rail rail_electric rail_fast ship" speed="36.11" length="38.58" width="3.50" shape="70.82,-619.14 63.15,-636.87 55.51,-654.55"/>
    </edge>
    <edge id=":69_1" function="internal">
        <lane id=":69_1_0" index="0" disallow="pedestrian tram rail_urban rail rail_electric rail_fast ship" speed="12.12" length="34.60" width="3.50" shape="70.82,-619.14 69.41,-622.90 68.73,-625.47 68.31,-628.10 68.22,-630.75 68.32,-632.08 68.53,-633.39 68.85,-634.68 69.29,-635.94 69.84,-637.15 70.50,-638.30 71.26,-639.40 72.11,-640.42 74.03,-642.26 76.18,-643.83 78.47,-645.16 82.11,-646.80"/>
    </edge>
    <edge id=":69_2" function="internal">
        <lane id=":69_2_0" index="0" disallow="pedestrian tram rail_urban rail rail_electric rail_fast ship" speed="11.11" length="28.90" width="3.50" shape="83.40,-643.55 80.21,-642.11 78.27,-640.98 76.47,-639.67 74.87,-638.13 74.21,-637.33 73.60,-636.45 73.07,-635.53 72.64,-634.57 72.29,-633.57 72.03,-632.54 71.87,-631.48 71.79,-630.43 71.86,-628.21 72.22,-626.00 72.80,-623.81 74.03,-620.52"/>
    </edge>
    <edge id=":69_3" function="internal">
        <lane id=":69_3_0" index="0" disallow="pedestrian tram rail_urban rail rail_electric rail_fast ship" speed="12.29" length="34.01" width="3.50" shape="83.40,-643.54 79.78,-642.34 77.27,-641.77 74.70,-641.43 72.08,-641.39 69.47,-641.70 68.13,-642.02 66.85,-642.44 65.60,-642.97 64.41,-643.59 63.24,-644.34 61.20,-646.01 59.42,-647.94 57.89,-650.05 56.60,-652.27 55.51,-654.55"/>
    </edge>
    <edge id=":69_4" function="internal">
        <lane id=":69_4_0" index="0" disallow="pedestrian tram rail_urban rail rail_electric rail_fast ship" speed="11.30" length="28.56" width="3.50" shape="58.72,-655.96 59.66,-653.97 60.77,-652.07 62.06,-650.29 63.55,-648.68 65.25,-647.30 66.18,-646.71 67.16,-646.20 68.17,-645.78 69.22,-645.44 70.29,-645.19 72.47,-644.93 74.67,-644.98 76.84,-645.27 78.99,-645.76 82.11,-646.80"/>
    </edge>
    <edge id=":69_5" function="internal">
        <lane id=":69_5_0" index="0" disallow="pedestrian tram rail_urban rail rail_electric rail_fast ship" speed="36.11" length="38.61" width="3.50" shape="58.72,-655.96 66.37,-638.25 74.03,-620.52"/>
    </edge>
    <edge id=":70_0" function="internal">
        <lane id=":70_0_0" index="0" disallow="pedestrian tram rail_urban rail rail_electric rail_fast ship" speed="13.08" length="28.39" width="3.50" shape="159.83,-682.96 157.90,-683.52 155.93,-683.77 153.93,-683.71 151.94,-683.36 149.99,-682.75 148.09,-681.91 146.26,-680.88 143.61,-679.05 141.12,-676.97 138.77,-674.70 135.80,-671.43"/>
    </edge>
    <edge id=":70_1" function="internal">
        <lane id=":70_1_0" index="0" disallow="pedestrian tram rail_urban rail rail_electric rail_fast ship" speed="36.11" length="40.38" width="3.50" shape="159.83,-682.96 140.87,-689.93 121.93,-696.90"/>
    </edge>
    <edge id=":70_2" function="internal">
        <lane id=":70_2_0" index="0" disallow="pedestrian tram rail_urban rail rail_electric rail_fast ship" speed="14.39" length="35.81" width="3.50" shape="159.83,-682.96 158.67,-683.41 156.51,-684.45 154.45,-685.72 152.52,-687.22 150.79,-688.94 149.26,-690.84 147.97,-692.90 146.90,-695.06 146.04,-697.31 145.12,-700.73 144.57,-704.21 144.31,-707.70 144.33,-712.31"/>
    </edge>
    <edge id=":70_3" function="internal">
        <lane id=":70_3_0" index="0" disallow="pedestrian tram rail_urban rail rail_electric rail_fast ship" speed="13.50" length="31.45" width="3.50" shape="147.83,-712.25 147.80,-707.98 148.02,-704.85 148.50,-701.75 149.28,-698.72 150.00,-696.75 150.91,-694.87 152.00,-693.09 153.28,-691.44 154.75,-689.95 156.39,-688.65 158.16,-687.54 160.04,-686.63 161.02,-686.25"/>
    </edge>
    <edge id=":70_4" function="internal">
        <lane id=":70_4_0" index="0" disallow="pedestrian tram rail_urban rail rail_electric rail_fast ship" speed="23.29" length="43.29" width="3.50" shape="147.83,-712.25 147.40,-705.70 146.64,-699.26 145.70,-693.94 144.42,-688.70 143.11,-684.58 141.50,-680.58 140.05,-677.68 138.40,-674.90 136.50,-672.27 135.80,-671.43"/>
    </edge>
    <edge id=":70_5" function="internal">
        <lane id=":70_5_0" index="0" disallow="pedestrian tram rail_urban rail rail_electric rail_fast ship" speed="11.46" length="37.79" width="3.50" shape="147.84,-712.25 147.60,-709.27 147.15,-706.40 146.40,-703.60 145.88,-702.25 145.26,-700.94 144.51,-699.70 143.64,-698.54 142.63,-697.50 141.50,-696.60 140.26,-695.85 138.93,-695.27 137.54,-694.85 136.12,-694.58 134.67,-694.44 133.22,-694.42 130.34,-694.66 127.49,-695.20 123.31,-696.41 121.93,-696.90"/>
    </edge>
    <edge id=":70_6" function="internal">
        <lane id=":70_6_0" index="0" disallow="pedestrian tram rail_urban rail rail_electric rail_fast ship" speed="10.40" length="30.88" width="3.50" shape="123.13,-700.18 124.32,-699.76 127.98,-698.70 130.39,-698.24 132.84,-698.02 134.00,-698.03 135.16,-698.14 136.28,-698.34 137.35,-698.65 138.36,-699.08 139.30,-699.63 140.15,-700.30 140.92,-701.07 141.60,-701.95 142.19,-702.92 142.69,-703.96 143.11,-705.03 143.75,-707.39 144.14,-709.82 144.33,-712.31"/>
    </edge>
    <edge id=":70_7" function="internal">
        <lane id=":70_7_0" index="0" disallow="pedestrian tram rail_urban rail rail_electric rail_fast ship" speed="36.11" length="40.37" width="3.50" shape="123.13,-700.18 142.08,-693.21 161.02,-686.25"/>
    </edge>
    <edge id=":70_8" function="internal">
        <lane id=":70_8_0" index="0" disallow="pedestrian tram rail_urban rail rail_electric rail_fast ship" speed="11.62" length="39.81" width="3.50" shape="123.13,-700.18 127.25,-698.53 131.21,-696.57 133.73,-695.04 136.10,-693.29 137.19,-692.30 138.21,-691.24 139.14,-690.09 139.93,-688.85 140.58,-687.53 141.04,-686.13 141.31,-684.68 141.37,-683.21 141.24,-681.74 140.94,-680.30 140.48,-678.90 139.90,-677.54 138.46,-674.97 136.75,-672.58 135.80,-671.43"/>
    </edge>
    <edge id=":70_9" function="internal">
        <lane id=":70_9_0" index="0" disallow="pedestrian tram rail_urban rail rail_electric rail_fast ship" speed="10.59" length="32.79" width="3.50" shape="133.14,-673.70 133.94,-674.67 135.40,-676.71 136.59,-678.88 137.02,-679.95 137.36,-681.06 137.57,-682.17 137.64,-683.28 137.56,-684.38 137.33,-685.45 136.94,-686.48 136.42,-687.48 135.77,-688.43 135.01,-689.33 134.16,-690.18 133.25,-690.97 131.21,-692.45 129.04,-693.74 125.56,-695.44 121.93,-696.90"/>
    </edge>
    <edge id=":70_10" function="internal">
        <lane id=":70_10_0" index="0" disallow="pedestrian tram rail_urban rail rail_electric rail_fast ship" speed="22.65" length="40.88" width="3.50" shape="133.14,-673.70 133.76,-674.45 135.53,-676.90 137.06,-679.49 138.39,-682.20 139.90,-685.98 141.12,-689.87 142.32,-694.86 143.20,-699.94 143.92,-706.11 144.33,-712.31"/>
    </edge>
    <edge id=":70_11" function="internal">
        <lane id=":70_11_0" index="0" disallow="pedestrian tram rail_urban rail rail_electric rail_fast ship" speed="13.99" length="32.63" width="3.50" shape="133.14,-673.70 136.41,-677.28 139.03,-679.79 141.83,-682.09 144.83,-684.11 146.96,-685.26 149.19,-686.19 151.50,-686.86 153.89,-687.23 156.30,-687.26 158.70,-686.92 161.02,-686.25"/>
    </edge>
    <edge id=":71_0" function="internal">
        <lane id=":71_0_0" index="0" disallow="pedestrian tram rail_urban rail rail_electric rail_fast ship" speed="19.36" length="31.79" width="3.50" shape="104.54,-703.29 103.62,-703.61 100.67,-704.44 97.68,-704.97 94.64,-705.23 91.58,-705.24 88.52,-705.01 85.48,-704.56 81.44,-703.66 77.47,-702.47 73.55,-701.02"/>
    </edge>
    <edge id=":71_1" function="internal">
        <lane id=":71_1_0" index="0" disallow="pedestrian tram rail_urban rail rail_electric rail_fast ship" speed="18.58" length="33.90" width="3.50" shape="104.54,-703.29 103.45,-703.72 100.37,-705.17 97.44,-706.95 94.72,-709.02 92.21,-711.33 89.93,-713.84 87.86,-716.52 86.00,-719.33 83.81,-723.21 81.91,-727.25"/>
    </edge>
    <edge id=":71_2" function="internal">
        <lane id=":71_2_0" index="0" disallow="pedestrian tram rail_urban rail rail_electric rail_fast ship" speed="17.79" length="31.07" width="3.50" shape="85.12,-728.64 86.89,-724.88 88.92,-721.27 90.62,-718.68 92.51,-716.21 94.59,-713.90 96.86,-711.79 99.33,-709.90 101.98,-708.28 104.78,-706.95 105.75,-706.57"/>
    </edge>
    <edge id=":71_3" function="internal">
        <lane id=":71_3_0" index="0" disallow="pedestrian tram rail_urban rail rail_electric rail_fast ship" speed="12.13" length="34.57" width="3.50" shape="85.12,-728.64 86.51,-724.89 87.18,-722.32 87.56,-719.69 87.61,-717.03 87.48,-715.71 87.25,-714.40 86.90,-713.12 86.44,-711.88 85.86,-710.68 85.18,-709.54 84.40,-708.46 82.61,-706.50 80.56,-704.80 78.34,-703.35 76.00,-702.10 73.55,-701.02"/>
    </edge>
    <edge id=":71_4" function="internal">
        <lane id=":71_4_0" index="0" disallow="pedestrian tram rail_urban rail rail_electric rail_fast ship" speed="11.13" length="28.89" width="3.50" shape="72.24,-704.27 74.38,-705.21 76.40,-706.28 78.29,-707.52 80.00,-708.93 81.49,-710.56 82.10,-711.41 82.64,-712.32 83.10,-713.27 83.47,-714.26 83.75,-715.29 83.94,-716.34 84.05,-717.38 84.01,-719.60 83.68,-721.80 83.12,-723.99 81.91,-727.25"/>
    </edge>
    <edge id=":71_5" function="internal">
        <lane id=":71_5_0" index="0" disallow="pedestrian tram rail_urban rail rail_electric rail_fast ship" speed="20.12" length="34.37" width="3.50" shape="72.24,-704.27 76.42,-705.81 80.66,-707.07 84.99,-708.03 88.28,-708.50 91.60,-708.74 94.92,-708.72 98.23,-708.43 101.50,-707.83 104.70,-706.94 105.75,-706.57"/>
    </edge>
    <edge id=":72_0" function="internal">
        <lane id=":72_0_0" index="0" disallow="pedestrian tram rail_urban rail rail_electric rail_fast ship" speed="12.48" length="29.12" width="3.50" shape="212.09,-663.76 210.03,-664.40 207.94,-664.81 205.84,-664.97 203.75,-664.84 201.70,-664.42 199.72,-663.73 197.83,-662.77 196.05,-661.59 194.37,-660.23 192.03,-657.89 189.93,-655.30 188.01,-652.52"/>
    </edge>
    <edge id=":72_1" function="internal">
        <lane id=":72_1_0" index="0" disallow="pedestrian tram rail_urban rail rail_electric rail_fast ship" speed="36.11" length="38.88" width="3.50" shape="212.09,-663.76 193.82,-670.46 175.59,-677.15"/>
    </edge>
    <edge id=":72_2" function="internal">
        <lane id=":72_2_0" index="0" disallow="pedestrian tram rail_urban rail rail_electric rail_fast ship" speed="13.12" length="34.39" width="3.50" shape="212.09,-663.76 210.92,-664.21 208.72,-665.26 206.61,-666.55 204.64,-668.10 202.89,-669.91 201.40,-671.94 200.21,-674.16 199.32,-676.49 198.71,-678.88 198.35,-681.32 198.21,-684.92 198.43,-688.50 198.94,-692.01"/>
    </edge>
    <edge id=":72_3" function="internal">
        <lane id=":72_3_0" index="0" disallow="pedestrian tram rail_urban rail rail_electric rail_fast ship" speed="12.17" length="29.47" width="3.50" shape="202.39,-691.41 201.93,-688.27 201.72,-685.12 201.83,-681.96 202.12,-679.88 202.61,-677.84 203.33,-675.86 204.31,-674.00 205.53,-672.28 206.97,-670.76 208.61,-669.44 210.40,-668.34 212.30,-667.43 213.28,-667.05"/>
    </edge>
    <edge id=":72_4" function="internal">
        <lane id=":72_4_0" index="0" disallow="pedestrian tram rail_urban rail rail_electric rail_fast ship" speed="36.11" length="41.72" width="3.50" shape="202.39,-691.41 200.86,-684.06 199.23,-677.86 197.27,-671.75 194.95,-665.77 192.73,-660.91 190.23,-656.19 188.01,-652.52"/>
    </edge>
    <edge id=":72_5" function="internal">
        <lane id=":72_5_0" index="0" disallow="pedestrian tram rail_urban rail rail_electric rail_fast ship" speed="11.78" length="36.27" width="3.50" shape="202.39,-691.41 202.12,-690.06 201.45,-687.46 200.52,-684.88 199.30,-682.42 198.53,-681.20 197.66,-680.06 196.68,-678.99 195.58,-678.03 194.39,-677.18 193.10,-676.46 191.75,-675.90 190.36,-675.47 188.95,-675.19 187.51,-675.03 184.75,-675.04 182.03,-675.37 179.37,-675.96 175.59,-677.15"/>
    </edge>
    <edge id=":72_6" function="internal">
        <lane id=":72_6_0" index="0" disallow="pedestrian tram rail_urban rail rail_electric rail_fast ship" speed="10.75" length="29.98" width="3.50" shape="176.80,-680.44 180.08,-679.40 182.33,-678.90 184.62,-678.61 186.93,-678.60 188.08,-678.72 189.21,-678.94 190.32,-679.27 191.38,-679.71 192.40,-680.26 193.34,-680.92 194.21,-681.68 195.00,-682.52 195.70,-683.44 196.33,-684.41 197.36,-686.47 198.14,-688.65 198.72,-690.88 198.94,-692.01"/>
    </edge>
    <edge id=":72_7" function="internal">
        <lane id=":72_7_0" index="0" disallow="pedestrian tram rail_urban rail rail_electric rail_fast ship" speed="36.11" length="38.86" width="3.50" shape="176.80,-680.44 195.03,-673.75 213.28,-667.05"/>
    </edge>
    <edge id=":72_8" function="internal">
        <lane id=":72_8_0" index="0" disallow="pedestrian tram rail_urban rail rail_electric rail_fast ship" speed="11.56" length="36.37" width="3.50" shape="176.80,-680.44 180.46,-678.91 182.86,-677.67 185.17,-676.21 187.31,-674.49 188.34,-673.47 189.27,-672.38 190.10,-671.19 190.81,-669.90 191.38,-668.53 191.78,-667.11 192.02,-665.65 192.09,-664.18 192.01,-662.74 191.80,-661.32 191.47,-659.91 190.56,-657.32 189.39,-654.85 188.01,-652.52"/>
    </edge>
    <edge id=":72_9" function="internal">
        <lane id=":72_9_0" index="0" disallow="pedestrian tram rail_urban rail rail_electric rail_fast ship" speed="10.50" length="29.84" width="3.50" shape="185.11,-654.49 186.24,-656.40 187.23,-658.48 187.98,-660.66 188.23,-661.78 188.39,-662.92 188.44,-664.07 188.37,-665.22 188.18,-666.36 187.85,-667.46 187.39,-668.52 186.82,-669.52 186.15,-670.46 185.39,-671.33 184.57,-672.13 182.76,-673.56 180.81,-674.78 178.76,-675.84 175.59,-677.15"/>
    </edge>
    <edge id=":72_10" function="internal">
        <lane id=":72_10_0" index="0" disallow="pedestrian tram rail_urban rail rail_electric rail_fast ship" speed="36.11" length="40.23" width="3.50" shape="185.12,-654.49 187.19,-657.93 189.61,-662.49 191.75,-667.18 193.99,-672.97 195.88,-678.88 197.46,-684.90 198.94,-692.01"/>
    </edge>
    <edge id=":72_11" function="internal">
        <lane id=":72_11_0" index="0" disallow="pedestrian tram rail_urban rail rail_electric rail_fast ship" speed="13.41" length="33.76" width="3.50" shape="185.12,-654.49 187.21,-657.51 189.59,-660.42 192.27,-663.06 194.23,-664.63 196.33,-665.99 198.59,-667.09 200.96,-667.89 203.42,-668.36 205.93,-668.49 208.43,-668.29 210.88,-667.79 213.28,-667.05"/>
    </edge>
    <edge id=":73_0" function="internal">
        <lane id=":73_0_0" index="0" disallow="pedestrian tram rail_urban rail rail_electric rail_fast ship" speed="36.11" length="38.63" width="3.50" shape="92.57,-569.01 84.87,-586.73 77.17,-604.44"/>
    </edge>
    <edge id=":73_1" function="internal">
        <lane id=":73_1_0" index="0" disallow="pedestrian tram rail_urban rail rail_electric rail_fast ship" speed="12.29" length="34.61" width="3.50" shape="92.57,-569.01 91.18,-572.76 90.51,-575.33 90.10,-577.96 90.01,-580.62 90.11,-581.95 90.31,-583.26 90.62,-584.56 91.04,-585.82 91.57,-587.04 92.21,-588.21 92.94,-589.32 93.76,-590.37 95.62,-592.28 97.70,-593.93 99.95,-595.36 103.53,-597.13"/>
    </edge>
    <edge id=":73_2" function="internal">
        <lane id=":73_2_0" index="0" disallow="pedestrian tram rail_urban rail rail_electric rail_fast ship" speed="11.29" length="29.08" width="3.50" shape="104.93,-593.93 101.80,-592.37 99.89,-591.16 98.13,-589.77 96.57,-588.17 95.93,-587.34 95.33,-586.43 94.82,-585.49 94.40,-584.51 94.06,-583.50 93.81,-582.45 93.65,-581.38 93.57,-580.33 93.64,-578.08 93.99,-575.86 94.57,-573.67 95.80,-570.37"/>
    </edge>
    <edge id=":73_3" function="internal">
        <lane id=":73_3_0" index="0" disallow="pedestrian tram rail_urban rail rail_electric rail_fast ship" speed="12.16" length="33.96" width="3.50" shape="104.93,-593.93 102.57,-593.00 100.14,-592.24 97.63,-591.69 95.03,-591.41 92.42,-591.47 91.06,-591.65 89.75,-591.95 88.46,-592.35 87.21,-592.87 86.01,-593.50 84.87,-594.22 83.80,-595.03 82.79,-595.93 81.04,-597.85 79.53,-599.96 78.25,-602.17 77.17,-604.44"/>
    </edge>
    <edge id=":73_4" function="internal">
        <lane id=":73_4_0" index="0" disallow="pedestrian tram rail_urban rail rail_electric rail_fast ship" speed="11.15" length="28.38" width="3.50" shape="80.37,-605.85 81.31,-603.88 82.40,-601.99 83.67,-600.21 85.15,-598.60 85.97,-597.88 86.84,-597.22 87.76,-596.64 88.73,-596.14 89.74,-595.72 90.78,-595.40 91.85,-595.16 92.93,-595.02 95.11,-594.97 97.28,-595.21 99.41,-595.68 101.50,-596.33 103.53,-597.13"/>
    </edge>
    <edge id=":73_5" function="internal">
        <lane id=":73_5_0" index="0" disallow="pedestrian tram rail_urban rail rail_electric rail_fast ship" speed="36.11" length="38.69" width="3.50" shape="80.37,-605.85 88.08,-588.12 95.80,-570.37"/>
    </edge>
    <edge id=":74_0" function="internal">
        <lane id=":74_0_0" index="0" disallow="pedestrian tram rail_urban rail rail_electric rail_fast ship" speed="12.80" length="28.67" width="3.50" shape="264.94,-644.63 263.77,-644.87 260.53,-645.32 258.41,-645.40 256.31,-645.28 254.24,-644.95 252.24,-644.39 250.34,-643.59 248.54,-642.56 246.88,-641.31 245.35,-639.87 243.97,-638.27 242.73,-636.55 241.08,-633.74"/>
    </edge>
    <edge id=":74_1" function="internal">
        <lane id=":74_1_0" index="0" disallow="pedestrian tram rail_urban rail rail_electric rail_fast ship" speed="36.11" length="39.15" width="3.50" shape="264.94,-644.63 262.68,-645.35 228.11,-657.89"/>
    </edge>
    <edge id=":74_2" function="internal">
        <lane id=":74_2_0" index="0" disallow="pedestrian tram rail_urban rail rail_electric rail_fast ship" speed="12.25" length="35.83" width="3.50" shape="264.94,-644.63 263.52,-644.97 261.06,-645.78 258.64,-646.90 256.40,-648.34 255.32,-649.23 254.34,-650.19 253.45,-651.24 252.66,-652.37 251.97,-653.55 251.39,-654.79 250.92,-656.07 250.54,-657.39 250.08,-659.97 249.91,-662.58 249.99,-665.18 250.45,-668.97 251.23,-672.68"/>
    </edge>
    <edge id=":74_3" function="internal">
        <lane id=":74_3_0" index="0" disallow="pedestrian tram rail_urban rail rail_electric rail_fast ship" speed="11.25" length="30.07" width="3.50" shape="254.63,-671.89 253.93,-668.57 253.52,-665.26 253.44,-663.04 253.56,-660.81 253.92,-658.62 254.21,-657.54 254.58,-656.49 255.03,-655.48 255.57,-654.50 256.19,-653.58 256.89,-652.72 257.67,-651.93 258.52,-651.20 260.37,-649.98 262.39,-649.03 264.50,-648.33 265.56,-648.07"/>
    </edge>
    <edge id=":74_4" function="internal">
        <lane id=":74_4_0" index="0" disallow="pedestrian tram rail_urban rail rail_electric rail_fast ship" speed="36.11" length="40.58" width="3.50" shape="254.64,-671.89 254.12,-669.82 251.65,-660.84 249.13,-652.93 246.63,-646.10 243.81,-639.38 241.08,-633.74"/>
    </edge>
    <edge id=":74_5" function="internal">
        <lane id=":74_5_0" index="0" disallow="pedestrian tram rail_urban rail rail_electric rail_fast ship" speed="11.87" length="35.37" width="3.50" shape="254.64,-671.89 253.44,-667.94 252.40,-665.43 251.09,-663.05 250.32,-661.93 249.48,-660.86 248.55,-659.87 247.53,-658.97 246.43,-658.17 245.26,-657.49 244.03,-656.92 242.74,-656.48 241.42,-656.16 240.08,-655.96 237.36,-655.87 234.66,-656.14 232.00,-656.68 228.11,-657.89"/>
    </edge>
    <edge id=":74_6" function="internal">
        <lane id=":74_6_0" index="0" disallow="pedestrian tram rail_urban rail rail_electric rail_fast ship" speed="10.84" length="29.31" width="3.50" shape="229.31,-661.18 232.70,-660.12 234.95,-659.66 237.22,-659.44 239.48,-659.51 240.53,-659.67 241.58,-659.92 242.60,-660.27 243.57,-660.71 244.48,-661.25 245.35,-661.88 246.16,-662.59 246.90,-663.38 247.59,-664.25 248.21,-665.15 249.32,-667.17 250.20,-669.29 251.23,-672.68"/>
    </edge>
    <edge id=":74_7" function="internal">
        <lane id=":74_7_0" index="0" disallow="pedestrian tram rail_urban rail rail_electric rail_fast ship" speed="36.11" length="38.55" width="3.50" shape="229.31,-661.18 263.65,-648.71 265.56,-648.07"/>
    </edge>
    <edge id=":74_8" function="internal">
        <lane id=":74_8_0" index="0" disallow="pedestrian tram rail_urban rail rail_electric rail_fast ship" speed="11.74" length="35.22" width="3.50" shape="229.31,-661.18 232.89,-659.68 235.23,-658.44 237.45,-656.98 239.51,-655.26 240.48,-654.25 241.36,-653.17 242.14,-652.00 242.81,-650.75 243.35,-649.44 243.76,-648.08 244.02,-646.69 244.14,-645.29 244.14,-643.87 243.81,-641.19 243.13,-638.58 242.21,-636.11 241.08,-633.74"/>
    </edge>
    <edge id=":74_9" function="internal">
        <lane id=":74_9_0" index="0" disallow="pedestrian tram rail_urban rail rail_electric rail_fast ship" speed="10.72" length="29.14" width="3.50" shape="237.98,-635.35 238.94,-637.38 239.72,-639.48 240.28,-641.65 240.54,-643.87 240.54,-644.99 240.43,-646.11 240.22,-647.21 239.89,-648.28 239.46,-649.31 238.92,-650.30 238.29,-651.22 237.58,-652.09 236.80,-652.89 235.07,-654.33 233.19,-655.55 231.21,-656.60 228.11,-657.89"/>
    </edge>
    <edge id=":74_10" function="internal">
        <lane id=":74_10_0" index="0" disallow="pedestrian tram rail_urban rail rail_electric rail_fast ship" speed="36.11" length="39.70" width="3.50" shape="237.98,-635.35 240.64,-640.85 243.39,-647.42 245.83,-654.11 248.30,-661.87 250.73,-670.70 251.23,-672.68"/>
    </edge>
    <edge id=":74_11" function="internal">
        <lane id=":74_11_0" index="0" disallow="pedestrian tram rail_urban rail rail_electric rail_fast ship" speed="13.75" length="33.14" width="3.50" shape="237.98,-635.35 239.84,-638.53 241.28,-640.53 242.88,-642.38 244.67,-644.07 246.64,-645.54 248.77,-646.77 251.03,-647.72 253.39,-648.39 255.82,-648.78 258.27,-648.91 260.73,-648.82 264.37,-648.31 265.56,-648.07"/>
    </edge>
    <edge id=":75_0" function="internal">
        <lane id=":75_0_0" index="0" disallow="pedestrian tram rail_urban rail rail_electric rail_fast ship" speed="36.11" length="38.52" width="3.50" shape="48.26,-671.33 38.59,-693.27 32.88,-705.54 32.44,-706.45"/>
    </edge>
    <edge id=":75_1" function="internal">
        <lane id=":75_1_0" index="0" disallow="pedestrian tram rail_urban rail rail_electric rail_fast ship" speed="12.14" length="34.62" width="3.50" shape="48.26,-671.33 46.85,-675.10 46.17,-677.67 45.76,-680.30 45.68,-682.96 45.78,-684.28 45.99,-685.60 46.31,-686.89 46.74,-688.14 47.29,-689.36 47.95,-690.51 48.70,-691.61 49.54,-692.64 51.45,-694.49 53.57,-696.09 55.86,-697.46 59.48,-699.14"/>
    </edge>
    <edge id=":75_2" function="internal">
        <lane id=":75_2_0" index="0" disallow="pedestrian tram rail_urban rail rail_electric rail_fast ship" speed="11.14" length="28.95" width="3.50" shape="60.80,-695.90 57.63,-694.43 55.69,-693.27 53.91,-691.93 52.32,-690.38 51.66,-689.56 51.05,-688.68 50.53,-687.75 50.09,-686.79 49.75,-685.79 49.49,-684.75 49.32,-683.69 49.24,-682.64 49.31,-680.41 49.66,-678.20 50.24,-676.01 51.47,-672.72"/>
    </edge>
    <edge id=":75_3" function="internal">