<routes>
	<vehicle depart="0.1" departLane="0" departPos="40.955360800622884" departSpeed="0.0" id="33" type="passenger">
		<route edges="37827 38461"/>
	</vehicle>
	<vehicle depart="0.1" departLane="0" departPos="9.45146330273082" departSpeed="0.0061977775" id="311" type="passenger">
		<route edges=":33_2 38461"/>
	</vehicle>
	<vehicle depart="0.1" departLane="0" departPos="59.89554041478919" departSpeed="0.0" id="312" type="passenger">
		<route edges="38558 37869"/>
	</vehicle>
	<vehicle depart="0.1" departLane="0" departPos="52.4972368599151" departSpeed="0.0" id="313" type="passenger">
		<route edges="38558 37869"/>
	</vehicle>
	<vehicle depart="0.1" departLane="0" departPos="6.578176012742568" departSpeed="0.0" id="314" type="passenger">
		<route edges="38556 38559"/>
	</vehicle>
	<vehicle depart="0.1" departLane="0" departPos="20.17459190454758" departSpeed="8.0934038" id="335" type="passenger">
		<route edges=":33_3 37872 38906"/>
	</vehicle>
	<vehicle depart="0.1" departLane="0" departPos="2.5" departSpeed="9.9486543" id="338" type="passenger">
		<route edges=":33_5 37826"/>
	</vehicle>
	<vehicle depart="0.1" departLane="0" departPos="31.250332131009415" departSpeed="7.2582911" id="341" type="passenger">
		<route edges="38460 37872"/>
	</vehicle>
	<vehicle depart="0.1" departLane="0" departPos="69.89563321651518" departSpeed="0.0" id="30" type="truck">
		<route edges="38558 37869"/>
	</vehicle>
	<vehicle depart="0.1" departLane="0" departPos="12.064613627242112" departSpeed="0.044717712" id="322" type="truck">
		<route edges=":33_10 38461"/>
	</vehicle>
</routes>
