<!-- generated on Tue Feb  9 22:21:18 2021 by Eclipse SUMO netconvert Version 1.8.0
<configuration xmlns:xsi="http://www.w3.org/2001/XMLSchema-instance" xsi:noNamespaceSchemaLocation="http://sumo.dlr.de/xsd/netconvertConfiguration.xsd">

    <input>
        <node-files value="./converted_scenarios/scenario-factory/DEU_Moabit-5_3_I-1-1/DEU_Moabit-5_3_I-1-1.nod.xml"/>
        <edge-files value="./converted_scenarios/scenario-factory/DEU_Moabit-5_3_I-1-1/DEU_Moabit-5_3_I-1-1.edg.xml"/>
        <connection-files value="./converted_scenarios/scenario-factory/DEU_Moabit-5_3_I-1-1/DEU_Moabit-5_3_I-1-1.con.xml"/>
        <tllogic-files value="./converted_scenarios/scenario-factory/DEU_Moabit-5_3_I-1-1/DEU_Moabit-5_3_I-1-1.tll.xml"/>
        <type-files value="/home/zen/commonroad-interactive-benchmarks/install/commonroad-map-tool/crmapconverter/sumo_map/templates/DEU.typ.xml"/>
    </input>

    <output>
        <output-file value="./converted_scenarios/scenario-factory/DEU_Moabit-5_3_I-1-1/DEU_Moabit-5_3_I-1-1.net.xml"/>
    </output>

    <processing>
        <geometry.remove.keep-edges.explicit value="true"/>
        <geometry.avoid-overlap value="true"/>
        <offset.disable-normalization value="true"/>
    </processing>

    <junctions>
        <no-turnarounds value="true"/>
        <junctions.internal-link-detail value="20"/>
    </junctions>

    <report>
        <aggregate-warnings value="5"/>
    </report>

    <random_number>
        <seed value="1234"/>
    </random_number>

</configuration>
--><net xmlns:xsi="http://www.w3.org/2001/XMLSchema-instance" version="1.6" junctionCornerDetail="5" junctionLinkDetail="20" limitTurnSpeed="5.50" xsi:noNamespaceSchemaLocation="http://sumo.dlr.de/xsd/net_file.xsd">

    <location netOffset="0.00,0.00" convBoundary="-368.59,-379.10,-162.79,-165.81" origBoundary="-368.59,-379.10,-162.79,-165.81" projParameter="!"/>

    <type id="highway.bridleway" priority="1" speed="2.78" allow="pedestrian" oneway="1" width="2.00"/>
    <type id="highway.bus_guideway" priority="1" speed="27.78" allow="bus" oneway="1"/>
    <type id="highway.cycleway" priority="1" speed="8.33" allow="bicycle" oneway="0" width="1.00"/>
    <type id="highway.footway" priority="1" speed="2.78" allow="pedestrian" oneway="1" width="2.00"/>
    <type id="highway.ford" priority="1" speed="2.78" allow="army" oneway="0"/>
    <type id="highway.living_street" priority="2" speed="2.78" disallow="tram rail_urban rail rail_electric rail_fast ship" oneway="0"/>
    <type id="highway.motorway" priority="14" speed="39.44" allow="private emergency authority army vip passenger hov taxi bus coach delivery truck trailer motorcycle evehicle custom1 custom2" oneway="1"/>
    <type id="highway.motorway_link" priority="9" speed="22.22" allow="private emergency authority army vip passenger hov taxi bus coach delivery truck trailer motorcycle evehicle custom1 custom2" oneway="1"/>
    <type id="highway.path" priority="1" speed="2.78" allow="pedestrian bicycle" oneway="0" width="2.00"/>
    <type id="highway.pedestrian" priority="1" speed="2.78" allow="pedestrian" oneway="1" width="2.00"/>
    <type id="highway.primary" priority="12" speed="27.78" disallow="pedestrian tram rail_urban rail rail_electric rail_fast ship" oneway="0"/>
    <type id="highway.primary_link" priority="7" speed="22.22" disallow="pedestrian tram rail_urban rail rail_electric rail_fast ship" oneway="0"/>
    <type id="highway.raceway" priority="15" speed="83.33" allow="vip" oneway="0"/>
    <type id="highway.residential" priority="3" speed="13.89" disallow="pedestrian tram rail_urban rail rail_electric rail_fast ship" oneway="0"/>
    <type id="highway.secondary" priority="11" speed="27.78" disallow="pedestrian tram rail_urban rail rail_electric rail_fast ship" oneway="0"/>
    <type id="highway.secondary_link" priority="6" speed="22.22" disallow="pedestrian tram rail_urban rail rail_electric rail_fast ship" oneway="0"/>
    <type id="highway.service" priority="1" speed="5.56" allow="pedestrian delivery bicycle" oneway="0"/>
    <type id="highway.stairs" priority="1" speed="1.39" allow="pedestrian" oneway="1" width="2.00"/>
    <type id="highway.step" priority="1" speed="1.39" allow="pedestrian" oneway="1" width="2.00"/>
    <type id="highway.steps" priority="1" speed="1.39" allow="pedestrian" oneway="1" width="2.00"/>
    <type id="highway.tertiary" priority="10" speed="22.22" disallow="pedestrian tram rail_urban rail rail_electric rail_fast ship" oneway="0"/>
    <type id="highway.tertiary_link" priority="5" speed="22.22" disallow="pedestrian tram rail_urban rail rail_electric rail_fast ship" oneway="0"/>
    <type id="highway.track" priority="1" speed="5.56" allow="pedestrian motorcycle moped bicycle" oneway="0"/>
    <type id="highway.trunk" priority="13" speed="27.78" disallow="pedestrian bicycle tram rail_urban rail rail_electric rail_fast ship" oneway="0"/>
    <type id="highway.trunk_link" priority="8" speed="22.22" disallow="pedestrian bicycle tram rail_urban rail rail_electric rail_fast ship" oneway="0"/>
    <type id="highway.unclassified" priority="4" speed="13.89" disallow="pedestrian tram rail_urban rail rail_electric rail_fast ship" oneway="0"/>
    <type id="highway.unsurfaced" priority="1" speed="8.33" disallow="tram rail_urban rail rail_electric rail_fast ship" oneway="0"/>
    <type id="railway.highspeed" priority="21" speed="69.44" allow="rail_fast" oneway="1"/>
    <type id="railway.light_rail" priority="19" speed="27.78" allow="rail_urban" oneway="1"/>
    <type id="railway.preserved" priority="16" speed="27.78" allow="rail" oneway="1"/>
    <type id="railway.rail" priority="20" speed="44.44" allow="rail" oneway="1"/>
    <type id="railway.subway" priority="18" speed="27.78" allow="rail_urban" oneway="1"/>
    <type id="railway.tram" priority="17" speed="13.89" allow="tram" oneway="1"/>

    <edge id=":23_0" function="internal">
        <lane id=":23_0_0" index="0" disallow="pedestrian tram rail_urban rail rail_electric rail_fast ship" speed="36.11" length="3.00" width="3.50" shape="-282.65,-335.73 -282.24,-338.70"/>
    </edge>
    <edge id=":26_0" function="internal">
        <lane id=":26_0_0" index="0" disallow="pedestrian tram rail_urban rail rail_electric rail_fast ship" speed="36.11" length="2.93" width="3.50" shape="-197.29,-246.39 -200.22,-246.47"/>
    </edge>
    <edge id=":27_0" function="internal">
        <lane id=":27_0_0" index="0" disallow="pedestrian tram rail_urban rail rail_electric rail_fast ship" speed="36.11" length="2.82" width="3.50" shape="-169.78,-251.13 -172.47,-250.27"/>
    </edge>
    <edge id=":29_0" function="internal">
        <lane id=":29_0_0" index="0" disallow="pedestrian tram rail_urban rail rail_electric rail_fast ship" speed="36.11" length="0.23" width="3.50" shape="-198.78,-249.90 -198.55,-249.89"/>
    </edge>
    <edge id=":31_0" function="internal">
        <lane id=":31_0_0" index="0" disallow="pedestrian tram rail_urban rail rail_electric rail_fast ship" speed="36.11" length="2.99" width="3.50" shape="-278.77,-338.20 -279.19,-335.24"/>
    </edge>
    <edge id=":34_0" function="internal">
        <lane id=":34_0_0" index="0" disallow="pedestrian tram rail_urban rail rail_electric rail_fast ship" speed="12.07" length="27.94" width="3.50" shape="-204.86,-246.72 -208.09,-246.84 -210.24,-246.72 -212.36,-246.40 -214.45,-245.87 -216.46,-245.10 -218.35,-244.07 -220.08,-242.80 -221.63,-241.31 -222.98,-239.64 -224.12,-237.81 -225.08,-235.89 -226.20,-232.89"/>
    </edge>
    <edge id=":34_1" function="internal">
        <lane id=":34_1_0" index="0" disallow="pedestrian tram rail_urban rail rail_electric rail_fast ship" speed="32.98" length="36.73" width="3.50" shape="-204.86,-246.72 -210.23,-247.32 -215.55,-248.21 -220.82,-249.39 -226.00,-250.89 -231.08,-252.72 -236.03,-254.87 -239.90,-256.84"/>
    </edge>
    <edge id=":34_2" function="internal">
        <lane id=":34_2_0" index="0" disallow="pedestrian tram rail_urban rail rail_electric rail_fast ship" speed="32.25" length="35.14" width="3.50" shape="-238.12,-259.86 -234.53,-258.03 -229.78,-255.97 -224.90,-254.22 -219.92,-252.78 -214.86,-251.64 -209.73,-250.79 -204.58,-250.21"/>
    </edge>
    <edge id=":34_3" function="internal">
        <lane id=":34_3_0" index="0" disallow="pedestrian tram rail_urban rail rail_electric rail_fast ship" speed="13.04" length="32.42" width="3.50" shape="-238.12,-259.86 -237.13,-259.30 -234.10,-257.32 -232.16,-255.77 -230.36,-254.04 -228.74,-252.11 -227.35,-249.98 -226.25,-247.67 -225.49,-245.23 -225.06,-242.72 -224.96,-240.19 -225.14,-237.69 -225.57,-235.25 -226.20,-232.89"/>
    </edge>
    <edge id=":34_4" function="internal">
        <lane id=":34_4_0" index="0" disallow="pedestrian tram rail_urban rail rail_electric rail_fast ship" speed="12.08" length="27.70" width="3.50" shape="-229.54,-233.93 -229.00,-235.96 -228.63,-238.06 -228.48,-240.18 -228.57,-242.31 -228.94,-244.41 -229.59,-246.44 -230.51,-248.36 -231.68,-250.14 -233.06,-251.77 -234.60,-253.24 -236.27,-254.57 -238.95,-256.31 -239.90,-256.84"/>
    </edge>
    <edge id=":34_5" function="internal">
        <lane id=":34_5_0" index="0" disallow="pedestrian tram rail_urban rail rail_electric rail_fast ship" speed="13.03" length="32.70" width="3.50" shape="-229.54,-233.93 -228.26,-237.36 -227.14,-239.61 -225.80,-241.75 -224.21,-243.74 -222.37,-245.52 -220.29,-247.05 -218.04,-248.27 -215.66,-249.20 -213.21,-249.83 -210.73,-250.20 -208.24,-250.34 -204.58,-250.21"/>
    </edge>
    <edge id=":35_0" function="internal">
        <lane id=":35_0_0" index="0" disallow="pedestrian tram rail_urban rail rail_electric rail_fast ship" speed="11.59" length="28.52" width="3.50" shape="-275.85,-296.84 -276.69,-298.93 -277.70,-300.88 -278.93,-302.66 -280.40,-304.24 -281.19,-304.90 -282.04,-305.51 -282.94,-306.04 -283.89,-306.50 -284.88,-306.88 -285.87,-307.18 -288.03,-307.58 -290.22,-307.71 -292.43,-307.61 -295.81,-307.11 -299.17,-306.27"/>
    </edge>
    <edge id=":35_1" function="internal">
        <lane id=":35_1_0" index="0" disallow="pedestrian tram rail_urban rail rail_electric rail_fast ship" speed="36.11" length="27.79" width="3.50" shape="-275.85,-296.84 -277.88,-302.94 -279.98,-310.11 -281.74,-317.38 -282.93,-323.68"/>
    </edge>
    <edge id=":35_2" function="internal">
        <lane id=":35_2_0" index="0" disallow="pedestrian tram rail_urban rail rail_electric rail_fast ship" speed="36.11" length="27.14" width="3.50" shape="-279.48,-324.24 -278.32,-318.10 -276.59,-310.99 -274.54,-303.97 -272.56,-298.03"/>
    </edge>
    <edge id=":35_3" function="internal">
        <lane id=":35_3_0" index="0" disallow="pedestrian tram rail_urban rail rail_electric rail_fast ship" speed="11.66" length="29.16" width="3.50" shape="-279.48,-324.24 -279.35,-322.90 -279.39,-321.51 -279.61,-320.13 -280.02,-318.80 -280.59,-317.54 -281.30,-316.39 -282.11,-315.33 -282.99,-314.37 -283.95,-313.48 -285.93,-311.98 -288.05,-310.68 -291.30,-309.08 -294.64,-307.74 -299.17,-306.27"/>
    </edge>
    <edge id=":35_4" function="internal">
        <lane id=":35_4_0" index="0" disallow="pedestrian tram rail_urban rail rail_electric rail_fast ship" speed="10.64" length="24.08" width="3.50" shape="-300.12,-309.64 -296.13,-310.92 -293.20,-312.05 -290.35,-313.39 -288.54,-314.43 -286.82,-315.63 -286.01,-316.31 -285.26,-317.03 -284.57,-317.82 -283.97,-318.68 -283.48,-319.61 -283.11,-320.59 -282.90,-321.61 -282.84,-322.66 -282.93,-323.68"/>
    </edge>
    <edge id=":35_5" function="internal">
        <lane id=":35_5_0" index="0" disallow="pedestrian tram rail_urban rail rail_electric rail_fast ship" speed="12.59" length="33.84" width="3.50" shape="-300.12,-309.64 -296.33,-310.58 -292.47,-311.14 -289.87,-311.24 -287.27,-311.07 -284.71,-310.57 -283.47,-310.18 -282.26,-309.70 -281.09,-309.12 -279.98,-308.44 -278.93,-307.68 -277.95,-306.82 -276.19,-304.90 -274.73,-302.75 -273.52,-300.44 -272.56,-298.03"/>
    </edge>
    <edge id=":36_0" function="internal">
        <lane id=":36_0_0" index="0" disallow="pedestrian tram rail_urban rail rail_electric rail_fast ship" speed="11.97" length="28.08" width="3.50" shape="-248.49,-262.55 -249.39,-263.25 -252.17,-265.18 -254.07,-266.24 -256.06,-267.13 -258.10,-267.80 -260.18,-268.21 -262.28,-268.33 -264.36,-268.16 -266.41,-267.69 -268.40,-266.95 -270.31,-265.96 -272.13,-264.77 -273.85,-263.41"/>
    </edge>
    <edge id=":36_1" function="internal">
        <lane id=":36_1_0" index="0" disallow="pedestrian tram rail_urban rail rail_electric rail_fast ship" speed="29.34" length="38.31" width="3.50" shape="-248.49,-262.55 -250.16,-263.92 -255.71,-268.75 -260.28,-273.13 -263.91,-277.00 -267.31,-281.08 -269.82,-284.56 -272.08,-288.22 -273.55,-291.12"/>
    </edge>
    <edge id=":36_2" function="internal">
        <lane id=":36_2_0" index="0" disallow="pedestrian tram rail_urban rail rail_electric rail_fast ship" speed="28.70" length="36.53" width="3.50" shape="-270.31,-292.47 -268.99,-289.86 -266.85,-286.40 -264.45,-283.10 -261.19,-279.20 -257.70,-275.49 -253.28,-271.26 -247.90,-266.59 -246.32,-265.30"/>
    </edge>
    <edge id=":36_3" function="internal">
        <lane id=":36_3_0" index="0" disallow="pedestrian tram rail_urban rail rail_electric rail_fast ship" speed="13.42" length="31.70" width="3.50" shape="-270.32,-292.47 -269.43,-290.41 -268.24,-287.06 -267.35,-283.59 -266.98,-281.18 -266.82,-278.74 -266.94,-276.27 -267.34,-273.81 -268.08,-271.41 -269.13,-269.13 -270.48,-267.02 -272.07,-265.11 -273.85,-263.41"/>
    </edge>
    <edge id=":36_4" function="internal">
        <lane id=":36_4_0" index="0" disallow="pedestrian tram rail_urban rail rail_electric rail_fast ship" speed="12.48" length="27.29" width="3.50" shape="-276.13,-266.06 -274.62,-267.51 -273.28,-269.13 -272.17,-270.91 -271.31,-272.83 -270.73,-274.85 -270.42,-276.92 -270.35,-279.02 -270.51,-281.12 -270.85,-283.19 -271.65,-286.24 -272.72,-289.20 -273.55,-291.12"/>
    </edge>
    <edge id=":36_5" function="internal">
        <lane id=":36_5_0" index="0" disallow="pedestrian tram rail_urban rail rail_electric rail_fast ship" speed="12.93" length="32.95" width="3.50" shape="-276.13,-266.06 -274.15,-267.63 -272.03,-269.03 -269.78,-270.20 -267.41,-271.09 -264.94,-271.67 -262.41,-271.89 -259.88,-271.75 -257.40,-271.28 -254.98,-270.50 -252.67,-269.47 -250.45,-268.24 -247.32,-266.08 -246.32,-265.30"/>
    </edge>

    <edge id="107102" from="31" to="35" priority="3" type="highway.residential" spreadType="center" length="11.06" shape="-278.99,-336.72 -283.31,-309.40">
        <lane id="107102_0" index="0" disallow="pedestrian tram rail_urban rail rail_electric rail_fast ship" speed="36.11" length="11.06" width="3.50" customShape="1" shape="-279.19,-335.24 -279.29,-334.46 -279.70,-329.94 -279.73,-326.62 -279.52,-324.45 -279.48,-324.22"/>
    </edge>
    <edge id="107189" from="34" to="29" priority="3" type="highway.residential" spreadType="center" length="5.81" shape="-224.10,-248.49 -198.66,-249.89">
        <lane id="107189_0" index="0" disallow="pedestrian tram rail_urban rail rail_electric rail_fast ship" speed="36.11" length="5.81" width="3.50" customShape="1" shape="-204.58,-250.21 -204.03,-250.17 -198.78,-249.90"/>
    </edge>
    <edge id="107190" from="26" to="34" priority="3" type="highway.residential" spreadType="center" length="4.66" shape="-198.75,-246.39 -223.91,-245.00">
        <lane id="107190_0" index="0" disallow="pedestrian tram rail_urban rail rail_electric rail_fast ship" speed="36.11" length="4.66" width="3.50" customShape="1" shape="-200.22,-246.47 -204.29,-246.68 -204.87,-246.72"/>
    </edge>
    <edge id="107546" from="22" to="34" priority="3" type="highway.residential" spreadType="center" length="70.00" shape="-249.52,-166.85 -225.55,-247.29">
        <lane id="107546_0" index="0" disallow="pedestrian tram rail_urban rail rail_electric rail_fast ship" speed="36.11" length="70.00" width="3.50" customShape="1" shape="-249.52,-166.85 -246.63,-177.81 -241.85,-194.31 -229.54,-233.93"/>
    </edge>
    <edge id="107547" from="34" to="18" priority="3" type="highway.residential" spreadType="center" length="70.00" shape="-222.20,-246.29 -246.17,-165.81">
        <lane id="107547_0" index="0" disallow="pedestrian tram rail_urban rail rail_electric rail_fast ship" speed="36.11" length="70.00" width="3.50" customShape="1" shape="-226.20,-232.89 -238.47,-193.40 -243.23,-176.97 -246.17,-165.81"/>
    </edge>
    <edge id="107549" from="29" to="30" priority="3" type="highway.residential" spreadType="center" length="30.46">
        <lane id="107549_0" index="0" disallow="pedestrian tram rail_urban rail rail_electric rail_fast ship" speed="36.11" length="30.46" width="3.50" customShape="1" shape="-198.55,-249.89 -197.65,-249.88 -192.47,-250.03 -187.33,-250.55 -182.23,-251.39 -177.18,-252.55 -172.18,-253.99 -170.47,-254.60 -168.73,-255.21"/>
    </edge>
    <edge id="107550" from="28" to="27" priority="3" type="highway.residential" spreadType="center" length="7.41">
        <lane id="107550_0" index="0" disallow="pedestrian tram rail_urban rail rail_electric rail_fast ship" speed="36.11" length="7.41" width="3.50" customShape="1" shape="-162.79,-253.60 -167.50,-251.93 -169.31,-251.29 -169.78,-251.13"/>
    </edge>
    <edge id="107737" from="15" to="36" priority="3" type="highway.residential" spreadType="center" length="70.00" shape="-329.27,-220.50 -265.90,-274.86">
        <lane id="107737_0" index="0" disallow="pedestrian tram rail_urban rail rail_electric rail_fast ship" speed="36.11" length="70.00" width="3.50" customShape="1" shape="-329.27,-220.50 -311.96,-235.35 -276.13,-266.07"/>
    </edge>
    <edge id="107738" from="36" to="9" priority="3" type="highway.residential" spreadType="center" length="70.00" shape="-263.62,-272.20 -326.99,-217.85">
        <lane id="107738_0" index="0" disallow="pedestrian tram rail_urban rail rail_electric rail_fast ship" speed="36.11" length="70.00" width="3.50" customShape="1" shape="-273.85,-263.41 -309.68,-232.69 -326.99,-217.85"/>
    </edge>
    <edge id="107842" from="36" to="34" priority="3" type="highway.residential" spreadType="center" length="9.85" shape="-263.89,-275.00 -222.92,-248.22">
        <lane id="107842_0" index="0" disallow="pedestrian tram rail_urban rail rail_electric rail_fast ship" speed="36.11" length="9.85" width="3.50" customShape="1" shape="-246.32,-265.30 -245.12,-264.34 -241.75,-261.99 -238.13,-259.86"/>
    </edge>
    <edge id="107843" from="34" to="36" priority="3" type="highway.residential" spreadType="center" length="10.36" shape="-224.84,-245.29 -265.80,-272.08">
        <lane id="107843_0" index="0" disallow="pedestrian tram rail_urban rail rail_electric rail_fast ship" speed="36.11" length="10.36" width="3.50" customShape="1" shape="-239.90,-256.84 -243.65,-259.05 -247.22,-261.55 -248.52,-262.57"/>
    </edge>
    <edge id="107845" from="35" to="36" priority="3" type="highway.residential" spreadType="center" length="6.00" shape="-283.49,-310.63 -263.23,-274.29">
        <lane id="107845_0" index="0" disallow="pedestrian tram rail_urban rail rail_electric rail_fast ship" speed="36.11" length="6.00" width="3.50" customShape="1" shape="-272.56,-298.03 -272.01,-296.52 -270.32,-292.47"/>
    </edge>
    <edge id="107846" from="36" to="35" priority="3" type="highway.residential" spreadType="center" length="6.18" shape="-266.28,-272.59 -286.55,-308.93">
        <lane id="107846_0" index="0" disallow="pedestrian tram rail_urban rail rail_electric rail_fast ship" speed="36.11" length="6.18" width="3.50" customShape="1" shape="-273.55,-291.12 -275.28,-295.27 -275.85,-296.85"/>
    </edge>
    <edge id="107926" from="32" to="31" priority="3" type="highway.residential" spreadType="center" length="40.79">
        <lane id="107926_0" index="0" disallow="pedestrian tram rail_urban rail rail_electric rail_fast ship" speed="36.11" length="40.79" width="3.50" customShape="1" shape="-272.91,-378.57 -275.95,-357.64 -278.77,-338.20"/>
    </edge>
    <edge id="107927" from="23" to="24" priority="3" type="highway.residential" spreadType="center" length="40.82">
        <lane id="107927_0" index="0" disallow="pedestrian tram rail_urban rail rail_electric rail_fast ship" speed="36.11" length="40.82" width="3.50" customShape="1" shape="-282.24,-338.70 -279.41,-358.15 -276.37,-379.10"/>
    </edge>
    <edge id="108753" from="25" to="35" priority="3" type="highway.residential" spreadType="center" length="70.10" shape="-368.59,-295.25 -285.32,-311.50">
        <lane id="108753_0" index="0" disallow="pedestrian tram rail_urban rail rail_electric rail_fast ship" speed="36.11" length="70.10" width="3.50" customShape="1" shape="-368.59,-295.25 -333.21,-303.52 -326.81,-304.82 -311.41,-307.19 -304.99,-308.40 -300.03,-309.66"/>
    </edge>
    <edge id="108754" from="35" to="19" priority="3" type="highway.residential" spreadType="center" length="69.99" shape="-284.65,-308.07 -367.63,-291.88">
        <lane id="108754_0" index="0" disallow="pedestrian tram rail_urban rail rail_electric rail_fast ship" speed="36.11" length="69.99" width="3.50" customShape="1" shape="-299.17,-306.27 -304.13,-305.01 -310.63,-303.77 -326.04,-301.41 -332.38,-300.12 -367.63,-291.88"/>
    </edge>
    <edge id="110350" from="35" to="23" priority="3" type="highway.residential" spreadType="center" length="12.09" shape="-286.76,-309.94 -282.46,-337.22">
        <lane id="110350_0" index="0" disallow="pedestrian tram rail_urban rail rail_electric rail_fast ship" speed="36.11" length="12.09" width="3.50" customShape="1" shape="-282.93,-323.68 -282.96,-323.83 -282.98,-323.95 -283.22,-326.36 -283.20,-329.99 -282.77,-334.82 -282.65,-335.73"/>
    </edge>
    <edge id="110884" from="27" to="26" priority="3" type="highway.residential" spreadType="center" length="25.21">
        <lane id="110884_0" index="0" disallow="pedestrian tram rail_urban rail rail_electric rail_fast ship" speed="36.11" length="25.21" width="3.50" customShape="1" shape="-172.47,-250.27 -176.32,-249.16 -181.58,-247.96 -186.90,-247.07 -192.26,-246.54 -197.29,-246.39"/>
    </edge>

    <junction id="15" type="dead_end" x="-329.27" y="-220.50" incLanes="" intLanes="" shape="-328.14,-219.17 -330.41,-221.83" rightOfWay="edgePriority"/>
    <junction id="18" type="dead_end" x="-246.17" y="-165.81" incLanes="107547_0" intLanes="" shape="-244.48,-165.36 -247.86,-166.25" rightOfWay="edgePriority"/>
    <junction id="19" type="dead_end" x="-367.63" y="-291.88" incLanes="108754_0" intLanes="" shape="-367.24,-290.18 -368.03,-293.59" rightOfWay="edgePriority"/>
    <junction id="22" type="dead_end" x="-249.52" y="-166.85" incLanes="" intLanes="" shape="-247.82,-166.40 -251.21,-167.30" rightOfWay="edgePriority"/>
    <junction id="23" type="priority" x="-282.46" y="-337.22" incLanes="110350_0" intLanes=":23_0_0" shape="-280.51,-338.45 -283.97,-338.95 -284.39,-335.96 -280.92,-335.50" rightOfWay="edgePriority">
        <request index="0" response="0" foes="0" cont="0"/>
    </junction>
    <junction id="24" type="dead_end" x="-276.37" y="-379.10" incLanes="107927_0" intLanes="" shape="-278.10,-379.35 -274.64,-378.84" rightOfWay="edgePriority"/>
    <junction id="25" type="dead_end" x="-368.59" y="-295.25" incLanes="" intLanes="" shape="-368.19,-293.55 -368.99,-296.96" rightOfWay="edgePriority"/>
    <junction id="26" type="priority" x="-198.75" y="-246.39" incLanes="110884_0" intLanes=":26_0_0" shape="-197.31,-244.64 -197.27,-248.14 -200.13,-248.21 -200.31,-244.72" rightOfWay="edgePriority">
        <request index="0" response="0" foes="0" cont="0"/>
    </junction>
    <junction id="27" type="priority" x="-171.11" y="-250.66" incLanes="107550_0" intLanes=":27_0_0" shape="-169.20,-249.48 -170.36,-252.78 -172.96,-251.95 -171.99,-248.58" rightOfWay="edgePriority">
        <request index="0" response="0" foes="0" cont="0"/>
    </junction>
    <junction id="28" type="dead_end" x="-162.79" y="-253.60" incLanes="" intLanes="" shape="-163.37,-255.25 -162.20,-251.95" rightOfWay="edgePriority"/>
    <junction id="29" type="priority" x="-198.66" y="-249.89" incLanes="107189_0" intLanes=":29_0_0" shape="-198.57,-248.14 -198.53,-251.64 -198.69,-251.64 -198.87,-248.15" rightOfWay="edgePriority">
        <request index="0" response="0" foes="0" cont="0"/>
    </junction>
    <junction id="30" type="dead_end" x="-168.73" y="-255.21" incLanes="107549_0" intLanes="" shape="-169.31,-256.86 -168.15,-253.56" rightOfWay="edgePriority"/>
    <junction id="31" type="priority" x="-278.99" y="-336.72" incLanes="107926_0" intLanes=":31_0_0" shape="-277.04,-337.95 -280.51,-338.46 -280.92,-335.47 -277.45,-335.01" rightOfWay="edgePriority">
        <request index="0" response="0" foes="0" cont="0"/>
    </junction>
    <junction id="32" type="dead_end" x="-272.91" y="-378.57" incLanes="" intLanes="" shape="-274.64,-378.82 -271.17,-378.32" rightOfWay="edgePriority"/>
    <junction id="34" type="priority" x="-223.88" y="-246.75" incLanes="107190_0 107842_0 107546_0" intLanes=":34_0_0 :34_1_0 :34_2_0 :34_3_0 :34_4_0 :34_5_0" shape="-205.01,-244.98 -204.44,-251.96 -211.75,-252.54 -217.23,-253.10 -221.70,-253.95 -225.97,-255.40 -230.88,-257.77 -237.24,-261.37 -240.78,-255.33 -236.74,-252.54 -233.68,-249.46 -231.60,-246.12 -230.49,-242.50 -230.36,-238.61 -231.21,-234.44 -224.53,-232.37 -222.79,-236.57 -220.44,-239.94 -217.49,-242.46 -213.94,-244.14 -209.78,-244.98">
        <request index="0" response="000000" foes="001000" cont="0"/>
        <request index="1" response="000000" foes="111000" cont="0"/>
        <request index="2" response="000000" foes="100000" cont="0"/>
        <request index="3" response="000011" foes="100011" cont="0"/>
        <request index="4" response="000010" foes="000010" cont="0"/>
        <request index="5" response="001110" foes="001110" cont="0"/>
    </junction>
    <junction id="35" type="priority" x="-285.02" y="-309.78" incLanes="107846_0 107102_0 108753_0" intLanes=":35_0_0 :35_1_0 :35_2_0 :35_3_0 :35_4_0 :35_5_0" shape="-277.49,-296.24 -270.91,-298.62 -272.85,-304.00 -274.22,-308.00 -275.22,-311.34 -276.02,-314.73 -276.81,-318.89 -277.75,-324.52 -284.66,-323.40 -284.75,-320.93 -285.86,-318.64 -287.99,-316.54 -291.13,-314.63 -295.29,-312.90 -300.47,-311.36 -298.74,-304.58 -293.51,-305.53 -288.96,-305.55 -285.08,-304.62 -281.88,-302.77 -279.35,-299.97">
        <request index="0" response="000000" foes="001000" cont="0"/>
        <request index="1" response="000000" foes="111000" cont="0"/>
        <request index="2" response="000000" foes="100000" cont="0"/>
        <request index="3" response="000011" foes="100011" cont="0"/>
        <request index="4" response="000010" foes="000010" cont="0"/>
        <request index="5" response="001110" foes="001110" cont="0"/>
    </junction>
    <junction id="36" type="priority" x="-264.79" y="-273.50" incLanes="107843_0 107845_0 107737_0" intLanes=":36_0_0 :36_1_0 :36_2_0 :36_3_0 :36_4_0 :36_5_0" shape="-249.58,-261.18 -245.24,-266.67 -251.32,-271.30 -255.98,-274.78 -259.63,-277.89 -262.68,-281.46 -265.57,-286.27 -268.71,-293.14 -275.17,-290.45 -273.41,-285.46 -272.50,-280.93 -272.43,-276.85 -273.20,-273.24 -274.81,-270.09 -277.27,-267.39 -272.71,-262.08 -269.14,-264.57 -265.46,-266.00 -261.66,-266.37 -257.75,-265.70 -253.72,-263.96">
        <request index="0" response="000000" foes="001000" cont="0"/>
        <request index="1" response="000000" foes="111000" cont="0"/>
        <request index="2" response="000000" foes="100000" cont="0"/>
        <request index="3" response="000011" foes="100011" cont="0"/>
        <request index="4" response="000010" foes="000010" cont="0"/>
        <request index="5" response="001110" foes="001110" cont="0"/>
    </junction>
    <junction id="9" type="dead_end" x="-326.99" y="-217.85" incLanes="107738_0" intLanes="" shape="-325.85,-216.52 -328.13,-219.17" rightOfWay="edgePriority"/>

    <connection from="107102" to="107845" fromLane="0" toLane="0" contPos="-4.00" shape="-279.48,-324.22 -278.32,-318.10 -276.59,-310.99 -274.54,-303.97 -272.56,-298.03" via=":35_2_0" dir="s" state="M"/>
    <connection from="107102" to="108754" fromLane="0" toLane="0" contPos="-4.00" shape="-279.48,-324.22 -279.35,-322.90 -279.39,-321.51 -279.61,-320.13 -280.02,-318.80 -280.59,-317.54 -281.30,-316.39 -282.11,-315.33 -282.99,-314.37 -283.95,-313.48 -285.93,-311.98 -288.05,-310.68 -291.30,-309.08 -294.64,-307.74 -299.17,-306.27" via=":35_3_0" dir="l" state="m"/>
    <connection from="107189" to="107549" fromLane="0" toLane="0" contPos="-4.00" via=":29_0_0" dir="s" state="M"/>
    <connection from="107190" to="107547" fromLane="0" toLane="0" contPos="-4.00" shape="-204.86,-246.72 -208.09,-246.84 -210.24,-246.72 -212.36,-246.40 -214.45,-245.87 -216.46,-245.10 -218.35,-244.07 -220.08,-242.80 -221.63,-241.31 -222.98,-239.64 -224.12,-237.81 -225.08,-235.89 -226.20,-232.89" via=":34_0_0" dir="r" state="M"/>
    <connection from="107190" to="107843" fromLane="0" toLane="0" contPos="-4.00" shape="-204.86,-246.72 -210.23,-247.32 -215.55,-248.21 -220.82,-249.39 -226.00,-250.89 -231.08,-252.72 -236.03,-254.87 -239.90,-256.84" via=":34_1_0" dir="s" state="M"/>
    <connection from="107546" to="107843" fromLane="0" toLane="0" contPos="-4.00" shape="-229.54,-233.93 -229.00,-235.96 -228.63,-238.06 -228.48,-240.18 -228.57,-242.31 -228.94,-244.41 -229.59,-246.44 -230.51,-248.36 -231.68,-250.14 -233.06,-251.77 -234.60,-253.24 -236.27,-254.57 -238.95,-256.31 -239.90,-256.84" via=":34_4_0" dir="r" state="m"/>
    <connection from="107546" to="107189" fromLane="0" toLane="0" contPos="-4.00" shape="-229.54,-233.93 -228.26,-237.36 -227.14,-239.61 -225.80,-241.75 -224.21,-243.74 -222.37,-245.52 -220.29,-247.05 -218.04,-248.27 -215.66,-249.20 -213.21,-249.83 -210.73,-250.20 -208.24,-250.34 -204.58,-250.21" via=":34_5_0" dir="l" state="m"/>
    <connection from="107550" to="110884" fromLane="0" toLane="0" contPos="-4.00" via=":27_0_0" dir="s" state="M"/>