<routes>
	<vehicle depart="0.1" departLane="0" departPos="12.512341924474418" departSpeed="2.4826668" id="38" type="bicycle">
		<route edges="107102 107845"/>
	</vehicle>
	<vehicle depart="0.1" departLane="0" departPos="69.99153486794535" departSpeed="0.0" id="31" type="passenger">
		<route edges="108753 110350"/>
	</vehicle>
	<vehicle depart="0.1" departLane="0" departPos="68.46156866367964" departSpeed="0.06283939" id="314" type="passenger">
		<route edges="107737 107842"/>
	</vehicle>
	<vehicle depart="0.1" departLane="0" departPos="62.49043669403235" departSpeed="0.0" id="315" type="passenger">
		<route edges="108753 110350"/>
	</vehicle>
	<vehicle depart="0.1" departLane="0" departPos="13.69967973582207" departSpeed="5.1816397" id="334" type="passenger">
		<route edges="107102 107845"/>
	</vehicle>
	<vehicle depart="0.1" departLane="0" departPos="40.847722354604706" departSpeed="1.6807489" id="341" type="passenger">
		<route edges="107926 107102 108754"/>
	</vehicle>
	<vehicle depart="0.1" departLane="0" departPos="32.410732686189405" departSpeed="0.80661507" id="343" type="passenger">
		<route edges="107926 107102"/>
	</vehicle>
	<vehicle depart="0.1" departLane="0" departPos="23.373498593563202" departSpeed="0.89850244" id="344" type="passenger">
		<route edges="107926 107102"/>
	</vehicle>
	<vehicle depart="0.1" departLane="0" departPos="22.847629924839445" departSpeed="4.928677" id="329" type="motorcycle">
		<route edges=":35_2 107845 107738"/>
	</vehicle>
</routes>
