<routes>
	<vehicle depart="0.1" departLane="0" departPos="6.46042750988311" departSpeed="6.2087262" id="310" type="bicycle">
		<route edges="47673"/>
	</vehicle>
	<vehicle depart="0.1" departLane="0" departPos="51.392608431370164" departSpeed="0.415212" id="32" type="passenger">
		<route edges="47674 47731"/>
	</vehicle>
	<vehicle depart="0.1" departLane="0" departPos="43.7400302348882" departSpeed="0.084758414" id="35" type="passenger">
		<route edges="47674 47731"/>
	</vehicle>
	<vehicle depart="0.1" departLane="0" departPos="2.5" departSpeed="3.3934926" id="311" type="passenger">
		<route edges="47732 47677"/>
	</vehicle>
	<vehicle depart="0.1" departLane="0" departPos="34.38492345721812" departSpeed="0.33130087" id="313" type="passenger">
		<route edges="47674 47731"/>
	</vehicle>
	<vehicle depart="0.1" departLane="0" departPos="59.36614965415942" departSpeed="0.26572987" id="323" type="passenger">
		<route edges="47674 47731"/>
	</vehicle>
	<vehicle depart="0.1" departLane="0" departPos="23.752599763164223" departSpeed="1.019523" id="326" type="passenger">
		<route edges="47674 47731"/>
	</vehicle>
	<vehicle depart="0.1" departLane="0" departPos="14.49328493704469" departSpeed="10.965756" id="329" type="passenger">
		<route edges=":35_2 47731 47728"/>
	</vehicle>
	<vehicle depart="0.1" departLane="0" departPos="12.1251019175253" departSpeed="9.0263668" id="342" type="passenger">
		<route edges="47676 47731"/>
	</vehicle>
	<vehicle depart="0.1" departLane="0" departPos="68.34434620593848" departSpeed="2.0090038" id="30" type="truck">
		<route edges="47674 47677 47804"/>
	</vehicle>
</routes>
