<routes>
	<vehicle depart="0.1" departLane="0" departPos="30.986453647029837" departSpeed="2.2870863" id="34" type="passenger">
		<route edges=":187_1 8333"/>
	</vehicle>
	<vehicle depart="0.1" departLane="0" departPos="16.294555125765854" departSpeed="0.69143726" id="316" type="passenger">
		<route edges=":187_2 8329"/>
	</vehicle>
	<vehicle depart="0.1" departLane="0" departPos="9.178683457128521" departSpeed="0.50077927" id="335" type="passenger">
		<route edges="8256 8117"/>
	</vehicle>
	<vehicle depart="0.1" departLane="0" departPos="7.198368557032983" departSpeed="1.3825857" id="337" type="passenger">
		<route edges=":187_1 8333"/>
	</vehicle>
	<vehicle depart="0.1" departLane="0" departPos="10.674803138657893" departSpeed="1.0856097" id="358" type="passenger">
		<route edges=":175_2 8259 8175"/>
	</vehicle>
	<vehicle depart="0.1" departLane="0" departPos="2.5" departSpeed="3.5851371" id="364" type="passenger">
		<route edges=":177_1 8148 8207"/>
	</vehicle>
	<vehicle depart="0.1" departLane="0" departPos="21.810834385923282" departSpeed="5.5593374" id="368" type="passenger">
		<route edges=":186_3 8147 8330"/>
	</vehicle>
	<vehicle depart="0.1" departLane="0" departPos="12.172826349248883" departSpeed="3.143109" id="370" type="passenger">
		<route edges=":186_2 8151 8079"/>
	</vehicle>
	<vehicle depart="0.1" departLane="0" departPos="36.807379446120144" departSpeed="0.0" id="372" type="passenger">
		<route edges=":187_2 8329"/>
	</vehicle>
	<vehicle depart="0.1" departLane="0" departPos="16.04670508517345" departSpeed="0.0048211003" id="338" type="truck">
		<route edges=":177_5 8256 8117"/>
	</vehicle>
</routes>
