<routes>
	<vehicle depart="0.1" departLane="0" departPos="54.97529296224909" departSpeed="8.6177602" id="349" type="bus">
		<route edges="276 220"/>
	</vehicle>
	<vehicle depart="0.1" departLane="0" departPos="29.229319770758984" departSpeed="5.7526" id="352" type="bus">
		<route edges="276 273 270"/>
	</vehicle>
	<vehicle depart="0.1" departLane="0" departPos="57.031555187469905" departSpeed="1.779849" id="32" type="passenger">
		<route edges="216 274"/>
	</vehicle>
	<vehicle depart="0.1" departLane="0" departPos="49.38487651947004" departSpeed="0.82684598" id="36" type="passenger">
		<route edges="216 274"/>
	</vehicle>
	<vehicle depart="0.1" departLane="0" departPos="15.148497715980026" departSpeed="9.1325253" id="39" type="passenger">
		<route edges="273 270 267"/>
	</vehicle>
	<vehicle depart="0.1" departLane="0" departPos="5.332449142712106" departSpeed="4.2789496" id="310" type="passenger">
		<route edges=":30_5 274 277"/>
	</vehicle>
	<vehicle depart="0.1" departLane="0" departPos="41.979554789971786" departSpeed="0.27695051" id="317" type="passenger">
		<route edges="216 274"/>
	</vehicle>
	<vehicle depart="0.1" departLane="0" departPos="66.93502255255652" departSpeed="6.9826869" id="321" type="passenger">
		<route edges="219 273 270 267"/>
	</vehicle>
	<vehicle depart="0.1" departLane="0" departPos="34.93143809421822" departSpeed="0.067395983" id="322" type="passenger">
		<route edges="216 274"/>
	</vehicle>
	<vehicle depart="0.1" departLane="0" departPos="54.59605473334158" departSpeed="4.8879242" id="324" type="passenger">
		<route edges="219 273 270"/>
	</vehicle>
	<vehicle depart="0.1" departLane="0" departPos="44.197015907668096" departSpeed="3.786187" id="326" type="passenger">
		<route edges="219 277"/>
	</vehicle>
	<vehicle depart="0.1" departLane="0" departPos="57.84963976309506" departSpeed="28.053291" id="333" type="passenger">
		<route edges="270 267"/>
	</vehicle>
	<vehicle depart="0.1" departLane="0" departPos="29.038225422357172" departSpeed="1.53794" id="334" type="passenger">
		<route edges="219 277"/>
	</vehicle>
	<vehicle depart="0.1" departLane="0" departPos="18.841922266690663" departSpeed="0.0055701679" id="336" type="passenger">
		<route edges="216 274"/>
	</vehicle>
	<vehicle depart="0.1" departLane="0" departPos="92.69114736030745" departSpeed="10.182396" id="338" type="passenger">
		<route edges="273 270 267"/>
	</vehicle>
	<vehicle depart="0.1" departLane="0" departPos="21.202113821792928" departSpeed="0.87134952" id="340" type="passenger">
		<route edges="219 277"/>
	</vehicle>
	<vehicle depart="0.1" departLane="0" departPos="11.811641390886159" departSpeed="0.0095801311" id="342" type="passenger">
		<route edges="216 274"/>
	</vehicle>
	<vehicle depart="0.1" departLane="0" departPos="8.557424616587284" departSpeed="7.1976031" id="345" type="passenger">
		<route edges=":29_0 220"/>
	</vehicle>
	<vehicle depart="0.1" departLane="0" departPos="13.592774880472257" departSpeed="0.47578014" id="346" type="passenger">
		<route edges="219 277"/>
	</vehicle>
	<vehicle depart="0.1" departLane="0" departPos="6.035937088436992" departSpeed="0.25855208" id="351" type="passenger">
		<route edges="219 277"/>
	</vehicle>
	<vehicle depart="0.1" departLane="0" departPos="10.926782086114866" departSpeed="4.4871789" id="353" type="passenger">
		<route edges="276 273 270"/>
	</vehicle>
	<vehicle depart="0.1" departLane="0" departPos="34.91324493293031" departSpeed="2.5756203" id="331" type="motorcycle">
		<route edges="219 277"/>
	</vehicle>
	<vehicle depart="0.1" departLane="0" departPos="10.00936351463984" departSpeed="7.6747688" id="341" type="motorcycle">
		<route edges="220"/>
	</vehicle>
	<vehicle depart="0.1" departLane="0" departPos="28.031168218708867" departSpeed="0.015817557" id="329" type="truck">
		<route edges="216 274"/>
	</vehicle>
</routes>
