<!-- generated on Tue Feb  9 22:04:01 2021 by Eclipse SUMO netconvert Version 1.8.0
<configuration xmlns:xsi="http://www.w3.org/2001/XMLSchema-instance" xsi:noNamespaceSchemaLocation="http://sumo.dlr.de/xsd/netconvertConfiguration.xsd">

    <input>
        <node-files value="./converted_scenarios/scenario-factory/ESP_Inca-3_1_I-1-1/ESP_Inca-3_1_I-1-1.nod.xml"/>
        <edge-files value="./converted_scenarios/scenario-factory/ESP_Inca-3_1_I-1-1/ESP_Inca-3_1_I-1-1.edg.xml"/>
        <connection-files value="./converted_scenarios/scenario-factory/ESP_Inca-3_1_I-1-1/ESP_Inca-3_1_I-1-1.con.xml"/>
        <tllogic-files value="./converted_scenarios/scenario-factory/ESP_Inca-3_1_I-1-1/ESP_Inca-3_1_I-1-1.tll.xml"/>
        <type-files value="/home/zen/commonroad-interactive-benchmarks/install/commonroad-map-tool/crmapconverter/sumo_map/templates/DEU.typ.xml"/>
    </input>

    <output>
        <output-file value="./converted_scenarios/scenario-factory/ESP_Inca-3_1_I-1-1/ESP_Inca-3_1_I-1-1.net.xml"/>
    </output>

    <processing>
        <geometry.remove.keep-edges.explicit value="true"/>
        <geometry.avoid-overlap value="true"/>
        <offset.disable-normalization value="true"/>
    </processing>

    <junctions>
        <no-turnarounds value="true"/>
        <junctions.internal-link-detail value="20"/>
    </junctions>

    <report>
        <aggregate-warnings value="5"/>
    </report>

    <random_number>
        <seed value="1234"/>
    </random_number>

</configuration>
--><net xmlns:xsi="http://www.w3.org/2001/XMLSchema-instance" version="1.6" junctionCornerDetail="5" junctionLinkDetail="20" limitTurnSpeed="5.50" xsi:noNamespaceSchemaLocation="http://sumo.dlr.de/xsd/net_file.xsd">

    <location netOffset="0.00,0.00" convBoundary="774.05,-1050.17,1016.82,-826.38" origBoundary="774.05,-1050.17,1016.82,-826.38" projParameter="!"/>

    <type id="highway.bridleway" priority="1" speed="2.78" allow="pedestrian" oneway="1" width="2.00"/>
    <type id="highway.bus_guideway" priority="1" speed="27.78" allow="bus" oneway="1"/>
    <type id="highway.cycleway" priority="1" speed="8.33" allow="bicycle" oneway="0" width="1.00"/>
    <type id="highway.footway" priority="1" speed="2.78" allow="pedestrian" oneway="1" width="2.00"/>
    <type id="highway.ford" priority="1" speed="2.78" allow="army" oneway="0"/>
    <type id="highway.living_street" priority="2" speed="2.78" disallow="tram rail_urban rail rail_electric rail_fast ship" oneway="0"/>
    <type id="highway.motorway" priority="14" speed="39.44" allow="private emergency authority army vip passenger hov taxi bus coach delivery truck trailer motorcycle evehicle custom1 custom2" oneway="1"/>
    <type id="highway.motorway_link" priority="9" speed="22.22" allow="private emergency authority army vip passenger hov taxi bus coach delivery truck trailer motorcycle evehicle custom1 custom2" oneway="1"/>
    <type id="highway.path" priority="1" speed="2.78" allow="pedestrian bicycle" oneway="0" width="2.00"/>
    <type id="highway.pedestrian" priority="1" speed="2.78" allow="pedestrian" oneway="1" width="2.00"/>
    <type id="highway.primary" priority="12" speed="27.78" disallow="pedestrian tram rail_urban rail rail_electric rail_fast ship" oneway="0"/>
    <type id="highway.primary_link" priority="7" speed="22.22" disallow="pedestrian tram rail_urban rail rail_electric rail_fast ship" oneway="0"/>
    <type id="highway.raceway" priority="15" speed="83.33" allow="vip" oneway="0"/>
    <type id="highway.residential" priority="3" speed="13.89" disallow="pedestrian tram rail_urban rail rail_electric rail_fast ship" oneway="0"/>
    <type id="highway.secondary" priority="11" speed="27.78" disallow="pedestrian tram rail_urban rail rail_electric rail_fast ship" oneway="0"/>
    <type id="highway.secondary_link" priority="6" speed="22.22" disallow="pedestrian tram rail_urban rail rail_electric rail_fast ship" oneway="0"/>
    <type id="highway.service" priority="1" speed="5.56" allow="pedestrian delivery bicycle" oneway="0"/>
    <type id="highway.stairs" priority="1" speed="1.39" allow="pedestrian" oneway="1" width="2.00"/>
    <type id="highway.step" priority="1" speed="1.39" allow="pedestrian" oneway="1" width="2.00"/>
    <type id="highway.steps" priority="1" speed="1.39" allow="pedestrian" oneway="1" width="2.00"/>
    <type id="highway.tertiary" priority="10" speed="22.22" disallow="pedestrian tram rail_urban rail rail_electric rail_fast ship" oneway="0"/>
    <type id="highway.tertiary_link" priority="5" speed="22.22" disallow="pedestrian tram rail_urban rail rail_electric rail_fast ship" oneway="0"/>
    <type id="highway.track" priority="1" speed="5.56" allow="pedestrian motorcycle moped bicycle" oneway="0"/>
    <type id="highway.trunk" priority="13" speed="27.78" disallow="pedestrian bicycle tram rail_urban rail rail_electric rail_fast ship" oneway="0"/>
    <type id="highway.trunk_link" priority="8" speed="22.22" disallow="pedestrian bicycle tram rail_urban rail rail_electric rail_fast ship" oneway="0"/>
    <type id="highway.unclassified" priority="4" speed="13.89" disallow="pedestrian tram rail_urban rail rail_electric rail_fast ship" oneway="0"/>
    <type id="highway.unsurfaced" priority="1" speed="8.33" disallow="tram rail_urban rail rail_electric rail_fast ship" oneway="0"/>
    <type id="railway.highspeed" priority="21" speed="69.44" allow="rail_fast" oneway="1"/>
    <type id="railway.light_rail" priority="19" speed="27.78" allow="rail_urban" oneway="1"/>
    <type id="railway.preserved" priority="16" speed="27.78" allow="rail" oneway="1"/>
    <type id="railway.rail" priority="20" speed="44.44" allow="rail" oneway="1"/>
    <type id="railway.subway" priority="18" speed="27.78" allow="rail_urban" oneway="1"/>
    <type id="railway.tram" priority="17" speed="13.89" allow="tram" oneway="1"/>

    <edge id=":17_0" function="internal">
        <lane id=":17_0_0" index="0" disallow="pedestrian tram rail_urban rail rail_electric rail_fast ship" speed="36.11" length="2.92" width="3.50" shape="834.09,-855.42 836.51,-857.06"/>
    </edge>
    <edge id=":27_0" function="internal">
        <lane id=":27_0_0" index="0" disallow="pedestrian tram rail_urban rail rail_electric rail_fast ship" speed="36.11" length="0.21" width="3.50" shape="799.77,-886.73 799.62,-886.59"/>
    </edge>
    <edge id=":29_0" function="internal">
        <lane id=":29_0_0" index="0" disallow="pedestrian tram rail_urban rail rail_electric rail_fast ship" speed="4.62" length="3.74" width="3.50" shape="909.37,-911.51 909.92,-911.30 912.17,-910.88 913.03,-910.87"/>
    </edge>
    <edge id=":29_1" function="internal">
        <lane id=":29_1_0" index="0" disallow="pedestrian tram rail_urban rail rail_electric rail_fast ship" speed="36.11" length="11.29" width="3.50" shape="906.87,-909.64 910.68,-904.65 913.82,-900.74"/>
    </edge>
    <edge id=":29_2" function="internal">
        <lane id=":29_2_0" index="0" disallow="pedestrian tram rail_urban rail rail_electric rail_fast ship" speed="36.11" length="11.18" width="3.50" shape="905.45,-902.01 910.25,-905.13 914.82,-908.10"/>
    </edge>
    <edge id=":29_3" function="internal">
        <lane id=":29_3_0" index="0" disallow="pedestrian tram rail_urban rail rail_electric rail_fast ship" speed="4.89" length="4.13" width="3.50" shape="907.23,-899.29 907.68,-899.30 909.92,-898.99 911.28,-898.60"/>
    </edge>
    <edge id=":30_0" function="internal">
        <lane id=":30_0_0" index="0" disallow="pedestrian tram rail_urban rail rail_electric rail_fast ship" speed="4.91" length="4.57" width="3.50" shape="886.70,-946.10 886.46,-945.37 886.15,-943.64 886.09,-941.89 886.12,-941.60"/>
    </edge>
    <edge id=":30_1" function="internal">
        <lane id=":30_1_0" index="0" disallow="pedestrian tram rail_urban rail rail_electric rail_fast ship" speed="36.11" length="11.57" width="3.50" shape="884.85,-948.54 878.22,-943.51 875.59,-941.61"/>
    </edge>
    <edge id=":30_2" function="internal">
        <lane id=":30_2_0" index="0" disallow="pedestrian tram rail_urban rail rail_electric rail_fast ship" speed="36.11" length="12.04" width="3.50" shape="876.85,-949.70 880.21,-945.19 884.04,-940.04"/>
    </edge>
    <edge id=":30_3" function="internal">
        <lane id=":30_3_0" index="0" disallow="pedestrian tram rail_urban rail rail_electric rail_fast ship" speed="4.63" length="4.11" width="3.50" shape="874.56,-948.01 874.60,-947.16 874.40,-945.38 874.01,-943.97"/>
    </edge>
    <edge id=":31_0" function="internal">
        <lane id=":31_0_0" index="0" disallow="pedestrian tram rail_urban rail rail_electric rail_fast ship" speed="36.11" length="7.18" width="3.50" shape="944.46,-866.76 939.60,-864.32 938.06,-863.50"/>
    </edge>
    <edge id=":31_1" function="internal">
        <lane id=":31_1_0" index="0" disallow="pedestrian tram rail_urban rail rail_electric rail_fast ship" speed="10.74" length="28.69" width="3.50" shape="930.99,-879.58 932.58,-877.04 933.61,-874.88 934.34,-872.61 934.65,-870.84 934.69,-869.05 934.45,-867.28 933.93,-865.56 933.15,-863.95 931.77,-861.99 930.13,-860.26 927.81,-858.37 924.79,-856.44 924.27,-856.14"/>
    </edge>
    <edge id=":32_0" function="internal">
        <lane id=":32_0_0" index="0" disallow="pedestrian tram rail_urban rail rail_electric rail_fast ship" speed="4.50" length="3.77" width="3.50" shape="841.04,-1003.11 841.52,-1002.95 843.28,-1002.63 844.75,-1002.59"/>
    </edge>
    <edge id=":32_1" function="internal">
        <lane id=":32_1_0" index="0" disallow="pedestrian tram rail_urban rail rail_electric rail_fast ship" speed="36.11" length="11.59" width="3.50" shape="838.58,-1001.27 841.97,-996.70 845.49,-991.97"/>
    </edge>
    <edge id=":32_2" function="internal">
        <lane id=":32_2_0" index="0" disallow="pedestrian tram rail_urban rail rail_electric rail_fast ship" speed="36.11" length="11.60" width="3.50" shape="837.52,-993.00 846.61,-1000.21"/>
    </edge>
    <edge id=":32_3" function="internal">
        <lane id=":32_3_0" index="0" disallow="pedestrian tram rail_urban rail rail_electric rail_fast ship" speed="4.47" length="3.73" width="3.50" shape="839.41,-990.65 839.63,-990.67 841.39,-990.56 843.09,-990.18"/>
    </edge>

    <edge id="17824" from="20" to="32" priority="3" type="highway.residential" spreadType="center" length="81.46">
        <lane id="17824_0" index="0" disallow="pedestrian tram rail_urban rail rail_electric rail_fast ship" speed="36.11" length="81.46" width="3.50" customShape="1" shape="774.05,-941.94 796.07,-959.70 837.46,-993.07"/>
    </edge>
    <edge id="17826" from="32" to="19" priority="3" type="highway.residential" spreadType="center" length="80.96">
        <lane id="17826_0" index="0" disallow="pedestrian tram rail_urban rail rail_electric rail_fast ship" speed="36.11" length="80.96" width="3.50" customShape="1" shape="846.67,-1000.14 910.32,-1050.17"/>
    </edge>
    <edge id="17953" from="17" to="29" priority="3" type="highway.residential" spreadType="center" length="82.30">
        <lane id="17953_0" index="0" disallow="pedestrian tram rail_urban rail rail_electric rail_fast ship" speed="36.11" length="82.30" width="3.50" customShape="1" shape="836.51,-857.06 865.37,-875.89 905.44,-902.03"/>
    </edge>
    <edge id="17955" from="29" to="12" priority="3" type="highway.residential" spreadType="center" length="82.19">
        <lane id="17955_0" index="0" disallow="pedestrian tram rail_urban rail rail_electric rail_fast ship" speed="36.11" length="82.19" width="3.50" customShape="1" shape="914.81,-908.12 966.84,-941.83 983.79,-952.81"/>
    </edge>
    <edge id="18119" from="22" to="32" priority="3" type="highway.residential" spreadType="center" length="54.96">
        <lane id="18119_0" index="0" disallow="pedestrian tram rail_urban rail rail_electric rail_fast ship" speed="36.11" length="54.96" width="3.50" customShape="1" shape="805.74,-1045.34 818.77,-1027.86 838.59,-1001.28"/>
    </edge>
    <edge id="18121" from="32" to="30" priority="3" type="highway.residential" spreadType="center" length="52.62">
        <lane id="18121_0" index="0" disallow="pedestrian tram rail_urban rail rail_electric rail_fast ship" speed="36.11" length="52.62" width="3.50" customShape="1" shape="845.51,-991.98 861.17,-970.84 876.83,-949.69"/>
    </edge>
    <edge id="18123" from="30" to="29" priority="3" type="highway.residential" spreadType="center" length="38.02">
        <lane id="18123_0" index="0" disallow="pedestrian tram rail_urban rail rail_electric rail_fast ship" speed="36.11" length="38.02" width="3.50" customShape="1" shape="884.02,-940.03 894.94,-925.42 906.78,-909.57"/>
    </edge>
    <edge id="18125" from="29" to="31" priority="3" type="highway.residential" spreadType="center" length="41.37">
        <lane id="18125_0" index="0" disallow="pedestrian tram rail_urban rail rail_electric rail_fast ship" speed="36.11" length="41.37" width="3.50" customShape="1" shape="913.70,-900.64 927.24,-884.57 930.69,-880.00 939.10,-868.03"/>
    </edge>
    <edge id="18139" from="9" to="30" priority="3" type="highway.residential" spreadType="center" length="81.53">
        <lane id="18139_0" index="0" disallow="pedestrian tram rail_urban rail rail_electric rail_fast ship" speed="36.11" length="81.53" width="3.50" customShape="1" shape="949.79,-997.83 884.85,-948.54"/>
    </edge>
    <edge id="18141" from="30" to="27" priority="3" type="highway.residential" spreadType="center" length="93.69">
        <lane id="18141_0" index="0" disallow="pedestrian tram rail_urban rail rail_electric rail_fast ship" speed="36.11" length="93.69" width="3.50" customShape="1" shape="875.79,-941.31 852.38,-925.65 833.45,-913.09 823.12,-905.83 814.66,-899.45 807.23,-893.39 800.43,-887.35 799.77,-886.73"/>
    </edge>
    <edge id="18160" from="26" to="31" priority="3" type="highway.residential" spreadType="center" length="80.41">
        <lane id="18160_0" index="0" disallow="pedestrian tram rail_urban rail rail_electric rail_fast ship" speed="36.11" length="80.41" width="3.50" customShape="1" shape="1016.82,-901.81 1000.90,-894.13 944.39,-866.89"/>
    </edge>
    <edge id="18162" from="31" to="23" priority="3" type="highway.residential" spreadType="center" length="82.75">
        <lane id="18162_0" index="0" disallow="pedestrian tram rail_urban rail rail_electric rail_fast ship" speed="36.11" length="82.75" width="3.50" customShape="1" shape="938.03,-863.54 912.27,-849.69 900.53,-843.83 871.78,-830.22 864.11,-826.38"/>
    </edge>
    <edge id="20861" from="24" to="17" priority="3" type="highway.residential" spreadType="center" length="27.06">
        <lane id="20861_0" index="0" disallow="pedestrian tram rail_urban rail rail_electric rail_fast ship" speed="36.11" length="27.06" width="3.50" customShape="1" shape="827.84,-833.53 826.25,-835.37 825.25,-836.89 824.48,-838.53 824.00,-840.29 823.89,-842.11 824.15,-843.91 824.73,-845.63 825.57,-847.24 826.98,-849.22 829.05,-851.44 831.82,-853.81 834.09,-855.42"/>
    </edge>
    <edge id="21101" from="27" to="28" priority="3" type="highway.residential" spreadType="center" length="24.64">
        <lane id="21101_0" index="0" disallow="pedestrian tram rail_urban rail rail_electric rail_fast ship" speed="36.11" length="24.64" width="3.50" customShape="1" shape="799.62,-886.59 797.27,-884.20 795.46,-881.96 793.91,-879.54 792.95,-877.45 792.32,-875.23 792.12,-873.52 792.19,-871.79 792.52,-870.10 793.10,-868.47 794.19,-866.45 795.19,-865.04"/>
    </edge>

    <junction id="12" type="dead_end" x="983.79" y="-952.81" incLanes="17955_0" intLanes="" shape="982.84,-954.28 984.74,-951.35" rightOfWay="edgePriority"/>
    <junction id="17" type="priority" x="835.28" y="-856.26" incLanes="20861_0" intLanes=":17_0_0" shape="837.46,-855.60 835.55,-858.53 833.08,-856.84 835.10,-853.99" rightOfWay="edgePriority">
        <request index="0" response="0" foes="0" cont="0"/>
    </junction>
    <junction id="19" type="dead_end" x="910.32" y="-1050.17" incLanes="17826_0" intLanes="" shape="909.24,-1051.55 911.41,-1048.80" rightOfWay="edgePriority"/>
    <junction id="20" type="dead_end" x="774.05" y="-941.94" incLanes="" intLanes="" shape="775.15,-940.57 772.95,-943.30" rightOfWay="edgePriority"/>
    <junction id="22" type="dead_end" x="805.74" y="-1045.34" incLanes="" intLanes="" shape="804.34,-1044.29 807.14,-1046.38" rightOfWay="edgePriority"/>
    <junction id="23" type="dead_end" x="864.11" y="-826.38" incLanes="18162_0" intLanes="" shape="864.89,-824.81 863.33,-827.94" rightOfWay="edgePriority"/>
    <junction id="24" type="dead_end" x="827.84" y="-833.53" incLanes="" intLanes="" shape="829.16,-834.67 826.52,-832.39" rightOfWay="edgePriority"/>
    <junction id="26" type="dead_end" x="1016.82" y="-901.81" incLanes="" intLanes="" shape="1016.06,-903.38 1017.58,-900.23" rightOfWay="edgePriority"/>
    <junction id="27" type="priority" x="799.69" y="-886.66" incLanes="18141_0" intLanes=":27_0_0" shape="800.96,-885.45 798.57,-888.01 798.37,-887.81 800.87,-885.36">
        <request index="0" response="0" foes="0" cont="0"/>
    </junction>
    <junction id="28" type="dead_end" x="795.19" y="-865.04" incLanes="21101_0" intLanes="" shape="796.61,-866.06 793.77,-864.02"/>
    <junction id="29" type="priority" x="910.42" y="-905.18" incLanes="18123_0 17953_0" intLanes=":29_0_0 :29_1_0 :29_2_0 :29_3_0" shape="912.36,-899.51 915.03,-901.77 914.05,-903.58 914.01,-904.41 914.29,-905.20 914.87,-905.95 915.76,-906.65 913.86,-909.59 911.76,-908.75 910.79,-908.78 909.87,-909.10 909.00,-909.71 908.18,-910.62 905.38,-908.53 906.27,-906.64 906.28,-905.77 905.98,-904.96 905.38,-904.20 904.49,-903.50 906.40,-900.56 908.52,-901.40 909.53,-901.37 910.50,-901.04 911.45,-900.42">
        <request index="0" response="0000" foes="0100" cont="0"/>
        <request index="1" response="0000" foes="1100" cont="0"/>
        <request index="2" response="0011" foes="0011" cont="0"/>
        <request index="3" response="0010" foes="0010" cont="0"/>
    </junction>
    <junction id="30" type="priority" x="880.27" y="-945.27" incLanes="18139_0 18121_0" intLanes=":30_0_0 :30_1_0 :30_2_0 :30_3_0" shape="882.62,-938.98 885.42,-941.07 884.27,-943.37 884.18,-944.41 884.43,-945.39 885.00,-946.31 885.90,-947.15 883.79,-949.94 881.76,-948.95 880.81,-948.93 879.91,-949.22 879.05,-949.82 878.24,-950.73 875.42,-948.65 876.56,-946.37 876.63,-945.35 876.36,-944.40 875.76,-943.55 874.82,-942.77 876.77,-939.86 878.96,-940.79 879.96,-940.80 880.91,-940.50 881.79,-939.89">
        <request index="0" response="0000" foes="0100" cont="0"/>
        <request index="1" response="0000" foes="1100" cont="0"/>
        <request index="2" response="0011" foes="0011" cont="0"/>
        <request index="3" response="0010" foes="0010" cont="0"/>
    </junction>
    <junction id="31" type="priority" x="936.34" y="-869.04" incLanes="18160_0 18125_0" intLanes=":31_0_0 :31_1_0" shape="945.15,-865.31 943.63,-868.47 942.39,-868.09 941.85,-868.12 941.36,-868.28 940.92,-868.59 940.53,-869.03 937.67,-867.02 938.00,-866.26 937.98,-865.92 937.84,-865.62 937.59,-865.34 937.21,-865.08 938.86,-862.00">
        <request index="0" response="00" foes="10" cont="0"/>
        <request index="1" response="01" foes="01" cont="0"/>
    </junction>
    <junction id="32" type="priority" x="841.94" y="-996.55" incLanes="18119_0 17824_0" intLanes=":32_0_0 :32_1_0 :32_2_0 :32_3_0" shape="844.10,-990.93 846.92,-993.02 845.95,-995.08 845.93,-996.06 846.23,-997.00 846.84,-997.90 847.75,-998.76 845.59,-1001.51 843.57,-1000.51 842.62,-1000.48 841.71,-1000.78 840.83,-1001.39 840.00,-1002.33 837.19,-1000.24 838.16,-998.17 838.18,-997.18 837.89,-996.23 837.28,-995.31 836.36,-994.43 838.56,-991.71 840.56,-992.74 841.50,-992.77 842.41,-992.48 843.27,-991.87">
        <request index="0" response="0000" foes="0100" cont="0"/>
        <request index="1" response="0000" foes="1100" cont="0"/>
        <request index="2" response="0011" foes="0011" cont="0"/>
        <request index="3" response="0010" foes="0010" cont="0"/>
    </junction>
    <junction id="9" type="dead_end" x="949.79" y="-997.83" incLanes="" intLanes="" shape="948.73,-999.23 950.85,-996.44" rightOfWay="edgePriority"/>

    <connection from="17824" to="17826" fromLane="0" toLane="0" contPos="-4.00" shape="828.54,-985.88 846.85,-1000.40 855.29,-1006.91" via=":32_2_0" dir="s" state="m"/>
    <connection from="17824" to="18121" fromLane="0" toLane="0" contPos="-4.00" shape="828.54,-985.88 830.90,-987.61 833.44,-989.07 835.61,-989.96 837.88,-990.52 839.63,-990.67 841.39,-990.56 843.10,-990.18 844.74,-989.55 846.78,-988.39 848.62,-986.95 850.67,-984.86 852.14,-983.03" via=":32_3_0" dir="l" state="m"/>
    <connection from="17953" to="17955" fromLane="0" toLane="0" contPos="-4.00" shape="895.46,-895.51 910.25,-905.13 925.05,-914.75" via=":29_2_0" dir="s" state="m"/>
    <connection from="17953" to="18125" fromLane="0" toLane="0" contPos="-4.00" shape="895.46,-895.51 898.40,-897.21 901.01,-898.31 903.18,-898.93 905.42,-899.27 907.68,-899.30 909.92,-898.99 912.09,-898.36 914.16,-897.44 916.57,-895.95 918.77,-894.17 921.16,-891.76 921.54,-891.34" via=":29_3_0" dir="l" state="m"/>
    <connection from="18119" to="17826" fromLane="0" toLane="0" contPos="-4.00" shape="831.81,-1010.38 833.69,-1008.09 835.82,-1006.03 837.74,-1004.62 839.84,-1003.52 841.52,-1002.95 843.28,-1002.63 845.06,-1002.58 846.82,-1002.79 849.11,-1003.41 851.29,-1004.36 853.85,-1005.87 855.29,-1006.91" via=":32_0_0" dir="r" state="M"/>
    <connection from="18119" to="18121" fromLane="0" toLane="0" contPos="-4.00" shape="831.81,-1010.38 841.97,-996.70 852.14,-983.03" via=":32_1_0" dir="s" state="M"/>
    <connection from="18121" to="18123" fromLane="0" toLane="0" contPos="-4.00" shape="870.19,-958.65 880.21,-945.19 890.22,-931.73" via=":30_2_0" dir="s" state="m"/>
    <connection from="18121" to="18141" fromLane="0" toLane="0" contPos="-4.00" shape="870.19,-958.65 871.86,-956.17 873.24,-953.53 874.05,-951.29 874.52,-948.95 874.60,-947.16 874.40,-945.38 873.93,-943.65 873.20,-942.02 871.91,-940.01 870.34,-938.22 868.10,-936.25 866.65,-935.20" via=":30_3_0" dir="l" state="m"/>
    <connection from="18123" to="17955" fromLane="0" toLane="0" contPos="-4.00" shape="899.65,-919.11 901.85,-916.48 903.93,-914.53 905.77,-913.18 907.78,-912.08 909.92,-911.30 912.17,-910.88 914.45,-910.83 916.71,-911.13 918.92,-911.72 921.56,-912.79 924.56,-914.44 925.05,-914.75" via=":29_0_0" dir="r" state="M"/>
    <connection from="18123" to="18125" fromLane="0" toLane="0" contPos="-4.00" shape="899.65,-919.11 910.68,-904.65 918.59,-894.80 921.54,-891.34" via=":29_1_0" dir="s" state="M"/>
    <connection from="18125" to="18162" fromLane="0" toLane="0" contPos="-4.00" shape="930.99,-879.58 932.58,-877.04 933.61,-874.88 934.34,-872.61 934.65,-870.84 934.69,-869.05 934.45,-867.28 933.93,-865.56 933.15,-863.95 931.77,-861.99 930.13,-860.26 927.81,-858.37 924.79,-856.44 924.27,-856.14" via=":31_1_0" dir="l" state="m"/>
    <connection from="18139" to="18123" fromLane="0" toLane="0" contPos="-4.00" shape="894.03,-955.51 891.37,-953.22 889.40,-951.05 888.06,-949.13 887.01,-947.04 886.46,-945.37 886.15,-943.64 886.09,-941.89 886.27,-940.14 886.86,-937.87 887.75,-935.71 889.21,-933.17 890.22,-931.73" via=":30_0_0" dir="r" state="M"/>
    <connection from="18139" to="18141" fromLane="0" toLane="0" contPos="-4.00" shape="894.03,-955.51 878.22,-943.51 867.91,-936.06 866.65,-935.20" via=":30_1_0" dir="s" state="M"/>
    <connection from="18141" to="21101" fromLane="0" toLane="0" contPos="-4.00" via=":27_0_0" dir="s" state="M"/>
    <connection from="18160" to="18162" fromLane="0" toLane="0" contPos="-4.00" shape="953.76,-871.41 939.60,-864.32 926.06,-857.13 924.27,-856.14" via=":31_0_0" dir="s" state="M"/>
    <connection from="20861" to="17953" fromLane="0" toLane="0" contPos="-4.00" via=":17_0_0" dir="s" state="M"/>

    <connection from=":17_0" to="17953" fromLane="0" toLane="0" dir="s" state="M"/>
    <connection from=":27_0" to="21101" fromLane="0" toLane="0" dir="s" state="M"/>
    <connection from=":29_0" to="17955" fromLane="0" toLane="0" dir="r" state="M"/>
    <connection from=":29_1" to="18125" fromLane="0" toLane="0" dir="s" state="M"/>
    <connection from=":29_2" to="17955" fromLane="0" toLane="0" dir="s" state="M"/>
    <connection from=":29_3" to="18125" fromLane="0" toLane="0" dir="l" state="M"/>
    <connection from=":30_0" to="18123" fromLane="0" toLane="0" dir="r" state="M"/>
    <connection from=":30_1" to="18141" fromLane="0" toLane="0" dir="s" state="M"/>
    <connection from=":30_2" to="18123" fromLane="0" toLane="0" dir="s" state="M"/>
    <connection from=":30_3" to="18141" fromLane="0" toLane="0" dir="l" state="M"/>
    <connection from=":31_0" to="18162" fromLane="0" toLane="0" dir="s" state="M"/>
    <connection from=":31_1" to="18162" fromLane="0" toLane="0" dir="l" state="M"/>
    <connection from=":32_0" to="17826" fromLane="0" toLane="0" dir="r" state="M"/>
    <connection from=":32_1" to="18121" fromLane="0" toLane="0" dir="s" state="M"/>
    <connection from=":32_2" to="17826" fromLane="0" toLane="0" dir="s" state="M"/>
    <connection from=":32_3" to="18121" fromLane="0" toLane="0" dir="l" state="M"/>

</net>