<routes>
	<vehicle depart="0.1" departLane="0" departPos="21.721278986806716" departSpeed="4.5436304" id="33" type="passenger">
		<route edges=":29_3 18125 18162"/>
	</vehicle>
	<vehicle depart="0.1" departLane="0" departPos="8.398994276074077" departSpeed="2.3716271" id="35" type="passenger">
		<route edges=":29_2 17955"/>
	</vehicle>
	<vehicle depart="0.1" departLane="0" departPos="18.147442089044112" departSpeed="3.7342682" id="36" type="passenger">
		<route edges=":30_0 18123 18125"/>
	</vehicle>
	<vehicle depart="0.1" departLane="0" departPos="65.75390224878088" departSpeed="2.8479465" id="323" type="passenger">
		<route edges="17953 17955"/>
	</vehicle>
	<vehicle depart="0.1" departLane="0" departPos="52.8405762627587" departSpeed="1.8243796" id="325" type="passenger">
		<route edges="17953 18125"/>
	</vehicle>
	<vehicle depart="0.1" departLane="0" departPos="42.004969929520996" departSpeed="2.5981169" id="334" type="passenger">
		<route edges="17953 18125"/>
	</vehicle>
	<vehicle depart="0.1" departLane="0" departPos="23.593202218273174" departSpeed="3.4171595" id="341" type="passenger">
		<route edges="17953 18125"/>
	</vehicle>
</routes>
