<routes>
	<vehicle depart="0.1" departLane="0" departPos="66.12959360033476" departSpeed="1.784186" id="36" type="bicycle">
		<route edges="74379 74501"/>
	</vehicle>
	<vehicle depart="0.1" departLane="0" departPos="61.28566406506893" departSpeed="4.6329192" id="37" type="passenger">
		<route edges="74379 74501"/>
	</vehicle>
	<vehicle depart="0.1" departLane="0" departPos="23.940588471689107" departSpeed="0.043301207" id="310" type="passenger">
		<route edges="74434 74502"/>
	</vehicle>
	<vehicle depart="0.1" departLane="0" departPos="43.36119733524234" departSpeed="2.8232273" id="314" type="passenger">
		<route edges="74379 74501"/>
	</vehicle>
	<vehicle depart="0.1" departLane="0" departPos="28.8215217966722" departSpeed="1.0473579" id="315" type="passenger">
		<route edges="74434 74502"/>
	</vehicle>
	<vehicle depart="0.1" departLane="0" departPos="22.674785601228365" departSpeed="5.3113262" id="316" type="passenger">
		<route edges="74433 74192"/>
	</vehicle>
	<vehicle depart="0.1" departLane="0" departPos="9.629276085970181" departSpeed="7.912632" id="317" type="passenger">
		<route edges="74502 74380"/>
	</vehicle>
	<vehicle depart="0.1" departLane="0" departPos="28.374957284771263" departSpeed="3.9409606" id="320" type="passenger">
		<route edges=":38_1 74501 74433"/>
	</vehicle>
	<vehicle depart="0.1" departLane="0" departPos="17.402844942104785" departSpeed="0.0034804067" id="330" type="passenger">
		<route edges="74434 74502"/>
	</vehicle>
	<vehicle depart="0.1" departLane="0" departPos="12.909110570366419" departSpeed="1.1027096" id="32" type="motorcycle">
		<route edges=":40_0 74502"/>
	</vehicle>
</routes>
