<routes>
	<vehicle depart="0.1" departLane="0" departPos="2.5" departSpeed="3.6434257" id="33" type="passenger">
		<route edges=":28_1 110110 108713"/>
	</vehicle>
	<vehicle depart="0.1" departLane="0" departPos="10.19313305887961" departSpeed="7.8187256" id="311" type="passenger">
		<route edges="110110 108713"/>
	</vehicle>
	<vehicle depart="0.1" departLane="0" departPos="22.087917609471177" departSpeed="15.931618" id="313" type="passenger">
		<route edges=":27_2 108343"/>
	</vehicle>
	<vehicle depart="0.1" departLane="0" departPos="15.309226060845281" departSpeed="1.8569495" id="317" type="passenger">
		<route edges=":27_4 108347 108353"/>
	</vehicle>
	<vehicle depart="0.1" departLane="0" departPos="62.40000011062921" departSpeed="0.027004539" id="318" type="passenger">
		<route edges="107071 108343"/>
	</vehicle>
	<vehicle depart="0.1" departLane="0" departPos="41.16066743767808" departSpeed="3.8857138" id="320" type="passenger">
		<route edges=":27_1 108347 108353 110246"/>
	</vehicle>
	<vehicle depart="0.1" departLane="0" departPos="69.15609474819975" departSpeed="0.0" id="30" type="truck">
		<route edges="108712 108706"/>
	</vehicle>
</routes>
