<routes>
	<vehicle depart="0.1" departLane="0" departPos="47.93297962246043" departSpeed="4.5079274" id="330" type="bicycle">
		<route edges="43844 43152"/>
	</vehicle>
	<vehicle depart="0.1" departLane="0" departPos="6.991442981145107" departSpeed="9.941113" id="36" type="passenger">
		<route edges="43357 43288"/>
	</vehicle>
	<vehicle depart="0.1" departLane="0" departPos="11.79974446877753" departSpeed="0.0" id="317" type="passenger">
		<route edges=":104_10 43220"/>
	</vehicle>
	<vehicle depart="0.1" departLane="0" departPos="30.05301646188897" departSpeed="1.1269706" id="325" type="passenger">
		<route edges="43356 43152"/>
	</vehicle>
	<vehicle depart="0.1" departLane="0" departPos="44.6330516126936" departSpeed="5.490238" id="331" type="passenger">
		<route edges="43844 43152"/>
	</vehicle>
	<vehicle depart="0.1" departLane="0" departPos="24.68947456245662" departSpeed="0.033205549" id="371" type="passenger">
		<route edges=":104_1 43151"/>
	</vehicle>
	<vehicle depart="0.1" departLane="0" departPos="6.934254197563493" departSpeed="2.6910816" id="322" type="motorcycle">
		<route edges=":103_7 43152"/>
	</vehicle>
	<vehicle depart="0.1" departLane="0" departPos="30.73798030883081" departSpeed="1.6489178" id="351" type="motorcycle">
		<route edges="43844 43152"/>
	</vehicle>
	<vehicle depart="0.1" departLane="0" departPos="27.471964636037335" departSpeed="0.0041371933" id="365" type="truck">
		<route edges=":103_1 43845"/>
	</vehicle>
	<vehicle depart="0.1" departLane="0" departPos="3.75" departSpeed="0.0" id="369" type="truck">
		<route edges=":104_10 43220"/>
	</vehicle>
</routes>
