<routes>
	<vehicle depart="0.1" departLane="0" departPos="25.71553872106381" departSpeed="8.1722576" id="38" type="bicycle">
		<route edges=":37_1 46662"/>
	</vehicle>
	<vehicle depart="0.1" departLane="0" departPos="69.19324074168388" departSpeed="0.23556791" id="31" type="passenger">
		<route edges="46724 46662"/>
	</vehicle>
	<vehicle depart="0.1" departLane="0" departPos="81.93624570263071" departSpeed="0.0" id="310" type="passenger">
		<route edges="46873 46662"/>
	</vehicle>
	<vehicle depart="0.1" departLane="0" departPos="89.35925900267551" departSpeed="0.0" id="323" type="passenger">
		<route edges="46873 46662"/>
	</vehicle>
	<vehicle depart="0.1" departLane="0" departPos="25.654492193737003" departSpeed="12.055087" id="362" type="passenger">
		<route edges="46852 46849"/>
	</vehicle>
	<vehicle depart="0.1" departLane="0" departPos="33.79033523160817" departSpeed="12.050354" id="366" type="passenger">
		<route edges=":37_11 46852 46813"/>
	</vehicle>
	<vehicle depart="0.1" departLane="0" departPos="24.39367361000338" departSpeed="11.841358" id="370" type="passenger">
		<route edges=":37_7 46852 46813"/>
	</vehicle>
	<vehicle depart="0.1" departLane="0" departPos="18.435476092162723" departSpeed="10.284182" id="372" type="passenger">
		<route edges=":37_7 46852 46813"/>
	</vehicle>
	<vehicle depart="0.1" departLane="0" departPos="58.54077360324732" departSpeed="10.64629" id="378" type="passenger">
		<route edges="46661 46852"/>
	</vehicle>
	<vehicle depart="0.1" departLane="0" departPos="3.6981299632720366" departSpeed="5.0713425" id="340" type="motorcycle">
		<route edges=":37_2 46725"/>
	</vehicle>
</routes>
