<routes>
	<vehicle depart="0.1" departLane="0" departPos="38.74651304836121" departSpeed="14.9669" id="381" type="passenger">
		<route edges="12 16"/>
	</vehicle>
	<vehicle depart="0.1" departLane="1" departPos="46.18668752805953" departSpeed="11.5111" id="387" type="passenger">
		<route edges="12 16"/>
	</vehicle>
	<vehicle depart="0.1" departLane="2" departPos="54.75349130527486" departSpeed="10.9432" id="388" type="passenger">
		<route edges="12 16"/>
	</vehicle>
	<vehicle depart="0.1" departLane="0" departPos="29.580829892168374" departSpeed="16.2455" id="389" type="passenger">
		<route edges="12 16"/>
	</vehicle>
	<vehicle depart="0.1" departLane="2" departPos="38.07739741271362" departSpeed="11.5521" id="394" type="passenger">
		<route edges="12 16"/>
	</vehicle>
	<vehicle depart="0.1" departLane="3" departPos="46.19554469189499" departSpeed="11.9263" id="395" type="passenger">
		<route edges="12 16"/>
	</vehicle>
	<vehicle depart="0.1" departLane="3" departPos="34.63294384687303" departSpeed="11.0083" id="399" type="passenger">
		<route edges="12 16"/>
	</vehicle>
	<vehicle depart="0.1" departLane="4" departPos="74.42557255850858" departSpeed="2.6853" id="442" type="passenger">
		<route edges="12 16"/>
	</vehicle>
	<vehicle depart="0.1" departLane="4" departPos="60.05740443998287" departSpeed="2.7284" id="451" type="passenger">
		<route edges="12 16"/>
	</vehicle>
	<vehicle depart="0.1" departLane="4" departPos="33.87933286868431" departSpeed="6.3021" id="468" type="passenger">
		<route edges="12 16"/>
	</vehicle>
</routes>
