<!-- generated on 2020-12-18 15:55:21.544995 by ipykernel_launcher.py v1_2_0+5214-53edc58fcd
-->
<connections>
	<connection contPos="-4.0" from="8" fromLane="4" keepClear="true" to="4" toLane="5"/>
	<connection contPos="-4.0" from="8" fromLane="3" keepClear="true" to="4" toLane="4"/>
	<connection contPos="-4.0" from="8" fromLane="2" keepClear="true" to="4" toLane="3"/>
	<connection contPos="-4.0" from="8" fromLane="1" keepClear="true" to="4" toLane="2"/>
	<connection contPos="-4.0" from="8" fromLane="0" keepClear="true" to="4" toLane="1"/>
	<connection contPos="-4.0" from="5" fromLane="0" keepClear="true" to="4" toLane="0"/>
</connections>
