<!-- generated on 2020-12-18 15:55:21.397050 by ipykernel_launcher.py v1_2_0+5214-53edc58fcd
-->
<edges>
	<edge from="1" function="normal" id="8" length="62.61478883700288" numLanes="5" priority="1" speed="36.11111111111111" spreadType="center" to="2">
		<lane allow="moped bicycle pedestrian custom1 trailer evehicle rail_urban ship private vip custom2 authority delivery rail_electric taxi tram army hov coach motorcycle passenger rail emergency" index="0" length="62.61478883700288" shape="-36.41215,39.419349999999994 -36.182249999999996,39.20465 -32.6641,35.960300000000004 -29.7586,33.2662 -21.9466,26.14945 -21.36635,25.6118 -19.0046,23.44015 -11.697700000000001,16.8249 -10.8983,16.0925 -7.979099999999999,13.376249999999999 -4.91685,10.626999999999999 -0.10345000000000004,6.4578 2.8440499999999997,3.8129 4.39245,2.4734499999999997 10.3306,-2.69055 10.34005,-2.6988" speed="36.11111111111111" width="3.5709983926067506"/>
		<lane allow="moped bicycle pedestrian custom1 trailer evehicle rail_urban ship private truck vip custom2 authority delivery rail_electric taxi tram army hov coach motorcycle passenger rail emergency" index="1" length="62.61478883700288" shape="-34.043800000000005,42.00815 -32.42615,40.52465 -30.2786,38.53335 -29.52185,37.8277 -27.3958,35.864549999999994 -21.7429,30.7362 -19.53775,28.7155 -18.84905,28.073349999999998 -16.670949999999998,26.08465 -10.537199999999999,20.570349999999998 -8.4664,18.66905 -7.6441,17.90225 -5.60565,16.0452 0.21829999999999994,10.9261 2.25445,9.09295 3.1048,8.299999999999999 5.10425,6.49315 11.2172,1.1654 12.615400000000001,-0.09179999999999999" speed="36.11111111111111" width="3.2505506856531254"/>
		<lane allow="moped bicycle pedestrian custom1 trailer evehicle rail_urban ship private truck vip custom2 authority delivery rail_electric taxi tram army hov coach motorcycle passenger bus rail emergency" index="2" length="62.61478883700288" shape="-31.80725,44.45275 -30.1837,42.98275 -27.2768,40.31965 -24.6662,37.950599999999994 -21.7551,35.26265 -19.509099999999997,33.216499999999996 -16.60535,30.54515 -13.87795,28.0878 -10.95225,25.41645 -8.30665,23.04735 -5.4064499999999995,20.39525 -2.8426,18.1037 0.08595000000000003,15.4358 2.34945,13.46925 5.27725,10.867550000000001 8.040099999999999,8.48255 10.9788,5.8268 13.4183,3.6839500000000003 14.8098,2.42245" speed="36.11111111111111" width="3.1897109727998854"/>
		<lane allow="moped bicycle pedestrian custom1 trailer evehicle rail_urban ship private truck vip custom2 authority delivery rail_electric taxi tram army hov coach motorcycle passenger rail emergency" index="3" length="62.61478883700288" shape="-29.5564,46.91305 -22.65725,40.6519 -22.394399999999997,40.41065 -19.77915,37.9719 -19.51585,37.7284 -11.80905,30.69595 -11.63925,30.5395 -8.92655,28.009900000000002 -8.793299999999999,27.88835 -0.78315,20.7205 -0.60605,20.558149999999998 2.09235,18.04185 2.21395,17.932000000000002 10.251149999999999,11.01025 10.33545,10.9341 13.18945,8.27495 13.307649999999999,8.168700000000001 17.0269,4.9627" speed="36.11111111111111" width="3.211875866218992"/>
		<lane allow="moped bicycle pedestrian custom1 trailer evehicle rail_urban ship private truck vip custom2 authority delivery rail_electric taxi tram army hov coach motorcycle passenger bus rail emergency" index="4" length="62.61478883700288" shape="-27.20495,49.4833 -20.341050000000003,43.2037 -20.0503,42.9352 -17.4296,40.49145 -17.1284,40.212999999999994 -9.5051,33.2205 -9.2146,32.9518 -6.5954999999999995,30.50965 -6.27455,30.21745 1.5033,23.27615 1.7956500000000002,23.00945 4.4327,20.55155 4.76905,20.24915 12.6195,13.389949999999999 12.9132,13.12485 15.5643,10.65505 15.927050000000001,10.3363 19.2624,7.524049999999999" speed="36.11111111111111" width="3.47939655831295"/>
	</edge>
	<edge from="2" function="normal" id="4" length="79.00779754953227" numLanes="6" priority="1" speed="36.11111111111111" spreadType="center" to="3">
		<lane allow="moped bicycle pedestrian custom1 trailer evehicle rail_urban ship private truck vip custom2 authority delivery rail_electric taxi tram army hov coach motorcycle passenger rail emergency" index="0" length="79.00779754953227" shape="7.8738,-5.5245 10.03805,-7.3795 10.76145,-8.02535 13.4313,-10.33935 14.15465,-10.985199999999999 16.85675,-13.3635 17.5801,-14.0094 20.2975,-16.398 21.020850000000003,-17.04385 23.6907,-19.3579 24.414099999999998,-20.00375 25.14105,-20.63495 27.14455,-22.37735 27.867449999999998,-23.0238 30.5509,-25.38455 31.2738,-26.031 34.025949999999995,-28.4294 34.748850000000004,-29.075850000000003 37.32055,-31.3018 38.043400000000005,-31.948249999999998 40.76025,-34.2798 41.48315,-34.9262 44.32705,-37.437200000000004 45.049949999999995,-38.08365 47.709,-40.43665 48.4319,-41.0831 51.24495,-43.5048 51.96785,-44.1512 54.59815,-46.4532 55.321,-47.09965 58.0289,-49.468199999999996 58.67345,-50.0451 58.7553,-50.117450000000005 61.58045,-52.49905 62.304050000000004,-53.1446 64.92484999999999,-55.5014 65.64850000000001,-56.1469 67.32205,-57.59625" speed="36.11111111111111" width="3.73242754785676"/>
		<lane allow="moped bicycle pedestrian custom1 trailer evehicle rail_urban ship private vip custom2 authority delivery rail_electric taxi tram army hov coach motorcycle passenger rail emergency" index="1" length="79.00779754953227" shape="10.34005,-2.6988 10.9459,-3.21565 12.52645,-4.61865 13.23935,-5.276199999999999 13.878499999999999,-5.84665 15.72325,-7.37275 16.377850000000002,-7.9275 16.4908,-8.0186 17.0831,-8.51745 17.26455,-8.6825 19.35785,-10.5762 19.379350000000002,-10.59595 20.07765,-11.2402 20.1706,-11.3238 22.734,-13.57775 23.414900000000003,-14.185649999999999 23.4844,-14.245899999999999 26.14265,-16.5521 26.8078,-17.1461 26.87125,-17.2014 27.34235,-17.611800000000002 29.609650000000002,-19.6476 30.249200000000002,-20.23745 30.27345,-20.25885 36.4084,-25.536900000000003 37.08305,-26.1271 37.181200000000004,-26.210549999999998 38.089200000000005,-26.98355 38.1539,-27.0435 39.822199999999995,-28.533050000000003 40.53505,-29.190649999999998 41.051550000000006,-29.64465 43.2011,-31.4786 43.85615,-32.06085 43.90795,-32.1062 46.74025,-34.59295 47.43065,-35.206199999999995 47.4803,-35.2496 49.092,-36.668000000000006 50.200199999999995,-37.680099999999996 50.91315,-38.3377 52.06655,-39.3592 53.66215,-40.71855 54.306349999999995,-41.28855 54.3759,-41.34875 57.0047,-43.6271 57.6732,-44.21815 57.7446,-44.2799 60.0659,-46.2907 60.08695,-46.3091 60.4781,-46.649699999999996 61.20855,-47.3001 63.1468,-48.930099999999996 64.0389,-49.68485 64.7062,-50.28115 67.3019,-52.6188 67.35159999999999,-52.66275 68.04634999999999,-53.2846 68.11625000000001,-53.3452 69.7698,-54.7805" speed="36.11111111111111" width="3.504353214217996"/>
		<lane allow="moped bicycle pedestrian custom1 trailer evehicle rail_urban ship private vip custom2 authority delivery rail_electric taxi tram army hov coach motorcycle passenger rail emergency" index="2" length="79.00779754953227" shape="12.615400000000001,-0.09179999999999999 13.22135,-0.6379 14.10365,-1.4607 15.979750000000001,-3.12865 16.1426,-3.2616 19.51425,-6.0319 22.0385,-8.27 22.145400000000002,-8.368649999999999 22.5151,-8.7092 22.57145,-8.75895 25.138350000000003,-11.07665 29.59765,-14.9252 32.46735,-17.48245 32.585300000000004,-17.58315 33.2231,-18.127499999999998 33.29945,-18.1979 36.196650000000005,-20.761699999999998 40.381550000000004,-24.316200000000002 43.22635,-26.8601 43.323750000000004,-26.944249999999997 44.3292,-27.8138 47.27955,-30.4651 51.387600000000006,-33.98825 54.24705,-36.5325 54.358999999999995,-36.62835 55.47265,-37.5832 55.53175,-37.6379 58.4294,-40.2284 62.3951,-43.6981 65.36895000000001,-46.3164 66.49195,-47.3083 69.47005,-49.90575 72.04984999999999,-52.15755" speed="36.11111111111111" width="3.216879682238673"/>
		<lane allow="moped bicycle pedestrian custom1 trailer evehicle rail_urban ship private truck vip custom2 authority delivery rail_electric taxi tram army hov coach motorcycle passenger rail emergency" index="3" length="79.00779754953227" shape="14.8098,2.42245 16.2805,1.0894 16.38075,1.00315 19.25705,-1.4815 22.2192,-4.111 24.35455,-5.9155999999999995 27.191200000000002,-8.4348 27.30975,-8.5356 30.32255,-11.097249999999999 33.28045,-13.73395 35.4224,-15.583599999999999 38.2836,-18.1684 38.3744,-18.24705 41.4379,-20.90335 44.390950000000004,-23.544 46.43285,-25.266750000000002 49.29565,-27.78475 49.42775,-27.89565 52.56345,-30.534100000000002 55.52365,-33.16875 57.68825,-35.02915 60.544799999999995,-37.6017 60.6158,-37.664100000000005 63.795649999999995,-40.465999999999994 66.72370000000001,-43.13605 68.60695,-44.7877 68.64394999999999,-44.81975 71.63415,-47.40905 74.22575,-49.65445" speed="36.11111111111111" width="3.1175293182262163"/>
		<lane allow="moped bicycle pedestrian custom1 trailer evehicle rail_urban ship private vip custom2 authority delivery rail_electric taxi tram army hov coach motorcycle passenger rail emergency" index="4" length="79.00779754953227" shape="17.0269,4.9627 21.33565,1.24865 21.52815,1.07325 24.20015,-1.4183999999999999 24.2613,-1.47545 24.387900000000002,-1.58335 32.5281,-8.523 32.697,-8.67585 35.47895,-11.266300000000001 35.64035,-11.41105 43.6494,-18.2881 43.72255,-18.3554 46.506550000000004,-20.9515 54.755849999999995,-28.0001 54.8767,-28.1104 57.690650000000005,-30.7325 57.8206,-30.84825 65.97125,-37.8466 66.08824999999999,-37.95335 68.82714999999999,-40.507400000000004 76.43655000000001,-47.11125" speed="36.11111111111111" width="3.2654832184532836"/>
		<lane allow="moped bicycle pedestrian custom1 trailer evehicle rail_urban ship private vip custom2 authority delivery rail_electric taxi tram army hov coach motorcycle passenger rail emergency" index="5" length="79.00779754953227" shape="19.2624,7.524049999999999 23.59545,3.8705 23.827350000000003,3.6677500000000003 23.952350000000003,3.5515 26.5636,1.1221 26.915999999999997,0.8086500000000001 34.9863,-6.1194500000000005 35.2285,-6.3342 35.3317,-6.4303 37.94205,-8.86065 38.30745,-9.181650000000001 45.94445,-15.615950000000002 46.17595,-15.818200000000001 46.30185,-15.935300000000002 48.91315,-18.364649999999997 49.24885,-18.6674 57.14565,-25.6027 57.400800000000004,-25.832549999999998 57.476150000000004,-25.90275 60.0856,-28.334049999999998 60.4454,-28.651449999999997 68.21245,-35.236000000000004 68.44745,-35.44235 68.56585000000001,-35.5526 71.17689999999999,-37.98225 71.5173,-38.28805 78.6778,-44.53295" speed="36.11111111111111" width="3.4791584298505303"/>
	</edge>
	<edge from="4" function="normal" id="5" length="63.07948607766318" numLanes="1" priority="1" speed="36.11111111111111" spreadType="center" to="2">
		<lane allow="moped bicycle pedestrian custom1 trailer evehicle rail_urban ship private truck vip custom2 authority delivery rail_electric taxi tram army hov coach motorcycle passenger bus rail emergency" index="0" length="63.07948607766318" shape="-40.51885,34.93055 -37.4699,32.44915 -29.7483,26.163400000000003 -28.09415,24.79675 -19.54255,17.69345 -7.6975,7.908049999999999 -7.3763,7.6426 -1.51945,2.6608500000000004 1.9405000000000001,-0.34404999999999997 7.8738,-5.5245" speed="36.11111111111111" width="3.6400067087850245"/>
	</edge>
</edges>
