<!-- generated on 2020-12-18 15:55:21.472230 by ipykernel_launcher.py v1_2_0+5214-53edc58fcd
-->
<nodes>
	<node id="1" type="from" x="-31.80491" y="44.45531999999999"/>
	<node id="2" type="to" x="14.810909999999998" y="2.42372"/>
	<node id="3" type="to" x="73.08030000000001" y="-50.97215833333333"/>
	<node id="4" type="from" x="-40.51885" y="34.93055"/>
</nodes>
