<routes>
	<vehicle depart="0.1" departLane="0" departPos="68.7271632979947" departSpeed="1.8216652" id="367" type="bus">
		<route edges="21281 21299"/>
	</vehicle>
	<vehicle depart="0.1" departLane="0" departPos="35.96521380045527" departSpeed="9.2859996" id="31" type="passenger">
		<route edges="21300 21333"/>
	</vehicle>
	<vehicle depart="0.1" departLane="0" departPos="21.703778826402008" departSpeed="3.2193336" id="316" type="passenger">
		<route edges=":84_8 21299"/>
	</vehicle>
	<vehicle depart="0.1" departLane="0" departPos="64.0465559517495" departSpeed="1.6209281" id="335" type="passenger">
		<route edges="21332 21299 21296"/>
	</vehicle>
	<vehicle depart="0.1" departLane="0" departPos="22.40849856857637" departSpeed="1.0823863" id="336" type="passenger">
		<route edges="21332 21299"/>
	</vehicle>
	<vehicle depart="0.1" departLane="0" departPos="35.040311601809506" departSpeed="2.3838929" id="344" type="passenger">
		<route edges="21332 21299"/>
	</vehicle>
	<vehicle depart="0.1" departLane="0" departPos="49.79236857890798" departSpeed="3.6400905" id="358" type="passenger">
		<route edges=":84_0 21299 21296"/>
	</vehicle>
</routes>
