<routes>
	<vehicle depart="0.1" departLane="0" departPos="110.53828213783767" departSpeed="6.8744064" id="39" type="bicycle">
		<route edges="339 16"/>
	</vehicle>
	<vehicle depart="0.1" departLane="0" departPos="24.75204593145625" departSpeed="0.058367942" id="360" type="bicycle">
		<route edges="40 29"/>
	</vehicle>
	<vehicle depart="0.1" departLane="0" departPos="67.79487598441378" departSpeed="3.5318629" id="371" type="bicycle">
		<route edges="31 28 25"/>
	</vehicle>
	<vehicle depart="0.1" departLane="0" departPos="37.24430220775053" departSpeed="0.019690383" id="356" type="bus">
		<route edges="40 29"/>
	</vehicle>
	<vehicle depart="0.1" departLane="0" departPos="21.718979947336262" departSpeed="3.7182789e-05" id="366" type="bus">
		<route edges="26 41"/>
	</vehicle>
	<vehicle depart="0.1" departLane="0" departPos="10.005151884830816" departSpeed="7.9579155" id="381" type="bus">
		<route edges=":39_4 340 32"/>
	</vehicle>
	<vehicle depart="0.1" departLane="0" departPos="12.498998630974352" departSpeed="3.5775473" id="389" type="bus">
		<route edges="342 28"/>
	</vehicle>
	<vehicle depart="0.1" departLane="0" departPos="28.204424077294835" departSpeed="0.0" id="34" type="passenger">
		<route edges="29 32"/>
	</vehicle>
	<vehicle depart="0.1" departLane="0" departPos="20.988644545559115" departSpeed="0.0" id="38" type="passenger">
		<route edges="29 32"/>
	</vehicle>
	<vehicle depart="0.1" departLane="0" departPos="65.6021208879803" departSpeed="0.0" id="310" type="passenger">
		<route edges="40 29"/>
	</vehicle>
	<vehicle depart="0.1" departLane="0" departPos="35.93840291405614" departSpeed="0.0" id="313" type="passenger">
		<route edges="19 340"/>
	</vehicle>
	<vehicle depart="0.1" departLane="0" departPos="62.99632085149281" departSpeed="0.0" id="314" type="passenger">
		<route edges="17 340"/>
	</vehicle>
	<vehicle depart="0.1" departLane="0" departPos="16.35220419316821" departSpeed="0.0" id="315" type="passenger">
		<route edges=":38_3 29"/>
	</vehicle>
	<vehicle depart="0.1" departLane="0" departPos="35.341355728645624" departSpeed="0.0" id="316" type="passenger">
		<route edges="29 32"/>
	</vehicle>
	<vehicle depart="0.1" departLane="0" departPos="149.38959738534064" departSpeed="0.0" id="317" type="passenger">
		<route edges="340 343"/>
	</vehicle>
	<vehicle depart="0.1" departLane="0" departPos="70.03365292916799" departSpeed="0.0" id="318" type="passenger">
		<route edges="17 340"/>
	</vehicle>
	<vehicle depart="0.1" departLane="0" departPos="103.934686717633" departSpeed="15.611202" id="319" type="passenger">
		<route edges="340 343"/>
	</vehicle>
	<vehicle depart="0.1" departLane="0" departPos="56.215475319875026" departSpeed="0.0" id="322" type="passenger">
		<route edges="17 340"/>
	</vehicle>
	<vehicle depart="0.1" departLane="0" departPos="13.888107910420764" departSpeed="0.0" id="323" type="passenger">
		<route edges="29 32"/>
	</vehicle>
	<vehicle depart="0.1" departLane="0" departPos="58.75275416360943" departSpeed="7.5817366e-05" id="324" type="passenger">
		<route edges="40 29"/>
	</vehicle>
	<vehicle depart="0.1" departLane="0" departPos="28.53695675391279" departSpeed="0.0" id="325" type="passenger">
		<route edges="19 340"/>
	</vehicle>
	<vehicle depart="0.1" departLane="0" departPos="77.4733481843061" departSpeed="16.795594" id="327" type="passenger">
		<route edges="340 28"/>
	</vehicle>
	<vehicle depart="0.1" departLane="0" departPos="7.1870910164394" departSpeed="0.0" id="328" type="passenger">
		<route edges="29 32"/>
	</vehicle>
	<vehicle depart="0.1" departLane="0" departPos="51.50905211122712" departSpeed="0.0008992113" id="329" type="passenger">
		<route edges="40 29"/>
	</vehicle>
	<vehicle depart="0.1" departLane="0" departPos="60.22499727356655" departSpeed="0.0" id="330" type="passenger">
		<route edges="31 343"/>
	</vehicle>
	<vehicle depart="0.1" departLane="0" departPos="21.27319073143472" departSpeed="0.0" id="332" type="passenger">
		<route edges="19 340"/>
	</vehicle>
	<vehicle depart="0.1" departLane="0" departPos="49.25727037647631" departSpeed="0.0" id="333" type="passenger">
		<route edges="17 340"/>
	</vehicle>
	<vehicle depart="0.1" departLane="0" departPos="44.18433360593256" departSpeed="0.0050705786" id="335" type="passenger">
		<route edges="40 29"/>
	</vehicle>
	<vehicle depart="0.1" departLane="0" departPos="56.3336956046111" departSpeed="16.326071" id="338" type="passenger">
		<route edges="340 32"/>
	</vehicle>
	<vehicle depart="0.1" departLane="0" departPos="53.03460213918002" departSpeed="0.0" id="344" type="passenger">
		<route edges="31 343"/>
	</vehicle>
	<vehicle depart="0.1" departLane="0" departPos="43.57146298639059" departSpeed="0.0" id="347" type="passenger">
		<route edges="26 41"/>
	</vehicle>
	<vehicle depart="0.1" departLane="0" departPos="36.35640604055073" departSpeed="0.0" id="349" type="passenger">
		<route edges="26 41"/>
	</vehicle>
	<vehicle depart="0.1" departLane="0" departPos="14.308137315858232" departSpeed="0.0" id="350" type="passenger">
		<route edges="19 340"/>
	</vehicle>
	<vehicle depart="0.1" departLane="0" departPos="41.318579647151914" departSpeed="2.0560935e-05" id="354" type="passenger">
		<route edges="31 343"/>
	</vehicle>
	<vehicle depart="0.1" departLane="0" departPos="28.87571221751401" departSpeed="0.0" id="355" type="passenger">
		<route edges="26 41"/>
	</vehicle>
	<vehicle depart="0.1" departLane="0" departPos="34.09578205600272" departSpeed="0.00015287555" id="357" type="passenger">
		<route edges="31 343"/>
	</vehicle>
	<vehicle depart="0.1" departLane="0" departPos="124.75583354268512" departSpeed="12.012676" id="358" type="passenger">
		<route edges="339 16"/>
	</vehicle>
	<vehicle depart="0.1" departLane="0" departPos="35.651421835236135" departSpeed="15.778254" id="359" type="passenger">
		<route edges="340 32"/>
	</vehicle>
	<vehicle depart="0.1" departLane="0" departPos="101.3499358749361" departSpeed="13.468043" id="362" type="passenger">
		<route edges="339 16"/>
	</vehicle>
	<vehicle depart="0.1" departLane="0" departPos="27.264820788034044" departSpeed="0.00069755326" id="363" type="passenger">
		<route edges="31 343"/>
	</vehicle>
	<vehicle depart="0.1" departLane="0" departPos="23.13356263640066" departSpeed="0.056925212" id="365" type="passenger">
		<route edges="40 29"/>
	</vehicle>
	<vehicle depart="0.1" departLane="0" departPos="79.68543905580458" departSpeed="13.904481" id="367" type="passenger">
		<route edges="339 16"/>
	</vehicle>
	<vehicle depart="0.1" departLane="0" departPos="58.4750924286618" departSpeed="14.060779" id="370" type="passenger">
		<route edges="339 16"/>
	</vehicle>
	<vehicle depart="0.1" departLane="0" departPos="7.182379142909836" departSpeed="0.00022516458" id="372" type="passenger">
		<route edges="26 41"/>
	</vehicle>
	<vehicle depart="0.1" departLane="0" departPos="16.25982244870033" departSpeed="0.12169989" id="373" type="passenger">
		<route edges="40 29"/>
	</vehicle>
	<vehicle depart="0.1" departLane="0" departPos="17.388819256967892" departSpeed="12.352146" id="374" type="passenger">
		<route edges="28 25"/>
	</vehicle>
	<vehicle depart="0.1" departLane="0" departPos="2.5" departSpeed="13.722368" id="376" type="passenger">
		<route edges="339 16"/>
	</vehicle>
	<vehicle depart="0.1" departLane="0" departPos="2.5" departSpeed="12.383543" id="378" type="passenger">
		<route edges=":37_10 339 16"/>
	</vehicle>
	<vehicle depart="0.1" departLane="0" departPos="55.801335698066026" departSpeed="11.472927" id="379" type="passenger">
		<route edges="342 339 16"/>
	</vehicle>
	<vehicle depart="0.1" departLane="0" departPos="9.193387080883559" departSpeed="0.24824895" id="380" type="passenger">
		<route edges="40 29"/>
	</vehicle>
	<vehicle depart="0.1" departLane="0" departPos="11.593964954354764" departSpeed="4.8304066" id="387" type="passenger">
		<route edges="337 340 32"/>
	</vehicle>
	<vehicle depart="0.1" departLane="0" departPos="48.13087344020065" departSpeed="0.0" id="331" type="motorcycle">
		<route edges="26 41"/>
	</vehicle>
	<vehicle depart="0.1" departLane="0" departPos="45.92221338125598" departSpeed="0.0" id="346" type="motorcycle">
		<route edges="31 343"/>
	</vehicle>
	<vehicle depart="0.1" departLane="0" departPos="17.966504122112568" departSpeed="6.7506774" id="384" type="motorcycle">
		<route edges="342 339 16"/>
	</vehicle>
	<vehicle depart="0.1" departLane="0" departPos="45.54156060067209" departSpeed="0.0" id="320" type="truck">
		<route edges="19 340"/>
	</vehicle>
	<vehicle depart="0.1" departLane="0" departPos="69.91650853523785" departSpeed="0.0" id="326" type="truck">
		<route edges="31 339"/>
	</vehicle>
	<vehicle depart="0.1" departLane="0" departPos="20.15930964655507" departSpeed="0.0026290437" id="369" type="truck">
		<route edges="31 343"/>
	</vehicle>
	<vehicle depart="0.1" departLane="0" departPos="10.146684448046187" departSpeed="0.0087557129" id="377" type="truck">
		<route edges="31 343"/>
	</vehicle>
</routes>
