<routes>
	<vehicle depart="0.1" departLane="0" departPos="8.840620506034593" departSpeed="0.040465241" id="314" type="bicycle">
		<route edges=":13_1 102647"/>
	</vehicle>
	<vehicle depart="0.1" departLane="0" departPos="16.703708477195633" departSpeed="6.2329933" id="316" type="bicycle">
		<route edges=":13_1 102647"/>
	</vehicle>
	<vehicle depart="0.1" departLane="0" departPos="10.978433180968352" departSpeed="0.17069098" id="33" type="passenger">
		<route edges=":13_2 102723"/>
	</vehicle>
	<vehicle depart="0.1" departLane="0" departPos="2.5" departSpeed="0.0097049571" id="34" type="passenger">
		<route edges=":13_2 102723"/>
	</vehicle>
	<vehicle depart="0.1" departLane="0" departPos="64.8425564071405" departSpeed="0.20260369" id="35" type="passenger">
		<route edges="102438 102723"/>
	</vehicle>
	<vehicle depart="0.1" departLane="0" departPos="69.90526118013854" departSpeed="0.077078266" id="311" type="passenger">
		<route edges="102648 102723"/>
	</vehicle>
	<vehicle depart="0.1" departLane="0" departPos="60.39562980381753" departSpeed="0.38150602" id="317" type="passenger">
		<route edges="102648 102723"/>
	</vehicle>
	<vehicle depart="0.1" departLane="0" departPos="11.826425740874958" departSpeed="7.1827695" id="318" type="passenger">
		<route edges=":13_0 102723"/>
	</vehicle>
	<vehicle depart="0.1" departLane="0" departPos="29.216697718378338" departSpeed="6.2316147" id="321" type="passenger">
		<route edges="102775 102647"/>
	</vehicle>
	<vehicle depart="0.1" departLane="0" departPos="6.927337298282421" departSpeed="4.002587" id="329" type="motorcycle">
		<route edges="102775 102647"/>
	</vehicle>
</routes>
