<!-- generated on 2020-12-18 15:54:55.580841 by ipykernel_launcher.py v1_2_0+5214-53edc58fcd
-->
<connections>
	<connection contPos="-4.0" from="6" fromLane="5" keepClear="true" to="124" toLane="5"/>
	<connection contPos="-4.0" from="124" fromLane="5" keepClear="true" to="7" toLane="4"/>
	<connection contPos="-4.0" from="6" fromLane="4" keepClear="true" to="124" toLane="4"/>
	<connection contPos="-4.0" from="124" fromLane="4" keepClear="true" to="7" toLane="3"/>
	<connection contPos="-4.0" from="6" fromLane="3" keepClear="true" to="124" toLane="3"/>
	<connection contPos="-4.0" from="124" fromLane="3" keepClear="true" to="7" toLane="2"/>
	<connection contPos="-4.0" from="6" fromLane="2" keepClear="true" to="124" toLane="2"/>
	<connection contPos="-4.0" from="124" fromLane="2" keepClear="true" to="7" toLane="1"/>
	<connection contPos="-4.0" from="6" fromLane="1" keepClear="true" to="124" toLane="1"/>
	<connection contPos="-4.0" from="124" fromLane="1" keepClear="true" to="7" toLane="0"/>
	<connection contPos="-4.0" from="6" fromLane="0" keepClear="true" to="124" toLane="0"/>
	<connection contPos="-4.0" from="124" fromLane="0" keepClear="true" to="29" toLane="0"/>
</connections>
