<!-- generated on 2020-12-18 15:54:55.489683 by ipykernel_launcher.py v1_2_0+5214-53edc58fcd
-->
<nodes>
	<node id="1" type="from" x="-28.35076666666667" y="36.57031666666666"/>
	<node id="2" type="to" x="-19.323775" y="28.62851666666667"/>
	<node id="3" type="to" x="140.519125" y="-111.29670833333331"/>
	<node id="4" type="to" x="201.07802999999998" y="-161.74771"/>
	<node id="5" type="to" x="191.05355" y="-173.0566"/>
</nodes>
