<routes>
	<vehicle depart="0.1" departLane="0" departPos="33.58704733040465" departSpeed="13.3167" id="14" type="passenger">
		<route edges="7"/>
	</vehicle>
	<vehicle depart="0.1" departLane="4" departPos="74.07198681907934" departSpeed="15.1059" id="23" type="passenger">
		<route edges="7"/>
	</vehicle>
	<vehicle depart="0.1" departLane="1" departPos="47.68828009892293" departSpeed="16.383" id="25" type="passenger">
		<route edges="7"/>
	</vehicle>
	<vehicle depart="0.1" departLane="4" departPos="47.01112171401207" departSpeed="15.8435" id="27" type="passenger">
		<route edges="7"/>
	</vehicle>
	<vehicle depart="0.1" departLane="1" departPos="28.958194676889192" departSpeed="14.7889" id="31" type="passenger">
		<route edges="7"/>
	</vehicle>
	<vehicle depart="0.1" departLane="3" departPos="63.71660265973047" departSpeed="17.2456" id="32" type="passenger">
		<route edges="7"/>
	</vehicle>
	<vehicle depart="0.1" departLane="0" departPos="0" departSpeed="13.2801" id="33" type="passenger">
		<route edges="7"/>
	</vehicle>
	<vehicle depart="0.1" departLane="1" departPos="16.120758184784023" departSpeed="13.716" id="34" type="passenger">
		<route edges="7"/>
	</vehicle>
	<vehicle depart="0.1" departLane="3" departPos="25.355577304515528" departSpeed="15.24" id="37" type="passenger">
		<route edges="7"/>
	</vehicle>
	<vehicle depart="0.1" departLane="4" departPos="16.51915927948577" departSpeed="12.6492" id="39" type="passenger">
		<route edges="7"/>
	</vehicle>
	<vehicle depart="0.1" departLane="2" departPos="69.1171995714559" departSpeed="19.6748" id="40" type="passenger">
		<route edges="7"/>
	</vehicle>
	<vehicle depart="0.1" departLane="1" departPos="192.49354127890206" departSpeed="14.2098" id="42" type="passenger">
		<route edges="124 7"/>
	</vehicle>
	<vehicle depart="0.1" departLane="5" departPos="212.54967198089156" departSpeed="10.6467" id="43" type="passenger">
		<route edges="124 7"/>
	</vehicle>
	<vehicle depart="0.1" departLane="2" departPos="45.350509818075125" departSpeed="18.288" id="44" type="passenger">
		<route edges="7"/>
	</vehicle>
	<vehicle depart="0.1" departLane="2" departPos="6.949334790684669" departSpeed="16.764" id="47" type="passenger">
		<route edges="7"/>
	</vehicle>
	<vehicle depart="0.1" departLane="1" departPos="175.59132744774456" departSpeed="12.2682" id="48" type="passenger">
		<route edges="124 7"/>
	</vehicle>
	<vehicle depart="0.1" departLane="4" departPos="212.50867102479944" departSpeed="15.4351" id="49" type="passenger">
		<route edges="124 7"/>
	</vehicle>
	<vehicle depart="0.1" departLane="3" departPos="198.90424421640563" departSpeed="16.3678" id="51" type="passenger">
		<route edges="124 7"/>
	</vehicle>
	<vehicle depart="0.1" departLane="0" departPos="0" departSpeed="20.894" id="53" type="passenger">
		<route edges="29"/>
	</vehicle>
	<vehicle depart="0.1" departLane="5" departPos="191.04435067533046" departSpeed="12.3139" id="54" type="passenger">
		<route edges="124 7"/>
	</vehicle>
	<vehicle depart="0.1" departLane="2" departPos="189.8687516888381" departSpeed="17.7058" id="55" type="passenger">
		<route edges="124 7"/>
	</vehicle>
	<vehicle depart="0.1" departLane="5" departPos="167.0997632355239" departSpeed="12.3657" id="56" type="passenger">
		<route edges="124 7"/>
	</vehicle>
	<vehicle depart="0.1" departLane="3" departPos="181.40411234125264" departSpeed="16.7488" id="57" type="passenger">
		<route edges="124 7"/>
	</vehicle>
	<vehicle depart="0.1" departLane="5" departPos="152.2612903222622" departSpeed="13.4112" id="59" type="passenger">
		<route edges="124 7"/>
	</vehicle>
	<vehicle depart="0.1" departLane="1" departPos="156.6899371122687" departSpeed="12.0548" id="60" type="passenger">
		<route edges="124 7"/>
	</vehicle>
	<vehicle depart="0.1" departLane="2" departPos="161.4851400910049" departSpeed="15.624" id="62" type="passenger">
		<route edges="124 7"/>
	</vehicle>
	<vehicle depart="0.1" departLane="1" departPos="212.3907004102496" departSpeed="13.8684" id="63" type="passenger">
		<route edges="124 124 7"/>
	</vehicle>
	<vehicle depart="0.1" departLane="4" departPos="157.3614605148946" departSpeed="16.6787" id="64" type="passenger">
		<route edges="124 7"/>
	</vehicle>
	<vehicle depart="0.1" departLane="3" departPos="139.65388501468584" departSpeed="18.4495" id="67" type="passenger">
		<route edges="124 7"/>
	</vehicle>
	<vehicle depart="0.1" departLane="5" departPos="112.5980689618891" departSpeed="14.9901" id="69" type="passenger">
		<route edges="124 7"/>
	</vehicle>
	<vehicle depart="0.1" departLane="4" departPos="127.43642013603785" departSpeed="14.478" id="71" type="passenger">
		<route edges="124 7"/>
	</vehicle>
	<vehicle depart="0.1" departLane="5" departPos="134.7915329854264" departSpeed="15.4107" id="72" type="passenger">
		<route edges="124 7"/>
	</vehicle>
	<vehicle depart="0.1" departLane="2" departPos="114.85608994466763" departSpeed="14.8377" id="73" type="passenger">
		<route edges="124 7"/>
	</vehicle>
	<vehicle depart="0.1" departLane="0" departPos="129.4754023712223" departSpeed="15.365" id="74" type="passenger">
		<route edges="124 29"/>
	</vehicle>
	<vehicle depart="0.1" departLane="1" departPos="104.33411589176208" departSpeed="15.813" id="75" type="passenger">
		<route edges="124 7"/>
	</vehicle>
	<vehicle depart="0.1" departLane="3" departPos="107.62660272495685" departSpeed="17.6845" id="76" type="passenger">
		<route edges="124 7 7"/>
	</vehicle>
	<vehicle depart="0.1" departLane="5" departPos="98.56361631895213" departSpeed="13.9568" id="77" type="passenger">
		<route edges="124 7"/>
	</vehicle>
	<vehicle depart="0.1" departLane="4" departPos="93.49010514927414" departSpeed="15.2248" id="78" type="passenger">
		<route edges="124 7"/>
	</vehicle>
	<vehicle depart="0.1" departLane="2" departPos="84.70610913496272" departSpeed="15.6119" id="79" type="passenger">
		<route edges="124 7 7"/>
	</vehicle>
	<vehicle depart="0.1" departLane="1" departPos="76.08059605397823" departSpeed="15.0724" id="82" type="passenger">
		<route edges="124 7"/>
	</vehicle>
	<vehicle depart="0.1" departLane="3" departPos="73.05228613023972" departSpeed="15.2705" id="83" type="passenger">
		<route edges="124 7"/>
	</vehicle>
	<vehicle depart="0.1" departLane="4" departPos="69.87268096956129" departSpeed="15.4107" id="84" type="passenger">
		<route edges="124 7"/>
	</vehicle>
	<vehicle depart="0.1" departLane="1" departPos="60.72951589772006" departSpeed="14.6883" id="90" type="passenger">
		<route edges="124 124 29"/>
	</vehicle>
	<vehicle depart="0.1" departLane="2" departPos="57.683082350040024" departSpeed="15.5478" id="91" type="passenger">
		<route edges="124 7"/>
	</vehicle>
	<vehicle depart="0.1" departLane="4" departPos="40.97299314039234" departSpeed="15.24" id="94" type="passenger">
		<route edges="124 7"/>
	</vehicle>
	<vehicle depart="0.1" departLane="5" departPos="49.241051236822344" departSpeed="15.9075" id="95" type="passenger">
		<route edges="124 7"/>
	</vehicle>
	<vehicle depart="0.1" departLane="3" departPos="48.28803134720305" departSpeed="15.2491" id="96" type="passenger">
		<route edges="124 7"/>
	</vehicle>
	<vehicle depart="0.1" departLane="2" departPos="29.561897364128477" departSpeed="13.716" id="99" type="passenger">
		<route edges="124 7"/>
	</vehicle>
	<vehicle depart="0.1" departLane="1" departPos="27.590355457418553" departSpeed="13.2161" id="100" type="passenger">
		<route edges="124 7"/>
	</vehicle>
	<vehicle depart="0.1" departLane="5" departPos="18.043928048474292" departSpeed="14.606" id="104" type="passenger">
		<route edges="124 7"/>
	</vehicle>
	<vehicle depart="0.1" departLane="4" departPos="15.165072213725743" departSpeed="14.4506" id="105" type="passenger">
		<route edges="124 7"/>
	</vehicle>
	<vehicle depart="0.1" departLane="1" departPos="2.946662569359819" departSpeed="13.2466" id="109" type="passenger">
		<route edges="124 7"/>
	</vehicle>
	<vehicle depart="0.1" departLane="3" departPos="2.6758194230060033" departSpeed="14.0574" id="114" type="passenger">
		<route edges="124 7"/>
	</vehicle>
	<vehicle depart="0.1" departLane="5" departPos="6.228789877646275" departSpeed="13.7587" id="115" type="passenger">
		<route edges="124 124 7"/>
	</vehicle>
	<vehicle depart="0.1" departLane="4" departPos="12.022659738262963" departSpeed="13.7069" id="116" type="passenger">
		<route edges="6 124 7"/>
	</vehicle>
	<vehicle depart="0.1" departLane="0" departPos="7.474558695103738" departSpeed="11.9421" id="118" type="passenger">
		<route edges="6 124 124 124 7"/>
	</vehicle>
	<vehicle depart="0.1" departLane="2" departPos="0" departSpeed="11.6677" id="119" type="passenger">
		<route edges="6 124 7"/>
	</vehicle>
</routes>
