<routes>
	<vehicle depart="0.1" departLane="0" departPos="78.83458180701697" departSpeed="5.8227777" id="38" type="bicycle">
		<route edges="362 359 1539"/>
	</vehicle>
	<vehicle depart="0.1" departLane="0" departPos="27.704592161425442" departSpeed="0.010488415" id="322" type="bicycle">
		<route edges="360 198"/>
	</vehicle>
	<vehicle depart="0.1" departLane="0" departPos="44.34207924823275" departSpeed="0.0001482011" id="327" type="bus">
		<route edges="330 362"/>
	</vehicle>
	<vehicle depart="0.1" departLane="0" departPos="18.360404238768467" departSpeed="0.021626227" id="346" type="bus">
		<route edges="330 362"/>
	</vehicle>
	<vehicle depart="0.1" departLane="0" departPos="13.669402560348868" departSpeed="3.9121777" id="366" type="bus">
		<route edges="335 362 198"/>
	</vehicle>
	<vehicle depart="0.1" departLane="0" departPos="23.908111515120986" departSpeed="0.044917823" id="31" type="passenger">
		<route edges="360 198"/>
	</vehicle>
	<vehicle depart="0.1" departLane="0" departPos="54.037985507513234" departSpeed="0.0" id="32" type="passenger">
		<route edges="360 198"/>
	</vehicle>
	<vehicle depart="0.1" departLane="0" departPos="12.257167079609808" departSpeed="2.2918389" id="33" type="passenger">
		<route edges=":38_3 360"/>
	</vehicle>
	<vehicle depart="0.1" departLane="0" departPos="47.27209303601014" departSpeed="3.7810696e-05" id="34" type="passenger">
		<route edges="360 198"/>
	</vehicle>
	<vehicle depart="0.1" departLane="0" departPos="55.00177860555044" departSpeed="0.0" id="36" type="passenger">
		<route edges="330 362"/>
	</vehicle>
	<vehicle depart="0.1" departLane="0" departPos="70.03760288272817" departSpeed="0.0" id="39" type="passenger">
		<route edges="204 360"/>
	</vehicle>
	<vehicle depart="0.1" departLane="0" departPos="131.8558654014521" departSpeed="0.0" id="310" type="passenger">
		<route edges="198 118"/>
	</vehicle>
	<vehicle depart="0.1" departLane="0" departPos="61.631050903471014" departSpeed="0.0" id="311" type="passenger">
		<route edges="330 362"/>
	</vehicle>
	<vehicle depart="0.1" departLane="0" departPos="17.328382247503324" departSpeed="9.1018693" id="313" type="passenger">
		<route edges=":35_5 359 1539"/>
	</vehicle>
	<vehicle depart="0.1" departLane="0" departPos="40.16072197138048" departSpeed="0.00037121517" id="315" type="passenger">
		<route edges="360 198"/>
	</vehicle>
	<vehicle depart="0.1" departLane="0" departPos="61.72128832268866" departSpeed="1.0013446" id="317" type="passenger">
		<route edges="204 360"/>
	</vehicle>
	<vehicle depart="0.1" departLane="0" departPos="32.986930555012194" departSpeed="0.0021686558" id="319" type="passenger">
		<route edges="360 198"/>
	</vehicle>
	<vehicle depart="0.1" departLane="0" departPos="52.8382467060473" departSpeed="1.5555289" id="320" type="passenger">
		<route edges="204 360"/>
	</vehicle>
	<vehicle depart="0.1" departLane="0" departPos="2.5" departSpeed="7.9724184" id="321" type="passenger">
		<route edges=":35_4 198 118"/>
	</vehicle>
	<vehicle depart="0.1" departLane="0" departPos="131.90496646035527" departSpeed="1.29434" id="323" type="passenger">
		<route edges="197 363"/>
	</vehicle>
	<vehicle depart="0.1" departLane="0" departPos="44.02295811470051" departSpeed="1.4993072" id="325" type="passenger">
		<route edges="204 360"/>
	</vehicle>
	<vehicle depart="0.1" departLane="0" departPos="31.37109673142225" departSpeed="0.0010808425" id="333" type="passenger">
		<route edges="330 362"/>
	</vehicle>
	<vehicle depart="0.1" departLane="0" departPos="24.86345405958926" departSpeed="0.0057288216" id="338" type="passenger">
		<route edges="330 362"/>
	</vehicle>
	<vehicle depart="0.1" departLane="0" departPos="30.504250127301518" departSpeed="0.85154595" id="341" type="passenger">
		<route edges="204 360"/>
	</vehicle>
	<vehicle depart="0.1" departLane="0" departPos="53.5632534979751" departSpeed="6.4523187" id="343" type="passenger">
		<route edges="362 359 1539"/>
	</vehicle>
	<vehicle depart="0.1" departLane="0" departPos="22.89973211141976" departSpeed="0.7184599" id="344" type="passenger">
		<route edges="204 360"/>
	</vehicle>
	<vehicle depart="0.1" departLane="0" departPos="38.57015541084567" departSpeed="6.8461489" id="345" type="passenger">
		<route edges="362 359 1539"/>
	</vehicle>
	<vehicle depart="0.1" departLane="0" departPos="23.130020073456613" departSpeed="7.1803854" id="348" type="passenger">
		<route edges="362 198"/>
	</vehicle>
	<vehicle depart="0.1" departLane="0" departPos="42.18427955444743" departSpeed="8.496886" id="349" type="passenger">
		<route edges="129 131"/>
	</vehicle>
	<vehicle depart="0.1" departLane="0" departPos="4.937491650278749" departSpeed="1.3492036" id="350" type="passenger">
		<route edges="360 198"/>
	</vehicle>
	<vehicle depart="0.1" departLane="0" departPos="14.849906242922058" departSpeed="0.72080682" id="351" type="passenger">
		<route edges="204 360"/>
	</vehicle>
	<vehicle depart="0.1" departLane="0" departPos="7.244575558020749" departSpeed="7.7607919" id="352" type="passenger">
		<route edges="362 198"/>
	</vehicle>
	<vehicle depart="0.1" departLane="0" departPos="29.70442104074496" departSpeed="7.889536" id="353" type="passenger">
		<route edges="129 131"/>
	</vehicle>
	<vehicle depart="0.1" departLane="0" departPos="4.68035493965705" departSpeed="7.9838926" id="354" type="passenger">
		<route edges=":36_4 362 198"/>
	</vehicle>
	<vehicle depart="0.1" departLane="0" departPos="5.3636310560195195" departSpeed="0.052160101" id="358" type="passenger">
		<route edges="330 362"/>
	</vehicle>
	<vehicle depart="0.1" departLane="0" departPos="22.285960729492647" departSpeed="8.0803861" id="364" type="passenger">
		<route edges="335 329"/>
	</vehicle>
	<vehicle depart="0.1" departLane="0" departPos="8.712754929700269" departSpeed="4.8526764" id="365" type="passenger">
		<route edges="129 131"/>
	</vehicle>
	<vehicle depart="0.1" departLane="0" departPos="48.406737569059906" departSpeed="0.0" id="324" type="motorcycle">
		<route edges="330 362"/>
	</vehicle>
	<vehicle depart="0.1" departLane="0" departPos="35.670400335393566" departSpeed="1.2216562" id="331" type="motorcycle">
		<route edges="204 360"/>
	</vehicle>
	<vehicle depart="0.1" departLane="0" departPos="65.45821583494646" departSpeed="6.5017203" id="340" type="motorcycle">
		<route edges="362 359 1539"/>
	</vehicle>
	<vehicle depart="0.1" departLane="0" departPos="6.721338982153305" departSpeed="0.86237403" id="356" type="motorcycle">
		<route edges="204 360"/>
	</vehicle>
	<vehicle depart="0.1" departLane="0" departPos="19.476558154221536" departSpeed="7.2997345" id="30" type="truck">
		<route edges="198 118"/>
	</vehicle>
	<vehicle depart="0.1" departLane="0" departPos="63.56616030460168" departSpeed="0.0" id="314" type="truck">
		<route edges="360 198"/>
	</vehicle>
	<vehicle depart="0.1" departLane="0" departPos="16.302807378233503" departSpeed="0.46277548" id="342" type="truck">
		<route edges="360 198"/>
	</vehicle>
</routes>
