<routes>
	<vehicle depart="0.1" departLane="0" departPos="31.970622446664585" departSpeed="0.0" id="31" type="passenger">
		<route edges="86858 86811"/>
	</vehicle>
	<vehicle depart="0.1" departLane="0" departPos="5.39323471719264" departSpeed="1.6852507" id="37" type="passenger">
		<route edges=":17_8 86861"/>
	</vehicle>
	<vehicle depart="0.1" departLane="0" departPos="67.89121127431665" departSpeed="0.78272503" id="314" type="passenger">
		<route edges="86814 86811"/>
	</vehicle>
	<vehicle depart="0.1" departLane="0" departPos="58.300761767895544" departSpeed="1.1788072" id="316" type="passenger">
		<route edges="86814 86857"/>
	</vehicle>
	<vehicle depart="0.1" departLane="0" departPos="19.084383869797026" departSpeed="11.223225" id="335" type="passenger">
		<route edges=":17_2 86857"/>
	</vehicle>
	<vehicle depart="0.1" departLane="0" departPos="38.67462429174084" departSpeed="6.3131081" id="339" type="passenger">
		<route edges="86812 86815"/>
	</vehicle>
	<vehicle depart="0.1" departLane="0" departPos="12.787027718744177" departSpeed="7.0881319" id="340" type="passenger">
		<route edges="86812 86815"/>
	</vehicle>
	<vehicle depart="0.1" departLane="0" departPos="46.179353351641666" departSpeed="6.4006963" id="337" type="motorcycle">
		<route edges="86812 86815"/>
	</vehicle>
	<vehicle depart="0.1" departLane="0" departPos="41.97552704893006" departSpeed="0.0" id="30" type="truck">
		<route edges="86858 86811"/>
	</vehicle>
</routes>
