<!-- generated on Tue Feb  9 22:01:51 2021 by Eclipse SUMO netconvert Version 1.8.0
<configuration xmlns:xsi="http://www.w3.org/2001/XMLSchema-instance" xsi:noNamespaceSchemaLocation="http://sumo.dlr.de/xsd/netconvertConfiguration.xsd">

    <input>
        <node-files value="./converted_scenarios/scenario-factory/ESP_Cambre-3_3_I-1-1/ESP_Cambre-3_3_I-1-1.nod.xml"/>
        <edge-files value="./converted_scenarios/scenario-factory/ESP_Cambre-3_3_I-1-1/ESP_Cambre-3_3_I-1-1.edg.xml"/>
        <connection-files value="./converted_scenarios/scenario-factory/ESP_Cambre-3_3_I-1-1/ESP_Cambre-3_3_I-1-1.con.xml"/>
        <tllogic-files value="./converted_scenarios/scenario-factory/ESP_Cambre-3_3_I-1-1/ESP_Cambre-3_3_I-1-1.tll.xml"/>
        <type-files value="/home/zen/commonroad-interactive-benchmarks/install/commonroad-map-tool/crmapconverter/sumo_map/templates/DEU.typ.xml"/>
    </input>

    <output>
        <output-file value="./converted_scenarios/scenario-factory/ESP_Cambre-3_3_I-1-1/ESP_Cambre-3_3_I-1-1.net.xml"/>
    </output>

    <processing>
        <geometry.remove.keep-edges.explicit value="true"/>
        <geometry.avoid-overlap value="true"/>
        <offset.disable-normalization value="true"/>
    </processing>

    <junctions>
        <no-turnarounds value="true"/>
        <junctions.internal-link-detail value="20"/>
    </junctions>

    <report>
        <aggregate-warnings value="5"/>
    </report>

    <random_number>
        <seed value="1234"/>
    </random_number>

</configuration>
--><net xmlns:xsi="http://www.w3.org/2001/XMLSchema-instance" version="1.6" junctionCornerDetail="5" junctionLinkDetail="20" limitTurnSpeed="5.50" xsi:noNamespaceSchemaLocation="http://sumo.dlr.de/xsd/net_file.xsd">

    <location netOffset="0.00,0.00" convBoundary="-359.29,692.35,-203.89,826.64" origBoundary="-359.29,692.35,-203.89,826.64" projParameter="!"/>

    <type id="highway.bridleway" priority="1" speed="2.78" allow="pedestrian" oneway="1" width="2.00"/>
    <type id="highway.bus_guideway" priority="1" speed="27.78" allow="bus" oneway="1"/>
    <type id="highway.cycleway" priority="1" speed="8.33" allow="bicycle" oneway="0" width="1.00"/>
    <type id="highway.footway" priority="1" speed="2.78" allow="pedestrian" oneway="1" width="2.00"/>
    <type id="highway.ford" priority="1" speed="2.78" allow="army" oneway="0"/>
    <type id="highway.living_street" priority="2" speed="2.78" disallow="tram rail_urban rail rail_electric rail_fast ship" oneway="0"/>
    <type id="highway.motorway" priority="14" speed="39.44" allow="private emergency authority army vip passenger hov taxi bus coach delivery truck trailer motorcycle evehicle custom1 custom2" oneway="1"/>
    <type id="highway.motorway_link" priority="9" speed="22.22" allow="private emergency authority army vip passenger hov taxi bus coach delivery truck trailer motorcycle evehicle custom1 custom2" oneway="1"/>
    <type id="highway.path" priority="1" speed="2.78" allow="pedestrian bicycle" oneway="0" width="2.00"/>
    <type id="highway.pedestrian" priority="1" speed="2.78" allow="pedestrian" oneway="1" width="2.00"/>
    <type id="highway.primary" priority="12" speed="27.78" disallow="pedestrian tram rail_urban rail rail_electric rail_fast ship" oneway="0"/>
    <type id="highway.primary_link" priority="7" speed="22.22" disallow="pedestrian tram rail_urban rail rail_electric rail_fast ship" oneway="0"/>
    <type id="highway.raceway" priority="15" speed="83.33" allow="vip" oneway="0"/>
    <type id="highway.residential" priority="3" speed="13.89" disallow="pedestrian tram rail_urban rail rail_electric rail_fast ship" oneway="0"/>
    <type id="highway.secondary" priority="11" speed="27.78" disallow="pedestrian tram rail_urban rail rail_electric rail_fast ship" oneway="0"/>
    <type id="highway.secondary_link" priority="6" speed="22.22" disallow="pedestrian tram rail_urban rail rail_electric rail_fast ship" oneway="0"/>
    <type id="highway.service" priority="1" speed="5.56" allow="pedestrian delivery bicycle" oneway="0"/>
    <type id="highway.stairs" priority="1" speed="1.39" allow="pedestrian" oneway="1" width="2.00"/>
    <type id="highway.step" priority="1" speed="1.39" allow="pedestrian" oneway="1" width="2.00"/>
    <type id="highway.steps" priority="1" speed="1.39" allow="pedestrian" oneway="1" width="2.00"/>
    <type id="highway.tertiary" priority="10" speed="22.22" disallow="pedestrian tram rail_urban rail rail_electric rail_fast ship" oneway="0"/>
    <type id="highway.tertiary_link" priority="5" speed="22.22" disallow="pedestrian tram rail_urban rail rail_electric rail_fast ship" oneway="0"/>
    <type id="highway.track" priority="1" speed="5.56" allow="pedestrian motorcycle moped bicycle" oneway="0"/>
    <type id="highway.trunk" priority="13" speed="27.78" disallow="pedestrian bicycle tram rail_urban rail rail_electric rail_fast ship" oneway="0"/>
    <type id="highway.trunk_link" priority="8" speed="22.22" disallow="pedestrian bicycle tram rail_urban rail rail_electric rail_fast ship" oneway="0"/>
    <type id="highway.unclassified" priority="4" speed="13.89" disallow="pedestrian tram rail_urban rail rail_electric rail_fast ship" oneway="0"/>
    <type id="highway.unsurfaced" priority="1" speed="8.33" disallow="tram rail_urban rail rail_electric rail_fast ship" oneway="0"/>
    <type id="railway.highspeed" priority="21" speed="69.44" allow="rail_fast" oneway="1"/>
    <type id="railway.light_rail" priority="19" speed="27.78" allow="rail_urban" oneway="1"/>
    <type id="railway.preserved" priority="16" speed="27.78" allow="rail" oneway="1"/>
    <type id="railway.rail" priority="20" speed="44.44" allow="rail" oneway="1"/>
    <type id="railway.subway" priority="18" speed="27.78" allow="rail_urban" oneway="1"/>
    <type id="railway.tram" priority="17" speed="13.89" allow="tram" oneway="1"/>

    <edge id=":17_0" function="internal">
        <lane id=":17_0_0" index="0" disallow="pedestrian tram rail_urban rail rail_electric rail_fast ship" speed="10.55" length="35.61" width="3.50" shape="-258.77,755.00 -261.28,752.08 -263.11,750.31 -265.10,748.74 -266.18,748.06 -267.31,747.48 -268.49,747.03 -269.72,746.72 -270.99,746.60 -272.25,746.68 -273.49,746.97 -274.67,747.44 -275.77,748.07 -276.79,748.82 -277.74,749.66 -278.62,750.58 -280.19,752.58 -281.57,754.71 -283.36,758.08 -284.41,760.40"/>
    </edge>
    <edge id=":17_1" function="internal">
        <lane id=":17_1_0" index="0" disallow="pedestrian tram rail_urban rail rail_electric rail_fast ship" speed="30.38" length="42.03" width="3.50" shape="-258.77,755.00 -260.04,753.65 -262.34,751.80 -264.83,750.12 -269.26,747.54 -275.70,744.25 -284.21,740.36 -295.75,735.54"/>
    </edge>
    <edge id=":17_2" function="internal">
        <lane id=":17_2_0" index="0" disallow="pedestrian tram rail_urban rail rail_electric rail_fast ship" speed="12.68" length="33.52" width="3.50" shape="-258.77,755.00 -261.08,751.85 -263.09,748.56 -264.23,746.25 -265.17,743.85 -265.84,741.36 -266.20,738.81 -266.24,737.53 -266.18,736.24 -266.01,734.96 -265.74,733.70 -265.37,732.47 -264.35,730.11 -262.98,727.93 -261.36,725.93 -260.46,725.00"/>
    </edge>
    <edge id=":17_3" function="internal">
        <lane id=":17_3_0" index="0" disallow="pedestrian tram rail_urban rail rail_electric rail_fast ship" speed="11.69" length="28.34" width="3.50" shape="-257.99,727.48 -258.74,728.26 -260.12,729.95 -261.23,731.77 -262.06,733.74 -262.33,734.71 -262.53,735.73 -262.64,736.77 -262.67,737.82 -262.63,738.85 -262.29,741.00 -261.69,743.09 -260.87,745.14 -259.87,747.13 -258.08,750.04 -256.05,752.81"/>
    </edge>
    <edge id=":17_4" function="internal">
        <lane id=":17_4_0" index="0" disallow="pedestrian tram rail_urban rail rail_electric rail_fast ship" speed="36.11" length="42.41" width="3.50" shape="-257.99,727.48 -263.74,733.30 -269.97,740.01 -274.58,745.41 -278.29,750.20 -281.13,754.33 -283.13,757.76 -284.41,760.40"/>
    </edge>
    <edge id=":17_5" function="internal">
        <lane id=":17_5_0" index="0" disallow="pedestrian tram rail_urban rail rail_electric rail_fast ship" speed="15.82" length="41.19" width="3.50" shape="-257.99,727.48 -259.70,729.09 -262.38,731.32 -265.25,733.33 -268.32,735.08 -271.57,736.49 -274.97,737.54 -278.47,738.17 -282.02,738.38 -285.56,738.18 -289.05,737.61 -292.44,736.72 -295.75,735.54"/>
    </edge>
    <edge id=":17_6" function="internal">
        <lane id=":17_6_0" index="0" disallow="pedestrian tram rail_urban rail rail_electric rail_fast ship" speed="15.02" length="37.08" width="3.50" shape="-294.43,732.29 -291.44,733.36 -288.37,734.17 -285.23,734.68 -282.06,734.86 -278.89,734.67 -275.76,734.10 -272.72,733.17 -269.81,731.89 -267.05,730.32 -264.45,728.49 -262.01,726.46 -260.46,725.00"/>
    </edge>
    <edge id=":17_7" function="internal">
        <lane id=":17_7_0" index="0" disallow="pedestrian tram rail_urban rail rail_electric rail_fast ship" speed="31.03" length="43.80" width="3.50" shape="-294.43,732.29 -282.61,737.25 -273.87,741.26 -267.23,744.69 -262.63,747.41 -259.98,749.21 -257.51,751.25 -256.05,752.81"/>
    </edge>
    <edge id=":17_8" function="internal">
        <lane id=":17_8_0" index="0" disallow="pedestrian tram rail_urban rail rail_electric rail_fast ship" speed="12.30" length="34.40" width="3.50" shape="-294.43,732.29 -292.02,733.38 -289.71,734.66 -287.55,736.20 -285.62,738.00 -284.77,739.01 -284.00,740.09 -283.33,741.23 -282.77,742.43 -282.32,743.67 -281.98,744.95 -281.75,746.25 -281.60,748.89 -281.80,751.53 -282.29,754.13 -283.01,756.68 -284.41,760.40"/>
    </edge>
    <edge id=":17_9" function="internal">
        <lane id=":17_9_0" index="0" disallow="pedestrian tram rail_urban rail rail_electric rail_fast ship" speed="11.29" length="28.82" width="3.50" shape="-287.66,759.10 -286.39,755.75 -285.77,753.56 -285.35,751.35 -285.17,749.14 -285.28,746.94 -285.45,745.92 -285.72,744.89 -286.07,743.90 -286.51,742.94 -287.03,742.03 -287.64,741.16 -288.30,740.37 -289.90,738.85 -291.70,737.57 -293.66,736.47 -295.75,735.54"/>
    </edge>
    <edge id=":17_10" function="internal">
        <lane id=":17_10_0" index="0" disallow="pedestrian tram rail_urban rail rail_electric rail_fast ship" speed="36.11" length="43.84" width="3.50" shape="-287.67,759.10 -286.27,756.20 -284.17,752.60 -281.23,748.30 -277.41,743.36 -272.69,737.81 -266.32,730.93 -260.46,725.00"/>
    </edge>
    <edge id=":17_11" function="internal">
        <lane id=":17_11_0" index="0" disallow="pedestrian tram rail_urban rail rail_electric rail_fast ship" speed="11.60" length="43.36" width="3.50" shape="-287.66,759.10 -286.41,756.35 -284.35,752.48 -282.72,749.97 -280.85,747.63 -279.76,746.50 -278.57,745.46 -277.26,744.53 -275.83,743.74 -274.26,743.15 -272.61,742.80 -270.92,742.72 -269.25,742.90 -267.66,743.32 -266.16,743.91 -264.75,744.65 -263.42,745.50 -261.07,747.37 -258.92,749.47 -256.05,752.81"/>
    </edge>

    <edge id="86811" from="17" to="6" priority="3" type="highway.residential" spreadType="center" length="70.00" shape="-273.37,742.06 -203.89,797.66">
        <lane id="86811_0" index="0" disallow="pedestrian tram rail_urban rail rail_electric rail_fast ship" speed="36.11" length="70.00" width="3.50" customShape="1" shape="-256.05,752.81 -250.50,759.96 -243.00,769.42 -239.40,773.63 -233.46,779.78 -229.38,783.52 -225.83,786.32 -222.47,788.54 -218.93,790.46 -210.77,794.39 -203.89,797.66"/>
    </edge>
    <edge id="86812" from="13" to="17" priority="3" type="highway.residential" spreadType="center" length="70.06" shape="-206.82,800.15 -275.56,744.78">
        <lane id="86812_0" index="0" disallow="pedestrian tram rail_urban rail rail_electric rail_fast ship" speed="36.11" length="70.06" width="3.50" customShape="1" shape="-206.82,800.15 -212.99,797.20 -221.20,793.23 -224.82,791.20 -228.27,788.87 -231.91,785.96 -236.06,782.13 -242.07,775.89 -245.72,771.62 -253.25,762.13 -258.81,754.95"/>
    </edge>
    <edge id="86814" from="15" to="17" priority="3" type="highway.residential" spreadType="center" length="70.04" shape="-357.97,702.96 -273.68,741.87">
        <lane id="86814_0" index="0" disallow="pedestrian tram rail_urban rail rail_electric rail_fast ship" speed="36.11" length="70.04" width="3.50" customShape="1" shape="-357.97,702.96 -340.43,711.45 -321.93,720.28 -307.34,726.87 -294.39,732.31"/>
    </edge>
    <edge id="86815" from="17" to="3" priority="3" type="highway.residential" spreadType="center" length="70.00" shape="-275.14,745.05 -359.29,706.21">
        <lane id="86815_0" index="0" disallow="pedestrian tram rail_urban rail rail_electric rail_fast ship" speed="36.11" length="70.00" width="3.50" customShape="1" shape="-295.75,735.54 -308.76,730.07 -323.47,723.43 -342.09,714.53 -359.29,706.21"/>
    </edge>
    <edge id="86857" from="17" to="12" priority="3" type="highway.residential" spreadType="center" length="41.17" shape="-275.83,742.39 -235.64,692.35">
        <lane id="86857_0" index="0" disallow="pedestrian tram rail_urban rail rail_electric rail_fast ship" speed="36.11" length="41.17" width="3.50" customShape="1" shape="-260.46,725.00 -257.63,722.16 -252.49,716.65 -248.30,711.64 -244.42,706.39 -240.54,700.53 -235.64,692.35"/>
    </edge>
    <edge id="86858" from="16" to="17" priority="3" type="highway.residential" spreadType="center" length="42.08" shape="-232.62,694.12 -273.10,744.58">
        <lane id="86858_0" index="0" disallow="pedestrian tram rail_urban rail rail_electric rail_fast ship" speed="36.11" length="42.08" width="3.50" customShape="1" shape="-232.62,694.12 -237.60,702.43 -241.57,708.43 -245.56,713.81 -249.86,718.96 -255.11,724.59 -258.00,727.49"/>
    </edge>
    <edge id="86860" from="14" to="17" priority="3" type="highway.residential" spreadType="center" length="70.00" shape="-310.12,825.26 -276.04,742.74">
        <lane id="86860_0" index="0" disallow="pedestrian tram rail_urban rail rail_electric rail_fast ship" speed="36.11" length="70.00" width="3.50" customShape="1" shape="-310.12,825.26 -309.16,822.35 -304.96,807.32 -302.57,799.63 -298.21,787.29 -294.07,775.40 -291.56,768.82 -287.63,759.02"/>
    </edge>
    <edge id="86861" from="17" to="9" priority="3" type="highway.residential" spreadType="center" length="70.00" shape="-272.81,744.08 -306.89,826.64">
        <lane id="86861_0" index="0" disallow="pedestrian tram rail_urban rail rail_electric rail_fast ship" speed="36.11" length="70.00" width="3.50" customShape="1" shape="-284.41,760.40 -288.32,770.15 -290.81,776.70 -294.95,788.56 -299.30,800.87 -301.66,808.51 -305.87,823.55 -306.89,826.64"/>
    </edge>

    <junction id="12" type="dead_end" x="-235.64" y="692.35" incLanes="86857_0" intLanes="" shape="-237.14,691.45 -234.14,693.25" rightOfWay="edgePriority"/>
    <junction id="13" type="dead_end" x="-206.82" y="800.15" incLanes="" intLanes="" shape="-206.06,798.57 -207.57,801.73" rightOfWay="edgePriority"/>
    <junction id="14" type="dead_end" x="-310.12" y="825.26" incLanes="" intLanes="" shape="-308.46,825.81 -311.78,824.71" rightOfWay="edgePriority"/>
    <junction id="15" type="dead_end" x="-357.97" y="702.96" incLanes="" intLanes="" shape="-358.74,704.53 -357.21,701.38" rightOfWay="edgePriority"/>
    <junction id="16" type="dead_end" x="-232.62" y="694.12" incLanes="" intLanes="" shape="-234.13,693.22 -231.12,695.02" rightOfWay="edgePriority"/>
    <junction id="17" type="priority" x="-274.44" y="743.44" incLanes="86812_0 86858_0 86814_0 86860_0" intLanes=":17_0_0 :17_1_0 :17_2_0 :17_3_0 :17_4_0 :17_5_0 :17_6_0 :17_7_0 :17_8_0 :17_9_0 :17_10_0 :17_11_0" shape="-260.20,756.02 -254.67,751.73 -257.77,747.17 -259.77,742.90 -260.66,738.92 -260.46,735.23 -259.15,731.82 -256.75,728.71 -261.70,723.77 -266.57,727.95 -271.62,730.92 -276.87,732.68 -282.29,733.23 -287.91,732.57 -293.72,730.70 -296.43,737.15 -292.50,739.31 -289.67,742.02 -287.93,745.29 -287.29,749.12 -287.74,753.51 -289.29,758.45 -282.79,761.05 -280.00,755.83 -276.56,752.18 -272.65,750.25 -268.49,750.16 -264.27,752.04">
        <request index="0" response="000000000000" foes="000100010000" cont="0"/>
        <request index="1" response="000000000000" foes="111100110000" cont="0"/>
        <request index="2" response="000011000000" foes="110011110000" cont="0"/>
        <request index="3" response="000010000000" foes="100010000000" cont="0"/>
        <request index="4" response="000110000111" foes="100110000111" cont="0"/>
        <request index="5" response="011110000110" foes="011110000110" cont="0"/>
        <request index="6" response="000000000000" foes="010000000100" cont="0"/>
        <request index="7" response="000000000000" foes="110000111100" cont="0"/>
        <request index="8" response="000000000011" foes="110000110011" cont="0"/>
        <request index="9" response="000000000010" foes="000000100010" cont="0"/>
        <request index="10" response="000111000110" foes="000111100110" cont="0"/>
        <request index="11" response="000110011110" foes="000110011110" cont="0"/>
    </junction>
    <junction id="3" type="dead_end" x="-359.29" y="706.21" incLanes="86815_0" intLanes="" shape="-360.06,707.78 -358.53,704.63" rightOfWay="edgePriority"/>
    <junction id="6" type="dead_end" x="-203.89" y="797.66" incLanes="86811_0" intLanes="" shape="-203.14,796.08 -204.64,799.24" rightOfWay="edgePriority"/>
    <junction id="9" type="dead_end" x="-306.89" y="826.64" incLanes="86861_0" intLanes="" shape="-305.23,827.19 -308.55,826.09" rightOfWay="edgePriority"/>

    <connection from="86812" to="86861" fromLane="0" toLane="0" contPos="-4.00" shape="-258.77,755.00 -261.28,752.08 -263.11,750.31 -265.10,748.74 -266.18,748.06 -267.31,747.48 -268.49,747.03 -269.72,746.72 -270.99,746.60 -272.25,746.68 -273.49,746.97 -274.67,747.44 -275.77,748.07 -276.79,748.82 -277.74,749.66 -278.62,750.58 -280.19,752.58 -281.57,754.71 -283.36,758.08 -284.41,760.40" via=":17_0_0" dir="r" state="M"/>
    <connection from="86812" to="86815" fromLane="0" toLane="0" contPos="-4.00" shape="-258.77,755.00 -260.04,753.65 -262.34,751.80 -264.83,750.12 -269.26,747.54 -275.70,744.25 -284.21,740.36 -295.75,735.54" via=":17_1_0" dir="s" state="M"/>
    <connection from="86812" to="86857" fromLane="0" toLane="0" contPos="-4.00" shape="-258.77,755.00 -261.08,751.85 -263.09,748.56 -264.23,746.25 -265.17,743.85 -265.84,741.36 -266.20,738.81 -266.24,737.53 -266.18,736.24 -266.01,734.96 -265.74,733.70 -265.37,732.47 -264.35,730.11 -262.98,727.93 -261.36,725.93 -260.46,725.00" via=":17_2_0" dir="l" state="m"/>
    <connection from="86814" to="86857" fromLane="0" toLane="0" contPos="-4.00" shape="-294.43,732.29 -291.44,733.36 -288.37,734.17 -285.23,734.68 -282.06,734.86 -278.89,734.67 -275.76,734.10 -272.72,733.17 -269.81,731.89 -267.05,730.32 -264.45,728.49 -262.01,726.46 -260.46,725.00" via=":17_6_0" dir="r" state="M"/>
    <connection from="86814" to="86811" fromLane="0" toLane="0" contPos="-4.00" shape="-294.43,732.29 -282.61,737.25 -273.87,741.26 -267.23,744.69 -262.63,747.41 -259.98,749.21 -257.51,751.25 -256.05,752.81" via=":17_7_0" dir="s" state="M"/>
    <connection from="86814" to="86861" fromLane="0" toLane="0" contPos="-4.00" shape="-294.43,732.29 -292.02,733.38 -289.71,734.66 -287.55,736.20 -285.62,738.00 -284.77,739.01 -284.00,740.09 -283.33,741.23 -282.77,742.43 -282.32,743.67 -281.98,744.95 -281.75,746.25 -281.60,748.89 -281.80,751.53 -282.29,754.13 -283.01,756.68 -284.41,760.40" via=":17_8_0" dir="l" state="m"/>
    <connection from="86858" to="86811" fromLane="0" toLane="0" contPos="-4.00" shape="-258.00,727.49 -258.74,728.26 -260.12,729.95 -261.23,731.77 -262.06,733.74 -262.33,734.71 -262.53,735.73 -262.64,736.77 -262.67,737.82 -262.63,738.85 -262.29,741.00 -261.69,743.09 -260.87,745.14 -259.87,747.13 -258.08,750.04 -256.05,752.81" via=":17_3_0" dir="r" state="m"/>
    <connection from="86858" to="86861" fromLane="0" toLane="0" contPos="-4.00" shape="-258.00,727.49 -263.74,733.30 -269.97,740.01 -274.58,745.41 -278.29,750.20 -281.13,754.33 -283.13,757.76 -284.41,760.40" via=":17_4_0" dir="s" state="m"/>
    <connection from="86858" to="86815" fromLane="0" toLane="0" contPos="-4.00" shape="-258.00,727.49 -259.70,729.09 -262.38,731.32 -265.25,733.33 -268.32,735.08 -271.57,736.49 -274.97,737.54 -278.47,738.17 -282.02,738.38 -285.56,738.18 -289.05,737.61 -292.44,736.72 -295.75,735.54" via=":17_5_0" dir="l" state="m"/>
    <connection from="86860" to="86815" fromLane="0" toLane="0" contPos="-4.00" shape="-287.63,759.02 -286.39,755.75 -285.77,753.56 -285.35,751.35 -285.17,749.14 -285.28,746.94 -285.45,745.92 -285.72,744.89 -286.07,743.90 -286.51,742.94 -287.03,742.03 -287.64,741.16 -288.30,740.37 -289.90,738.85 -291.70,737.57 -293.66,736.47 -295.75,735.54" via=":17_9_0" dir="r" state="m"/>
    <connection from="86860" to="86857" fromLane="0" toLane="0" contPos="-4.00" shape="-287.63,759.02 -286.27,756.20 -284.17,752.60 -281.23,748.30 -277.41,743.36 -272.69,737.81 -266.32,730.93 -260.46,725.00" via=":17_10_0" dir="s" state="m"/>
    <connection from="86860" to="86811" fromLane="0" toLane="0" contPos="-4.00" shape="-287.63,759.02 -286.41,756.35 -284.35,752.48 -282.72,749.97 -280.85,747.63 -279.76,746.50 -278.57,745.46 -277.26,744.53 -275.83,743.74 -274.26,743.15 -272.61,742.80 -270.92,742.72 -269.25,742.90 -267.66,743.32 -266.16,743.91 -264.75,744.65 -263.42,745.50 -261.07,747.37 -258.92,749.47 -256.05,752.81" via=":17_11_0" dir="l" state="m"/>

    <connection from=":17_0" to="86861" fromLane="0" toLane="0" dir="r" state="M"/>
    <connection from=":17_1" to="86815" fromLane="0" toLane="0" dir="s" state="M"/>
    <connection from=":17_2" to="86857" fromLane="0" toLane="0" dir="l" state="M"/>
    <connection from=":17_3" to="86811" fromLane="0" toLane="0" dir="r" state="M"/>
    <connection from=":17_4" to="86861" fromLane="0" toLane="0" dir="s" state="M"/>
    <connection from=":17_5" to="86815" fromLane="0" toLane="0" dir="l" state="M"/>
    <connection from=":17_6" to="86857" fromLane="0" toLane="0" dir="r" state="M"/>
    <connection from=":17_7" to="86811" fromLane="0" toLane="0" dir="s" state="M"/>
    <connection from=":17_8" to="86861" fromLane="0" toLane="0" dir="l" state="M"/>
    <connection from=":17_9" to="86815" fromLane="0" toLane="0" dir="r" state="M"/>
    <connection from=":17_10" to="86857" fromLane="0" toLane="0" dir="s" state="M"/>
    <connection from=":17_11" to="86811" fromLane="0" toLane="0" dir="l" state="M"/>

</net>