<routes>
	<vehicle depart="0.1" departLane="0" departPos="59.24034451926718" departSpeed="0.0" id="30" type="passenger">
		<route edges="105926 105807"/>
	</vehicle>
	<vehicle depart="0.1" departLane="0" departPos="34.36195680496563" departSpeed="0.044377289" id="31" type="passenger">
		<route edges=":25_8 106030"/>
	</vehicle>
	<vehicle depart="0.1" departLane="0" departPos="51.73884649867837" departSpeed="0.0" id="36" type="passenger">
		<route edges="105926 105807"/>
	</vehicle>
	<vehicle depart="0.1" departLane="0" departPos="13.853594265659334" departSpeed="2.6668863" id="38" type="passenger">
		<route edges="106031 105807"/>
	</vehicle>
	<vehicle depart="0.1" departLane="0" departPos="46.68537366082434" departSpeed="1.4330638" id="311" type="passenger">
		<route edges="105808 105811"/>
	</vehicle>
	<vehicle depart="0.1" departLane="0" departPos="2.5" departSpeed="1.9418663" id="318" type="passenger">
		<route edges=":25_8 106030"/>
	</vehicle>
	<vehicle depart="0.1" departLane="0" departPos="39.361010067779766" departSpeed="0.46727904" id="319" type="passenger">
		<route edges="105808 105811"/>
	</vehicle>
	<vehicle depart="0.1" departLane="0" departPos="41.76590212929132" departSpeed="15.191985" id="335" type="passenger">
		<route edges=":25_1 105807"/>
	</vehicle>
	<vehicle depart="0.1" departLane="0" departPos="45.459576119055654" departSpeed="8.8625772" id="337" type="passenger">
		<route edges="105810 105807"/>
	</vehicle>
	<vehicle depart="0.1" departLane="0" departPos="13.596840573759087" departSpeed="6.6941236" id="342" type="passenger">
		<route edges="105810 106030"/>
	</vehicle>
</routes>
