<routes>
	<vehicle depart="0.1" departLane="0" departPos="7.356765661320006" departSpeed="0.5577333" id="337" type="bicycle">
		<route edges="51722 51810"/>
	</vehicle>
	<vehicle depart="0.1" departLane="0" departPos="14.589127917500551" departSpeed="0.90965607" id="36" type="passenger">
		<route edges=":143_11 51810"/>
	</vehicle>
	<vehicle depart="0.1" departLane="0" departPos="2.5" departSpeed="1.2594308" id="321" type="passenger">
		<route edges=":143_11 51810"/>
	</vehicle>
	<vehicle depart="0.1" departLane="0" departPos="17.757690892633665" departSpeed="2.1077825" id="322" type="passenger">
		<route edges="51722 51810"/>
	</vehicle>
	<vehicle depart="0.1" departLane="0" departPos="6.088736534923823" departSpeed="2.099714" id="342" type="passenger">
		<route edges="51722 51810"/>
	</vehicle>
	<vehicle depart="0.1" departLane="0" departPos="7.467447280259388" departSpeed="0.042729515" id="347" type="passenger">
		<route edges="51719 51722"/>
	</vehicle>
	<vehicle depart="0.1" departLane="0" departPos="16.238996943313264" departSpeed="0.24621822" id="361" type="passenger">
		<route edges=":143_3 51810"/>
	</vehicle>
	<vehicle depart="0.1" departLane="0" departPos="33.663232163560664" departSpeed="15.103323" id="3104" type="passenger">
		<route edges=":143_7 51810 51955"/>
	</vehicle>
	<vehicle depart="0.1" departLane="0" departPos="34.99461806200557" departSpeed="11.680866" id="3112" type="passenger">
		<route edges="51813 51810"/>
	</vehicle>
	<vehicle depart="0.1" departLane="0" departPos="23.274941741262023" departSpeed="8.0204144" id="3117" type="passenger">
		<route edges="51813 51810"/>
	</vehicle>
</routes>
