<routes>
	<vehicle depart="0.1" departLane="0" departPos="75.25262406405606" departSpeed="4.5933409" id="39" type="bicycle">
		<route edges="362 359 1539"/>
	</vehicle>
	<vehicle depart="0.1" departLane="0" departPos="9.594455099492357" departSpeed="6.8791978" id="322" type="bicycle">
		<route edges="363 336"/>
	</vehicle>
	<vehicle depart="0.1" departLane="0" departPos="38.12821482731215" departSpeed="0.0" id="341" type="bicycle">
		<route edges="129 131"/>
	</vehicle>
	<vehicle depart="0.1" departLane="0" departPos="44.06541954359091" departSpeed="0.00034380353" id="331" type="bus">
		<route edges="330 362"/>
	</vehicle>
	<vehicle depart="0.1" departLane="0" departPos="15.747337656048643" departSpeed="9.7374702" id="350" type="bus">
		<route edges=":37_3 131"/>
	</vehicle>
	<vehicle depart="0.1" departLane="0" departPos="16.0147313710939" departSpeed="1.2985238" id="31" type="passenger">
		<route edges=":38_3 360"/>
	</vehicle>
	<vehicle depart="0.1" departLane="0" departPos="53.55851050357489" departSpeed="0.0" id="32" type="passenger">
		<route edges="360 198"/>
	</vehicle>
	<vehicle depart="0.1" departLane="0" departPos="69.96345619606622" departSpeed="0.0" id="33" type="passenger">
		<route edges="204 360"/>
	</vehicle>
	<vehicle depart="0.1" departLane="0" departPos="46.54918919929898" departSpeed="6.2170987e-05" id="34" type="passenger">
		<route edges="360 198"/>
	</vehicle>
	<vehicle depart="0.1" departLane="0" departPos="39.819052776134725" departSpeed="0.00058498313" id="36" type="passenger">
		<route edges="360 198"/>
	</vehicle>
	<vehicle depart="0.1" departLane="0" departPos="62.162910149755014" departSpeed="0.38547508" id="310" type="passenger">
		<route edges="204 360"/>
	</vehicle>
	<vehicle depart="0.1" departLane="0" departPos="131.8338876809513" departSpeed="0.0" id="311" type="passenger">
		<route edges="198 118"/>
	</vehicle>
	<vehicle depart="0.1" departLane="0" departPos="9.747138038992698" departSpeed="6.7369256" id="314" type="passenger">
		<route edges=":35_5 359 1539"/>
	</vehicle>
	<vehicle depart="0.1" departLane="0" departPos="54.04321069600825" departSpeed="0.97434686" id="317" type="passenger">
		<route edges="204 360"/>
	</vehicle>
	<vehicle depart="0.1" departLane="0" departPos="32.714911799786314" departSpeed="0.0034454649" id="319" type="passenger">
		<route edges="360 198"/>
	</vehicle>
	<vehicle depart="0.1" departLane="0" departPos="86.24078348499641" departSpeed="5.6423998" id="320" type="passenger">
		<route edges="362 359 1539"/>
	</vehicle>
	<vehicle depart="0.1" departLane="0" departPos="45.95833137754788" departSpeed="1.3463142" id="321" type="passenger">
		<route edges="204 360"/>
	</vehicle>
	<vehicle depart="0.1" departLane="0" departPos="131.32102439050837" departSpeed="3.060342" id="323" type="passenger">
		<route edges="197 363"/>
	</vehicle>
	<vehicle depart="0.1" departLane="0" departPos="37.813485397791" departSpeed="1.2944744" id="325" type="passenger">
		<route edges="204 360"/>
	</vehicle>
	<vehicle depart="0.1" departLane="0" departPos="30.7424198305798" departSpeed="0.0025563725" id="333" type="passenger">
		<route edges="330 362"/>
	</vehicle>
	<vehicle depart="0.1" departLane="0" departPos="74.29698027460006" departSpeed="5.1374097" id="337" type="passenger">
		<route edges="362 359 1539"/>
	</vehicle>
	<vehicle depart="0.1" departLane="0" departPos="24.283594989095963" departSpeed="0.012420942" id="340" type="passenger">
		<route edges="330 362"/>
	</vehicle>
	<vehicle depart="0.1" departLane="0" departPos="24.068214015871174" departSpeed="0.91389039" id="342" type="passenger">
		<route edges="204 360"/>
	</vehicle>
	<vehicle depart="0.1" departLane="0" departPos="15.132757592565275" departSpeed="0.068800332" id="343" type="passenger">
		<route edges="360 198"/>
	</vehicle>
	<vehicle depart="0.1" departLane="0" departPos="49.75002269553892" departSpeed="5.9556205" id="344" type="passenger">
		<route edges="362 359"/>
	</vehicle>
	<vehicle depart="0.1" departLane="0" departPos="7.819767409801648" departSpeed="0.21944166" id="345" type="passenger">
		<route edges="360 198"/>
	</vehicle>
	<vehicle depart="0.1" departLane="0" departPos="16.33588957380784" departSpeed="0.64386405" id="346" type="passenger">
		<route edges="204 360"/>
	</vehicle>
	<vehicle depart="0.1" departLane="0" departPos="34.056248482040544" departSpeed="6.8845423" id="347" type="passenger">
		<route edges="362 198"/>
	</vehicle>
	<vehicle depart="0.1" departLane="0" departPos="43.65453759256665" departSpeed="13.700358" id="349" type="passenger">
		<route edges="203"/>
	</vehicle>
	<vehicle depart="0.1" departLane="0" departPos="18.069323993397468" departSpeed="7.422165" id="351" type="passenger">
		<route edges="362 198"/>
	</vehicle>
	<vehicle depart="0.1" departLane="0" departPos="6.606548828596862" departSpeed="2.0066118" id="353" type="passenger">
		<route edges=":38_1 203"/>
	</vehicle>
	<vehicle depart="0.1" departLane="0" departPos="2.5" departSpeed="8.1156967" id="354" type="passenger">
		<route edges="362 198"/>
	</vehicle>
	<vehicle depart="0.1" departLane="0" departPos="8.66871036633787" departSpeed="0.50087705" id="355" type="passenger">
		<route edges="204 360"/>
	</vehicle>
	<vehicle depart="0.1" departLane="0" departPos="27.29878103281622" departSpeed="8.1854505" id="356" type="passenger">
		<route edges="129 131"/>
	</vehicle>
	<vehicle depart="0.1" departLane="0" departPos="31.3384498311177" departSpeed="8.3365307" id="358" type="passenger">
		<route edges="335 329"/>
	</vehicle>
	<vehicle depart="0.1" departLane="0" departPos="16.572139439728705" departSpeed="7.0493442" id="364" type="passenger">
		<route edges="129 131"/>
	</vehicle>
	<vehicle depart="0.1" departLane="0" departPos="7.413668386185094" departSpeed="4.1929634" id="366" type="passenger">
		<route edges="129 131"/>
	</vehicle>
	<vehicle depart="0.1" departLane="0" departPos="29.563658092529934" departSpeed="1.1494457" id="332" type="motorcycle">
		<route edges="204 360"/>
	</vehicle>
	<vehicle depart="0.1" departLane="0" departPos="61.73069988999673" departSpeed="5.1393968" id="339" type="motorcycle">
		<route edges="362 359 1539"/>
	</vehicle>
	<vehicle depart="0.1" departLane="0" departPos="12.5748962354951" departSpeed="5.8379043" id="30" type="truck">
		<route edges="198 118"/>
	</vehicle>
	<vehicle depart="0.1" departLane="0" departPos="63.43879005496827" departSpeed="0.0" id="315" type="truck">
		<route edges="360 198"/>
	</vehicle>
	<vehicle depart="0.1" departLane="0" departPos="25.198222119466653" departSpeed="0.016202519" id="334" type="truck">
		<route edges="360 198"/>
	</vehicle>
</routes>
