<!-- generated on Wed Feb 10 12:36:06 2021 by Eclipse SUMO netconvert Version 1.8.0
<configuration xmlns:xsi="http://www.w3.org/2001/XMLSchema-instance" xsi:noNamespaceSchemaLocation="http://sumo.dlr.de/xsd/netconvertConfiguration.xsd">

    <input>
        <node-files value="./converted_scenarios/SUMO/DEU_Flensburg-17_1_I-1-1/DEU_Flensburg-17_1_I-1-1.nod.xml"/>
        <edge-files value="./converted_scenarios/SUMO/DEU_Flensburg-17_1_I-1-1/DEU_Flensburg-17_1_I-1-1.edg.xml"/>
        <connection-files value="./converted_scenarios/SUMO/DEU_Flensburg-17_1_I-1-1/DEU_Flensburg-17_1_I-1-1.con.xml"/>
        <tllogic-files value="./converted_scenarios/SUMO/DEU_Flensburg-17_1_I-1-1/DEU_Flensburg-17_1_I-1-1.tll.xml"/>
        <type-files value="/home/zen/commonroad-interactive-benchmarks/install/commonroad-map-tool/crmapconverter/sumo_map/templates/DEU.typ.xml"/>
    </input>

    <output>
        <output-file value="./converted_scenarios/SUMO/DEU_Flensburg-17_1_I-1-1/DEU_Flensburg-17_1_I-1-1.net.xml"/>
    </output>

    <processing>
        <geometry.remove.keep-edges.explicit value="true"/>
        <geometry.avoid-overlap value="true"/>
        <offset.disable-normalization value="true"/>
    </processing>

    <junctions>
        <no-turnarounds value="true"/>
        <junctions.internal-link-detail value="20"/>
    </junctions>

    <report>
        <aggregate-warnings value="5"/>
    </report>

    <random_number>
        <seed value="1234"/>
    </random_number>

</configuration>
--><net xmlns:xsi="http://www.w3.org/2001/XMLSchema-instance" version="1.6" junctionCornerDetail="5" junctionLinkDetail="20" limitTurnSpeed="5.50" xsi:noNamespaceSchemaLocation="http://sumo.dlr.de/xsd/net_file.xsd">

    <location netOffset="0.00,0.00" convBoundary="273.90,-460.58,493.30,-178.10" origBoundary="273.90,-460.58,493.30,-178.10" projParameter="!"/>

    <type id="highway.bridleway" priority="1" speed="2.78" allow="pedestrian" oneway="1" width="2.00"/>
    <type id="highway.bus_guideway" priority="1" speed="27.78" allow="bus" oneway="1"/>
    <type id="highway.cycleway" priority="1" speed="8.33" allow="bicycle" oneway="0" width="1.00"/>
    <type id="highway.footway" priority="1" speed="2.78" allow="pedestrian" oneway="1" width="2.00"/>
    <type id="highway.ford" priority="1" speed="2.78" allow="army" oneway="0"/>
    <type id="highway.living_street" priority="2" speed="2.78" disallow="tram rail_urban rail rail_electric rail_fast ship" oneway="0"/>
    <type id="highway.motorway" priority="14" speed="39.44" allow="private emergency authority army vip passenger hov taxi bus coach delivery truck trailer motorcycle evehicle custom1 custom2" oneway="1"/>
    <type id="highway.motorway_link" priority="9" speed="22.22" allow="private emergency authority army vip passenger hov taxi bus coach delivery truck trailer motorcycle evehicle custom1 custom2" oneway="1"/>
    <type id="highway.path" priority="1" speed="2.78" allow="pedestrian bicycle" oneway="0" width="2.00"/>
    <type id="highway.pedestrian" priority="1" speed="2.78" allow="pedestrian" oneway="1" width="2.00"/>
    <type id="highway.primary" priority="12" speed="27.78" disallow="pedestrian tram rail_urban rail rail_electric rail_fast ship" oneway="0"/>
    <type id="highway.primary_link" priority="7" speed="22.22" disallow="pedestrian tram rail_urban rail rail_electric rail_fast ship" oneway="0"/>
    <type id="highway.raceway" priority="15" speed="83.33" allow="vip" oneway="0"/>
    <type id="highway.residential" priority="3" speed="13.89" disallow="pedestrian tram rail_urban rail rail_electric rail_fast ship" oneway="0"/>
    <type id="highway.secondary" priority="11" speed="27.78" disallow="pedestrian tram rail_urban rail rail_electric rail_fast ship" oneway="0"/>
    <type id="highway.secondary_link" priority="6" speed="22.22" disallow="pedestrian tram rail_urban rail rail_electric rail_fast ship" oneway="0"/>
    <type id="highway.service" priority="1" speed="5.56" allow="pedestrian delivery bicycle" oneway="0"/>
    <type id="highway.stairs" priority="1" speed="1.39" allow="pedestrian" oneway="1" width="2.00"/>
    <type id="highway.step" priority="1" speed="1.39" allow="pedestrian" oneway="1" width="2.00"/>
    <type id="highway.steps" priority="1" speed="1.39" allow="pedestrian" oneway="1" width="2.00"/>
    <type id="highway.tertiary" priority="10" speed="22.22" disallow="pedestrian tram rail_urban rail rail_electric rail_fast ship" oneway="0"/>
    <type id="highway.tertiary_link" priority="5" speed="22.22" disallow="pedestrian tram rail_urban rail rail_electric rail_fast ship" oneway="0"/>
    <type id="highway.track" priority="1" speed="5.56" allow="pedestrian motorcycle moped bicycle" oneway="0"/>
    <type id="highway.trunk" priority="13" speed="27.78" disallow="pedestrian bicycle tram rail_urban rail rail_electric rail_fast ship" oneway="0"/>
    <type id="highway.trunk_link" priority="8" speed="22.22" disallow="pedestrian bicycle tram rail_urban rail rail_electric rail_fast ship" oneway="0"/>
    <type id="highway.unclassified" priority="4" speed="13.89" disallow="pedestrian tram rail_urban rail rail_electric rail_fast ship" oneway="0"/>
    <type id="highway.unsurfaced" priority="1" speed="8.33" disallow="tram rail_urban rail rail_electric rail_fast ship" oneway="0"/>
    <type id="railway.highspeed" priority="21" speed="69.44" allow="rail_fast" oneway="1"/>
    <type id="railway.light_rail" priority="19" speed="27.78" allow="rail_urban" oneway="1"/>
    <type id="railway.preserved" priority="16" speed="27.78" allow="rail" oneway="1"/>
    <type id="railway.rail" priority="20" speed="44.44" allow="rail" oneway="1"/>
    <type id="railway.subway" priority="18" speed="27.78" allow="rail_urban" oneway="1"/>
    <type id="railway.tram" priority="17" speed="13.89" allow="tram" oneway="1"/>

    <edge id=":35_0" function="internal">
        <lane id=":35_0_0" index="0" disallow="pedestrian tram rail_urban rail rail_electric rail_fast ship" speed="36.11" length="17.20" width="3.50" shape="404.77,-243.20 392.16,-243.00 387.57,-243.02"/>
    </edge>
    <edge id=":35_1" function="internal">
        <lane id=":35_1_0" index="0" disallow="pedestrian tram rail_urban rail rail_electric rail_fast ship" speed="8.98" length="16.82" width="3.50" shape="404.77,-243.20 404.08,-243.19 402.19,-243.32 400.23,-243.74 398.36,-244.52 397.15,-245.31 396.11,-246.27 395.23,-247.40 394.28,-249.18 393.67,-251.06 393.32,-252.95"/>
    </edge>
    <edge id=":35_2" function="internal">
        <lane id=":35_2_0" index="0" disallow="pedestrian tram rail_urban rail rail_electric rail_fast ship" speed="7.56" length="11.58" width="3.50" shape="396.79,-253.38 397.05,-252.01 397.47,-250.69 398.13,-249.47 398.70,-248.73 399.38,-248.11 400.15,-247.60 401.43,-247.07 402.79,-246.78 404.18,-246.69 404.65,-246.70"/>
    </edge>
    <edge id=":35_3" function="internal">
        <lane id=":35_3_0" index="0" disallow="pedestrian tram rail_urban rail rail_electric rail_fast ship" speed="8.22" length="16.43" width="3.50" shape="396.79,-253.38 396.93,-251.14 396.84,-249.65 396.54,-248.19 395.98,-246.80 395.13,-245.57 394.01,-244.59 392.70,-243.88 391.28,-243.41 389.07,-243.07 387.57,-243.02"/>
    </edge>
    <edge id=":35_4" function="internal">
        <lane id=":35_4_0" index="0" disallow="pedestrian tram rail_urban rail rail_electric rail_fast ship" speed="6.67" length="10.38" width="3.50" shape="387.57,-246.52 388.64,-246.55 390.18,-246.78 391.05,-247.07 391.81,-247.46 392.41,-248.00 392.87,-248.66 393.18,-249.46 393.36,-250.38 393.42,-251.35 393.32,-252.95"/>
    </edge>
    <edge id=":35_5" function="internal">
        <lane id=":35_5_0" index="0" disallow="pedestrian tram rail_urban rail rail_electric rail_fast ship" speed="36.11" length="17.08" width="3.50" shape="387.57,-246.52 392.13,-246.50 404.65,-246.70"/>
    </edge>
    <edge id=":36_0" function="internal">
        <lane id=":36_0_0" index="0" disallow="pedestrian tram rail_urban rail rail_electric rail_fast ship" speed="36.11" length="23.20" width="3.50" shape="292.74,-229.77 287.73,-243.33 284.84,-251.58"/>
    </edge>
    <edge id=":36_1" function="internal">
        <lane id=":36_1_0" index="0" disallow="pedestrian tram rail_urban rail rail_electric rail_fast ship" speed="9.10" length="24.43" width="3.50" shape="292.74,-229.77 289.92,-237.37 289.52,-239.78 289.52,-241.41 289.87,-243.01 290.19,-243.76 290.64,-244.44 291.18,-245.05 291.81,-245.57 293.24,-246.35 294.80,-246.84 297.23,-247.17 298.86,-247.22"/>
    </edge>
    <edge id=":36_2" function="internal">
        <lane id=":36_2_0" index="0" disallow="pedestrian tram rail_urban rail rail_electric rail_fast ship" speed="7.77" length="17.37" width="3.50" shape="298.83,-243.72 298.21,-243.71 297.59,-243.68 296.97,-243.62 296.36,-243.53 295.75,-243.40 295.16,-243.21 294.59,-242.96 294.08,-242.62 293.66,-242.17 293.35,-241.63 293.18,-241.03 293.10,-240.41 293.10,-239.79 293.16,-239.18 293.26,-238.57 293.40,-237.96 293.56,-237.36 293.74,-236.77 296.02,-231.00"/>
    </edge>
    <edge id=":36_3" function="internal">
        <lane id=":36_3_0" index="0" disallow="pedestrian tram rail_urban rail rail_electric rail_fast ship" speed="10.15" length="17.17" width="3.50" shape="298.83,-243.72 295.95,-243.89 293.62,-244.29 291.33,-245.01 289.63,-245.83 288.07,-246.92 286.71,-248.29 285.62,-249.88 284.84,-251.58"/>
    </edge>
    <edge id=":36_4" function="internal">
        <lane id=":36_4_0" index="0" disallow="pedestrian tram rail_urban rail rail_electric rail_fast ship" speed="8.88" length="12.94" width="3.50" shape="288.12,-252.79 288.70,-251.54 289.51,-250.41 290.51,-249.46 291.68,-248.71 292.94,-248.14 294.72,-247.63 296.55,-247.34 298.86,-247.22"/>
    </edge>
    <edge id=":36_5" function="internal">
        <lane id=":36_5_0" index="0" disallow="pedestrian tram rail_urban rail rail_electric rail_fast ship" speed="36.11" length="23.18" width="3.50" shape="288.12,-252.79 291.03,-244.50 296.02,-231.00"/>
    </edge>
    <edge id=":37_0" function="internal">
        <lane id=":37_0_0" index="0" disallow="pedestrian tram rail_urban rail rail_electric rail_fast ship" speed="35.12" length="13.89" width="3.50" shape="377.06,-383.87 376.79,-387.96 376.60,-392.04 376.21,-394.57 375.62,-396.52 375.18,-397.54"/>
    </edge>
    <edge id=":37_1" function="internal">
        <lane id=":37_1_0" index="0" disallow="pedestrian tram rail_urban rail rail_electric rail_fast ship" speed="8.13" length="14.20" width="3.50" shape="377.06,-383.87 376.96,-385.59 377.12,-387.30 377.64,-388.93 378.21,-389.92 378.96,-390.79 380.34,-391.81 381.90,-392.51 383.56,-392.97 385.15,-393.24"/>
    </edge>
    <edge id=":37_2" function="internal">
        <lane id=":37_2_0" index="0" disallow="pedestrian tram rail_urban rail rail_electric rail_fast ship" speed="8.46" length="18.02" width="3.50" shape="363.26,-387.99 372.36,-390.70 373.93,-391.59 374.83,-392.38 375.51,-393.37 375.83,-394.53 375.79,-395.73 375.46,-396.89 375.18,-397.54"/>
    </edge>
    <edge id=":37_3" function="internal">
        <lane id=":37_3_0" index="0" disallow="pedestrian tram rail_urban rail rail_electric rail_fast ship" speed="36.11" length="22.52" width="3.50" shape="363.26,-387.99 377.40,-391.76 383.81,-393.02 385.15,-393.24"/>
    </edge>
    <edge id=":37_4" function="internal">
        <lane id=":37_4_0" index="0" disallow="pedestrian tram rail_urban rail rail_electric rail_fast ship" speed="9.20" length="21.16" width="3.50" shape="363.26,-387.99 372.47,-390.41 374.29,-390.53 376.09,-390.32 377.24,-389.90 378.25,-389.24 379.09,-388.36 379.71,-387.32 380.30,-385.60 380.53,-384.30"/>
    </edge>
    <edge id=":38_0" function="internal">
        <lane id=":38_0_0" index="0" disallow="pedestrian tram rail_urban rail rail_electric rail_fast ship" speed="36.11" length="16.09" width="3.50" shape="484.31,-242.22 472.83,-243.02 468.25,-243.26"/>
    </edge>
    <edge id=":38_1" function="internal">
        <lane id=":38_1_0" index="0" disallow="pedestrian tram rail_urban rail rail_electric rail_fast ship" speed="9.61" length="17.05" width="3.50" shape="484.31,-242.22 483.63,-242.30 481.72,-242.73 479.85,-243.52 478.15,-244.69 476.73,-246.16 475.63,-247.83 474.82,-249.58 474.24,-251.39 473.74,-253.78"/>
    </edge>
    <edge id=":38_2" function="internal">
        <lane id=":38_2_0" index="0" disallow="pedestrian tram rail_urban rail rail_electric rail_fast ship" speed="9.18" length="14.93" width="3.50" shape="477.19,-254.32 477.34,-253.51 477.54,-252.74 477.78,-252.00 478.06,-251.31 478.39,-250.64 478.76,-250.02 479.18,-249.44 479.64,-248.89 480.14,-248.38 480.69,-247.91 481.28,-247.47 481.91,-247.08 482.59,-246.72 483.31,-246.39 484.08,-246.11 484.89,-245.86 485.74,-245.66 486.64,-245.48 487.58,-245.35"/>
    </edge>
    <edge id=":38_3" function="internal">
        <lane id=":38_3_0" index="0" disallow="pedestrian tram rail_urban rail rail_electric rail_fast ship" speed="8.22" length="17.20" width="3.50" shape="477.19,-254.33 477.43,-251.99 477.35,-249.64 477.04,-248.11 476.45,-246.66 476.03,-246.00 474.95,-244.88 474.31,-244.43 472.89,-243.78 471.37,-243.41 469.03,-243.24 468.25,-243.26"/>
    </edge>
    <edge id=":38_4" function="internal">
        <lane id=":38_4_0" index="0" disallow="pedestrian tram rail_urban rail rail_electric rail_fast ship" speed="6.66" length="10.84" width="3.50" shape="468.40,-246.75 468.97,-246.75 469.54,-246.76 470.11,-246.79 470.68,-246.88 471.23,-247.01 471.77,-247.20 472.28,-247.46 472.72,-247.82 473.11,-248.24 473.40,-248.73 473.61,-249.26 473.77,-249.81 473.86,-250.37 473.91,-250.94 473.93,-251.51 473.91,-252.08 473.88,-252.65 473.82,-253.22 473.74,-253.78"/>
    </edge>
    <edge id=":38_5" function="internal">
        <lane id=":38_5_0" index="0" disallow="pedestrian tram rail_urban rail rail_electric rail_fast ship" speed="36.11" length="15.52" width="3.50" shape="468.40,-246.75 483.89,-245.75"/>
    </edge>

    <edge id="118" from="37" to="30" priority="3" type="highway.residential" spreadType="center" length="69.99">
        <lane id="118_0" index="0" disallow="pedestrian tram rail_urban rail rail_electric rail_fast ship" speed="36.11" length="69.99" width="3.50" customShape="1" shape="375.20,-397.48 356.98,-435.43 344.91,-460.58"/>
    </edge>
    <edge id="129" from="11" to="37" priority="3" type="highway.residential" spreadType="center" length="38.97">
        <lane id="129_0" index="0" disallow="pedestrian tram rail_urban rail rail_electric rail_fast ship" speed="36.11" length="38.97" width="3.50" customShape="1" shape="325.73,-377.49 347.91,-383.70 363.26,-387.99"/>
    </edge>
    <edge id="131" from="37" to="27" priority="3" type="highway.residential" spreadType="center" length="38.25">
        <lane id="131_0" index="0" disallow="pedestrian tram rail_urban rail rail_electric rail_fast ship" speed="36.11" length="38.25" width="3.50" customShape="1" shape="385.15,-393.24 403.59,-396.20 422.92,-399.31"/>
    </edge>
    <edge id="1399" from="38" to="39" priority="3" type="highway.residential" spreadType="center" length="0.20" shape="474.77,-249.77 484.62,-245.70">
        <lane id="1399_0" index="0" disallow="pedestrian tram rail_urban rail rail_electric rail_fast ship" speed="36.11" length="0.20" width="3.50" customShape="1" shape="487.58,-245.35 487.78,-245.33"/>
    </edge>
    <edge id="1539" from="38" to="39" priority="3" type="highway.residential" spreadType="center" length="0.73">
        <lane id="1539_0" index="0" disallow="pedestrian tram rail_urban rail rail_electric rail_fast ship" speed="36.11" length="0.73" width="3.50" customShape="1" shape="483.89,-245.75 484.62,-245.70"/>
    </edge>
    <edge id="197" from="37" to="35" priority="3" type="highway.residential" spreadType="center" length="131.93" shape="379.16,-389.98 397.51,-247.85">
        <lane id="197_0" index="0" disallow="pedestrian tram rail_urban rail rail_electric rail_fast ship" speed="36.11" length="131.93" width="3.50" customShape="1" shape="380.53,-384.30 388.66,-318.84 396.79,-253.38"/>
    </edge>
    <edge id="198" from="35" to="37" priority="3" type="highway.residential" spreadType="center" length="131.94" shape="394.04,-247.40 375.69,-389.53">
        <lane id="198_0" index="0" disallow="pedestrian tram rail_urban rail rail_electric rail_fast ship" speed="36.11" length="131.94" width="3.50" customShape="1" shape="393.32,-252.95 385.19,-318.41 377.06,-383.88"/>
    </edge>
    <edge id="203" from="38" to="20" priority="3" type="highway.residential" spreadType="center" length="70.00" shape="472.65,-247.79 462.56,-322.88">
        <lane id="203_0" index="0" disallow="pedestrian tram rail_urban rail rail_electric rail_fast ship" speed="36.11" length="70.00" width="3.50" customShape="1" shape="473.74,-253.78 471.71,-266.63 462.56,-322.88"/>
    </edge>
    <edge id="204" from="28" to="38" priority="3" type="highway.residential" spreadType="center" length="70.00" shape="466.02,-323.42 476.11,-248.26">
        <lane id="204_0" index="0" disallow="pedestrian tram rail_urban rail rail_electric rail_fast ship" speed="36.11" length="70.00" width="3.50" customShape="1" shape="466.02,-323.42 475.16,-267.18 477.19,-254.32"/>
    </edge>
    <edge id="329" from="36" to="31" priority="3" type="highway.residential" spreadType="center" length="60.60" shape="294.07,-245.28 328.67,-180.14">
        <lane id="329_0" index="0" disallow="pedestrian tram rail_urban rail rail_electric rail_fast ship" speed="36.11" length="60.60" width="3.50" customShape="1" shape="296.02,-231.00 297.55,-227.42 300.49,-221.48 303.98,-215.26 308.35,-208.38 312.39,-202.63 328.67,-180.14"/>
    </edge>
    <edge id="330" from="8" to="36" priority="3" type="highway.residential" spreadType="center" length="61.52" shape="325.83,-178.10 290.98,-243.63">
        <lane id="330_0" index="0" disallow="pedestrian tram rail_urban rail rail_electric rail_fast ship" speed="36.11" length="61.52" width="3.50" customShape="1" shape="325.83,-178.10 309.55,-200.58 305.43,-206.44 300.98,-213.47 297.39,-219.85 294.37,-225.96 292.74,-229.77"/>
    </edge>
    <edge id="335" from="32" to="36" priority="3" type="highway.residential" spreadType="center" length="32.89" shape="277.20,-283.77 294.17,-245.05">
        <lane id="335_0" index="0" disallow="pedestrian tram rail_urban rail rail_electric rail_fast ship" speed="36.11" length="32.89" width="3.50" customShape="1" shape="277.20,-283.77 282.66,-268.28 288.14,-252.75"/>
    </edge>
    <edge id="336" from="36" to="23" priority="3" type="highway.residential" spreadType="center" length="32.87" shape="290.97,-243.65 273.90,-282.58">
        <lane id="336_0" index="0" disallow="pedestrian tram rail_urban rail rail_electric rail_fast ship" speed="36.11" length="32.87" width="3.50" customShape="1" shape="284.84,-251.58 279.36,-267.12 273.90,-282.58"/>
    </edge>
    <edge id="357" from="15" to="38" priority="3" type="highway.residential" spreadType="center" length="9.02" shape="493.30,-241.49 473.80,-246.41">
        <lane id="357_0" index="0" disallow="pedestrian tram rail_urban rail rail_electric rail_fast ship" speed="36.11" length="9.02" width="3.50" customShape="1" shape="493.30,-241.49 488.31,-241.89 486.34,-242.05 484.31,-242.22"/>
    </edge>
    <edge id="359" from="35" to="38" priority="3" type="highway.residential" spreadType="center" length="63.78" shape="395.77,-249.38 474.41,-249.82">
        <lane id="359_0" index="0" disallow="pedestrian tram rail_urban rail rail_electric rail_fast ship" speed="36.11" length="63.78" width="3.50" customShape="1" shape="404.65,-246.70 423.28,-247.32 438.95,-247.61 450.65,-247.50 468.40,-246.75"/>
    </edge>
    <edge id="360" from="38" to="35" priority="3" type="highway.residential" spreadType="center" length="63.54" shape="474.43,-246.32 395.78,-245.88">
        <lane id="360_0" index="0" disallow="pedestrian tram rail_urban rail rail_electric rail_fast ship" speed="36.11" length="63.54" width="3.50" customShape="1" shape="468.25,-243.26 450.56,-244.00 438.96,-244.11 423.38,-243.82 404.74,-243.20"/>
    </edge>
    <edge id="362" from="36" to="35" priority="3" type="highway.residential" spreadType="center" length="88.74" shape="292.46,-246.17 395.72,-249.38">
        <lane id="362_0" index="0" disallow="pedestrian tram rail_urban rail rail_electric rail_fast ship" speed="36.11" length="88.74" width="3.50" customShape="1" shape="298.86,-247.22 343.23,-246.87 387.60,-246.52"/>
    </edge>
    <edge id="363" from="35" to="36" priority="3" type="highway.residential" spreadType="center" length="88.74" shape="395.83,-245.88 292.57,-242.67">
        <lane id="363_0" index="0" disallow="pedestrian tram rail_urban rail rail_electric rail_fast ship" speed="36.11" length="88.74" width="3.50" customShape="1" shape="387.57,-243.02 343.20,-243.37 298.83,-243.72"/>
    </edge>

    <junction id="11" type="dead_end" x="325.73" y="-377.49" incLanes="" intLanes="" shape="326.20,-375.81 325.25,-379.18" rightOfWay="edgePriority"/>
    <junction id="15" type="dead_end" x="493.30" y="-241.49" incLanes="" intLanes="" shape="493.44,-243.24 493.16,-239.75" rightOfWay="edgePriority"/>
    <junction id="20" type="dead_end" x="462.56" y="-322.88" incLanes="203_0" intLanes="" shape="460.83,-322.60 464.29,-323.16" rightOfWay="edgePriority"/>
    <junction id="23" type="dead_end" x="273.90" y="-282.58" incLanes="336_0" intLanes="" shape="272.25,-282.00 275.55,-283.17" rightOfWay="edgePriority"/>
    <junction id="27" type="dead_end" x="422.92" y="-399.31" incLanes="131_0" intLanes="" shape="422.65,-401.04 423.20,-397.59" rightOfWay="edgePriority"/>
    <junction id="28" type="dead_end" x="466.02" y="-323.42" incLanes="" intLanes="" shape="464.29,-323.14 467.74,-323.71" rightOfWay="edgePriority"/>
    <junction id="30" type="dead_end" x="344.91" y="-460.58" incLanes="118_0" intLanes="" shape="343.33,-459.83 346.49,-461.34" rightOfWay="edgePriority"/>
    <junction id="31" type="dead_end" x="328.67" y="-180.14" incLanes="329_0" intLanes="" shape="330.09,-181.17 327.25,-179.12" rightOfWay="edgePriority"/>
    <junction id="32" type="dead_end" x="277.20" y="-283.77" incLanes="" intLanes="" shape="275.55,-283.19 278.85,-284.35" rightOfWay="edgePriority"/>
    <junction id="35" type="priority" x="395.77" y="-247.63" incLanes="360_0 197_0 362_0" intLanes=":35_0_0 :35_1_0 :35_2_0 :35_3_0 :35_4_0 :35_5_0" shape="404.83,-241.45 404.59,-248.45 401.52,-248.94 400.38,-249.64 399.50,-250.65 398.88,-251.97 398.53,-253.60 391.59,-252.74 391.39,-250.24 390.87,-249.37 390.07,-248.75 388.98,-248.38 387.61,-248.27 387.56,-241.27">
        <request index="0" response="000000" foes="001000" cont="0"/>
        <request index="1" response="110000" foes="111000" cont="0"/>
        <request index="2" response="100000" foes="100000" cont="0"/>
        <request index="3" response="100011" foes="100011" cont="0"/>
        <request index="4" response="000000" foes="000010" cont="0"/>
        <request index="5" response="000000" foes="001110" cont="0"/>
    </junction>
    <junction id="36" type="priority" x="292.54" y="-244.42" incLanes="330_0 363_0 335_0" intLanes=":36_0_0 :36_1_0 :36_2_0 :36_3_0 :36_4_0 :36_5_0" shape="291.10,-229.15 297.66,-231.62 296.46,-234.79 295.81,-237.39 295.73,-239.40 296.20,-240.84 297.23,-241.69 298.82,-241.97 298.88,-248.97 296.52,-249.10 294.50,-249.48 292.82,-250.09 291.47,-250.93 290.46,-252.01 289.79,-253.33 283.19,-251.00">
        <request index="0" response="000000" foes="001000" cont="0"/>
        <request index="1" response="110000" foes="111000" cont="0"/>
        <request index="2" response="100000" foes="100000" cont="0"/>
        <request index="3" response="100011" foes="100011" cont="0"/>
        <request index="4" response="000000" foes="000010" cont="0"/>
        <request index="5" response="000000" foes="001110" cont="0"/>
    </junction>
    <junction id="37" type="priority" x="377.43" y="-389.73" incLanes="198_0 129_0" intLanes=":37_0_0 :37_1_0 :37_2_0 :37_3_0 :37_4_0" shape="375.32,-383.65 382.27,-384.51 382.27,-388.12 382.66,-389.44 383.32,-390.45 384.24,-391.14 385.43,-391.51 384.87,-394.97 381.28,-394.90 379.81,-395.31 378.57,-396.01 377.55,-397.01 376.75,-398.30 373.60,-396.78 373.16,-394.39 371.76,-393.20 369.56,-392.02 366.57,-390.84 362.79,-389.67 363.73,-386.31 367.08,-387.08 369.86,-387.36 372.07,-387.16 373.72,-386.48 374.81,-385.31">
        <request index="0" response="11100" foes="11100" cont="0"/>
        <request index="1" response="11000" foes="11000" cont="0"/>
        <request index="2" response="00000" foes="00001" cont="0"/>
        <request index="3" response="00000" foes="00011" cont="0"/>
        <request index="4" response="00000" foes="00011" cont="0"/>
    </junction>
    <junction id="38" type="priority" x="474.38" y="-248.07" incLanes="357_0 204_0 359_0" intLanes=":38_0_0 :38_1_0 :38_2_0 :38_3_0 :38_4_0 :38_5_0" shape="484.17,-240.47 484.45,-243.96 488.43,-243.45 493.20,-246.60 483.80,-244.01 483.98,-247.50 481.65,-248.42 480.72,-249.42 479.96,-250.78 479.36,-252.51 478.92,-254.60 472.01,-253.51 471.98,-250.65 471.53,-249.66 470.80,-248.98 469.78,-248.59 468.47,-248.50 468.18,-241.51">
        <request index="0" response="000000" foes="001000" cont="0"/>
        <request index="1" response="110000" foes="111000" cont="0"/>
        <request index="2" response="100000" foes="100000" cont="0"/>
        <request index="3" response="100011" foes="100011" cont="0"/>
        <request index="4" response="000000" foes="000010" cont="0"/>
        <request index="5" response="000000" foes="001110" cont="0"/>
    </junction>
    <junction id="39" type="dead_end" x="484.62" y="-245.70" incLanes="1399_0 1539_0" intLanes="" shape="484.82,-247.44 484.41,-243.97 484.74,-247.45 484.49,-243.96"/>
    <junction id="8" type="dead_end" x="325.83" y="-178.10" incLanes="" intLanes="" shape="327.24,-179.13 324.41,-177.08" rightOfWay="edgePriority"/>

    <connection from="129" to="118" fromLane="0" toLane="0" contPos="-4.00" shape="370.09,-389.90 372.36,-390.70 373.93,-391.59 374.83,-392.38 375.51,-393.37 375.83,-394.53 375.79,-395.73 375.46,-396.89 375.20,-397.48" via=":37_2_0" dir="r" state="M"/>
    <connection from="129" to="131" fromLane="0" toLane="0" contPos="-4.00" shape="370.09,-389.90 377.40,-391.76 383.81,-393.02 384.25,-393.09" via=":37_3_0" dir="s" state="M"/>
    <connection from="129" to="197" fromLane="0" toLane="0" contPos="-4.00" shape="370.09,-389.90 372.47,-390.41 374.29,-390.53 376.09,-390.32 377.24,-389.90 378.25,-389.24 379.09,-388.36 379.71,-387.32 380.30,-385.60 380.53,-384.30" via=":37_4_0" dir="l" state="M"/>
    <connection from="197" to="359" fromLane="0" toLane="0" contPos="-4.00" shape="396.79,-253.38 397.05,-252.01 397.47,-250.69 398.13,-249.47 398.70,-248.73 399.38,-248.11 400.15,-247.60 401.43,-247.07 402.79,-246.78 404.18,-246.69 404.65,-246.70" via=":35_2_0" dir="r" state="m"/>
    <connection from="197" to="363" fromLane="0" toLane="0" contPos="-4.00" shape="396.79,-253.38 396.93,-251.14 396.84,-249.65 396.54,-248.19 395.98,-246.80 395.13,-245.57 394.01,-244.59 392.70,-243.88 391.28,-243.41 389.07,-243.07 387.57,-243.02" via=":35_3_0" dir="l" state="m"/>
    <connection from="198" to="118" fromLane="0" toLane="0" contPos="-4.00" shape="377.06,-383.88 376.79,-387.96 376.60,-392.04 376.21,-394.57 375.62,-396.52 375.20,-397.48" via=":37_0_0" dir="s" state="m"/>
    <connection from="198" to="131" fromLane="0" toLane="0" contPos="-4.00" shape="377.06,-383.88 376.96,-385.59 377.12,-387.30 377.64,-388.93 378.21,-389.92 378.96,-390.79 380.34,-391.81 381.90,-392.51 383.56,-392.97 384.25,-393.09" via=":37_1_0" dir="l" state="m"/>
    <connection from="204" to="1399" fromLane="0" toLane="0" contPos="-4.00" via=":38_2_0" dir="R" state="m"/>
    <connection from="204" to="360" fromLane="0" toLane="0" contPos="-4.00" shape="477.19,-254.32 477.43,-251.99 477.35,-249.64 477.04,-248.11 476.45,-246.66 476.03,-246.00 474.95,-244.88 474.31,-244.43 472.89,-243.78 471.37,-243.41 469.03,-243.24 468.25,-243.26" via=":38_3_0" dir="l" state="m"/>
    <connection from="330" to="336" fromLane="0" toLane="0" contPos="-4.00" shape="290.65,-235.02 287.73,-243.33 284.84,-251.58" via=":36_0_0" dir="s" state="M"/>
    <connection from="330" to="362" fromLane="0" toLane="0" contPos="-4.00" shape="290.65,-235.02 289.92,-237.37 289.52,-239.78 289.52,-241.41 289.87,-243.01 290.19,-243.76 290.64,-244.44 291.18,-245.05 291.81,-245.57 293.24,-246.35 294.80,-246.84 297.23,-247.17 298.86,-247.22" via=":36_1_0" dir="l" state="m"/>
    <connection from="335" to="362" fromLane="0" toLane="0" contPos="-4.00" shape="288.12,-252.79 288.70,-251.54 289.51,-250.41 290.51,-249.46 291.68,-248.71 292.94,-248.14 294.72,-247.63 296.55,-247.34 298.86,-247.22" via=":36_4_0" dir="r" state="M"/>
    <connection from="335" to="329" fromLane="0" toLane="0" contPos="-4.00" shape="288.12,-252.79 291.03,-244.50 293.95,-236.18" via=":36_5_0" dir="s" state="M"/>
    <connection from="357" to="360" fromLane="0" toLane="0" contPos="-4.00" shape="484.31,-242.22 472.83,-243.02 468.25,-243.26" via=":38_0_0" dir="s" state="M"/>
    <connection from="357" to="203" fromLane="0" toLane="0" contPos="-4.00" shape="484.31,-242.22 483.63,-242.30 481.72,-242.73 479.85,-243.52 478.15,-244.69 476.73,-246.16 475.63,-247.83 474.82,-249.58 474.24,-251.39 473.74,-253.78" via=":38_1_0" dir="l" state="m"/>
    <connection from="359" to="203" fromLane="0" toLane="0" contPos="-4.00" shape="468.40,-246.75 468.97,-246.75 469.54,-246.76 470.11,-246.79 470.68,-246.88 471.23,-247.01 471.77,-247.20 472.28,-247.46 472.72,-247.82 473.11,-248.24 473.40,-248.73 473.61,-249.26 473.77,-249.81 473.86,-250.37 473.91,-250.94 473.93,-251.51 473.91,-252.08 473.88,-252.65 473.82,-253.22 473.74,-253.78" via=":38_4_0" dir="r" state="M"/>
    <connection from="359" to="1539" fromLane="0" toLane="0" contPos="-4.00" via=":38_5_0" dir="s" state="M"/>