<routes>
	<vehicle depart="0.1" departLane="0" departPos="117.08745575619687" departSpeed="6.9434874" id="38" type="bicycle">
		<route edges="357 210"/>
	</vehicle>
	<vehicle depart="0.1" departLane="0" departPos="64.19262474234934" departSpeed="5.3563355e-05" id="310" type="bicycle">
		<route edges="151 177"/>
	</vehicle>
	<vehicle depart="0.1" departLane="0" departPos="8.689113116947453" departSpeed="6.9295981" id="344" type="bicycle">
		<route edges="358 361"/>
	</vehicle>
	<vehicle depart="0.1" departLane="0" departPos="4.031273888717423" departSpeed="1.8872974" id="365" type="bicycle">
		<route edges="178 366"/>
	</vehicle>
	<vehicle depart="0.1" departLane="0" departPos="38.99981644276144" departSpeed="0.075085207" id="343" type="bus">
		<route edges="151 177"/>
	</vehicle>
	<vehicle depart="0.1" departLane="0" departPos="68.361614511649" departSpeed="0.0" id="31" type="passenger">
		<route edges="154 177"/>
	</vehicle>
	<vehicle depart="0.1" departLane="0" departPos="24.18209336959565" departSpeed="0.0" id="34" type="passenger">
		<route edges="367 152"/>
	</vehicle>
	<vehicle depart="0.1" departLane="0" departPos="47.98772750167637" departSpeed="1.1285438e-05" id="39" type="passenger">
		<route edges="154 177"/>
	</vehicle>
	<vehicle depart="0.1" departLane="0" departPos="61.8468416921295" departSpeed="0.0" id="313" type="passenger">
		<route edges="154 177"/>
	</vehicle>
	<vehicle depart="0.1" departLane="0" departPos="70.1293299774925" departSpeed="0.0" id="314" type="passenger">
		<route edges="151 177"/>
	</vehicle>
	<vehicle depart="0.1" departLane="0" departPos="54.93122138284881" departSpeed="0.0" id="315" type="passenger">
		<route edges="154 177"/>
	</vehicle>
	<vehicle depart="0.1" departLane="0" departPos="17.295923272983565" departSpeed="0.0" id="317" type="passenger">
		<route edges="367 152"/>
	</vehicle>
	<vehicle depart="0.1" departLane="0" departPos="41.131702790189706" departSpeed="9.7628863e-05" id="318" type="passenger">
		<route edges="154 177"/>
	</vehicle>
	<vehicle depart="0.1" departLane="0" departPos="221.65273150090854" departSpeed="1.8410946" id="319" type="passenger">
		<route edges="357 210"/>
	</vehicle>
	<vehicle depart="0.1" departLane="0" departPos="59.859886317554135" departSpeed="0.00069170152" id="322" type="passenger">
		<route edges="151 177"/>
	</vehicle>
	<vehicle depart="0.1" departLane="0" departPos="34.18699509979201" departSpeed="0.00055497636" id="323" type="passenger">
		<route edges="154 177"/>
	</vehicle>
	<vehicle depart="0.1" departLane="0" departPos="10.484364549392282" departSpeed="0.0" id="326" type="passenger">
		<route edges="367 152"/>
	</vehicle>
	<vehicle depart="0.1" departLane="0" departPos="52.84510718238209" departSpeed="0.0045174121" id="328" type="passenger">
		<route edges="151 177"/>
	</vehicle>
	<vehicle depart="0.1" departLane="0" departPos="27.405789548971494" departSpeed="0.0023098565" id="330" type="passenger">
		<route edges="154 177"/>
	</vehicle>
	<vehicle depart="0.1" departLane="0" departPos="93.54863421854817" departSpeed="0.076364336" id="331" type="passenger">
		<route edges="211 372"/>
	</vehicle>
	<vehicle depart="0.1" departLane="0" departPos="46.1033989981574" departSpeed="0.021008294" id="335" type="passenger">
		<route edges="151 177"/>
	</vehicle>
	<vehicle depart="0.1" departLane="0" departPos="78.94953757906946" departSpeed="2.1042116" id="336" type="passenger">
		<route edges="211 372"/>
	</vehicle>
	<vehicle depart="0.1" departLane="0" departPos="20.715771469932086" departSpeed="0.0081460556" id="338" type="passenger">
		<route edges="154 177"/>
	</vehicle>
	<vehicle depart="0.1" departLane="0" departPos="60.58632647232159" departSpeed="7.7590985" id="340" type="passenger">
		<route edges="211 372"/>
	</vehicle>
	<vehicle depart="0.1" departLane="0" departPos="13.912026834671849" departSpeed="0.024160355" id="346" type="passenger">
		<route edges="154 177"/>
	</vehicle>
	<vehicle depart="0.1" departLane="0" departPos="24.16592432397299" departSpeed="0.21735703" id="347" type="passenger">
		<route edges="151 177"/>
	</vehicle>
	<vehicle depart="0.1" departLane="0" departPos="12.777492040011014" departSpeed="13.407936" id="350" type="passenger">
		<route edges=":37_4 211 372"/>
	</vehicle>
	<vehicle depart="0.1" departLane="0" departPos="30.03536046247509" departSpeed="2.5264728" id="351" type="passenger">
		<route edges="373 358 361"/>
	</vehicle>
	<vehicle depart="0.1" departLane="0" departPos="16.54893705849049" departSpeed="0.47643517" id="354" type="passenger">
		<route edges="151 177"/>
	</vehicle>
	<vehicle depart="0.1" departLane="0" departPos="7.138712835739146" departSpeed="0.059673303" id="355" type="passenger">
		<route edges="154 177"/>
	</vehicle>
	<vehicle depart="0.1" departLane="0" departPos="21.268997763076797" departSpeed="1.8162719" id="356" type="passenger">
		<route edges="373 210 152"/>
	</vehicle>
	<vehicle depart="0.1" departLane="0" departPos="33.03310376875899" departSpeed="8.6410365" id="359" type="passenger">
		<route edges="178 211 372"/>
	</vehicle>
	<vehicle depart="0.1" departLane="0" departPos="12.857541397775769" departSpeed="1.4928472" id="363" type="passenger">
		<route edges="373 358 361"/>
	</vehicle>
	<vehicle depart="0.1" departLane="0" departPos="5.431269147201843" departSpeed="0.47960049" id="368" type="passenger">
		<route edges="373 358 361"/>
	</vehicle>
	<vehicle depart="0.1" departLane="0" departPos="98.22290868288783" departSpeed="0.0" id="35" type="motorcycle">
		<route edges="211 372"/>
	</vehicle>
	<vehicle depart="0.1" departLane="0" departPos="98.61725629458185" departSpeed="0.0" id="325" type="motorcycle">
		<route edges="211 372"/>
	</vehicle>
	<vehicle depart="0.1" departLane="0" departPos="85.84378774116813" departSpeed="0.66911648" id="332" type="motorcycle">
		<route edges="211 372"/>
	</vehicle>
	<vehicle depart="0.1" departLane="0" departPos="89.91785461633219" departSpeed="20.489415" id="341" type="motorcycle">
		<route edges="358 361"/>
	</vehicle>
	<vehicle depart="0.1" departLane="0" departPos="58.39084855809402" departSpeed="11.970529" id="353" type="motorcycle">
		<route edges="178 211 372"/>
	</vehicle>
	<vehicle depart="0.1" departLane="0" departPos="8.741350877916283" departSpeed="0.8020703" id="362" type="motorcycle">
		<route edges="151 177"/>
	</vehicle>
	<vehicle depart="0.1" departLane="0" departPos="232.85784727635925" departSpeed="0.0" id="30" type="truck">
		<route edges="357 210"/>
	</vehicle>
	<vehicle depart="0.1" departLane="0" departPos="33.85811650453424" departSpeed="0.0" id="316" type="truck">
		<route edges="367 152"/>
	</vehicle>
	<vehicle depart="0.1" departLane="0" departPos="104.89207615465637" departSpeed="7.3901866" id="327" type="truck">
		<route edges="357 210"/>
	</vehicle>
	<vehicle depart="0.1" departLane="0" departPos="14.552382567508843" departSpeed="3.4952567" id="364" type="truck">
		<route edges="178 366"/>
	</vehicle>
</routes>
