<routes>
	<vehicle depart="0.1" departLane="0" departPos="6.455516730632142" departSpeed="5.2265505" id="364" type="bicycle">
		<route edges=":64_0 52063 54692"/>
	</vehicle>
	<vehicle depart="0.1" departLane="0" departPos="21.103403238238602" departSpeed="1.0485267" id="31" type="passenger">
		<route edges=":66_3 51902"/>
	</vehicle>
	<vehicle depart="0.1" departLane="0" departPos="11.57617222076542" departSpeed="0.10636635" id="36" type="passenger">
		<route edges="51938 52063"/>
	</vehicle>
	<vehicle depart="0.1" departLane="0" departPos="6.548243202064268" departSpeed="3.2140983" id="312" type="passenger">
		<route edges=":64_5 51941"/>
	</vehicle>
	<vehicle depart="0.1" departLane="0" departPos="2.5" departSpeed="1.6351569" id="340" type="passenger">
		<route edges=":64_3 52063"/>
	</vehicle>
	<vehicle depart="0.1" departLane="0" departPos="21.597974144356545" departSpeed="7.6616317" id="359" type="passenger">
		<route edges=":64_4 51937 52801"/>
	</vehicle>
	<vehicle depart="0.1" departLane="0" departPos="27.729149905229537" departSpeed="10.115492" id="382" type="passenger">
		<route edges=":63_1 51901 51898"/>
	</vehicle>
	<vehicle depart="0.1" departLane="0" departPos="12.844149435099988" departSpeed="9.685267" id="385" type="passenger">
		<route edges=":63_0 51940 52063"/>
	</vehicle>
	<vehicle depart="0.1" departLane="0" departPos="16.350401150777238" departSpeed="0.3769418" id="33" type="motorcycle">
		<route edges="51938 52063"/>
	</vehicle>
	<vehicle depart="0.1" departLane="0" departPos="3.4548116884575615" departSpeed="0.75931615" id="334" type="motorcycle">
		<route edges="51938 52063"/>
	</vehicle>
</routes>
