<!-- generated on Tue Feb  9 22:01:17 2021 by Eclipse SUMO netconvert Version 1.8.0
<configuration xmlns:xsi="http://www.w3.org/2001/XMLSchema-instance" xsi:noNamespaceSchemaLocation="http://sumo.dlr.de/xsd/netconvertConfiguration.xsd">

    <input>
        <node-files value="./converted_scenarios/scenario-factory/DEU_Moelln-4_3_I-1-1/DEU_Moelln-4_3_I-1-1.nod.xml"/>
        <edge-files value="./converted_scenarios/scenario-factory/DEU_Moelln-4_3_I-1-1/DEU_Moelln-4_3_I-1-1.edg.xml"/>
        <connection-files value="./converted_scenarios/scenario-factory/DEU_Moelln-4_3_I-1-1/DEU_Moelln-4_3_I-1-1.con.xml"/>
        <tllogic-files value="./converted_scenarios/scenario-factory/DEU_Moelln-4_3_I-1-1/DEU_Moelln-4_3_I-1-1.tll.xml"/>
        <type-files value="/home/zen/commonroad-interactive-benchmarks/install/commonroad-map-tool/crmapconverter/sumo_map/templates/DEU.typ.xml"/>
    </input>

    <output>
        <output-file value="./converted_scenarios/scenario-factory/DEU_Moelln-4_3_I-1-1/DEU_Moelln-4_3_I-1-1.net.xml"/>
    </output>

    <processing>
        <geometry.remove.keep-edges.explicit value="true"/>
        <geometry.avoid-overlap value="true"/>
        <offset.disable-normalization value="true"/>
    </processing>

    <junctions>
        <no-turnarounds value="true"/>
        <junctions.internal-link-detail value="20"/>
    </junctions>

    <report>
        <aggregate-warnings value="5"/>
    </report>

    <random_number>
        <seed value="1234"/>
    </random_number>

</configuration>
--><net xmlns:xsi="http://www.w3.org/2001/XMLSchema-instance" version="1.6" junctionCornerDetail="5" junctionLinkDetail="20" limitTurnSpeed="5.50" xsi:noNamespaceSchemaLocation="http://sumo.dlr.de/xsd/net_file.xsd">

    <location netOffset="0.00,0.00" convBoundary="740.10,-1038.31,1002.61,-732.34" origBoundary="740.10,-1038.31,1002.61,-732.34" projParameter="!"/>

    <type id="highway.bridleway" priority="1" speed="2.78" allow="pedestrian" oneway="1" width="2.00"/>
    <type id="highway.bus_guideway" priority="1" speed="27.78" allow="bus" oneway="1"/>
    <type id="highway.cycleway" priority="1" speed="8.33" allow="bicycle" oneway="0" width="1.00"/>
    <type id="highway.footway" priority="1" speed="2.78" allow="pedestrian" oneway="1" width="2.00"/>
    <type id="highway.ford" priority="1" speed="2.78" allow="army" oneway="0"/>
    <type id="highway.living_street" priority="2" speed="2.78" disallow="tram rail_urban rail rail_electric rail_fast ship" oneway="0"/>
    <type id="highway.motorway" priority="14" speed="39.44" allow="private emergency authority army vip passenger hov taxi bus coach delivery truck trailer motorcycle evehicle custom1 custom2" oneway="1"/>
    <type id="highway.motorway_link" priority="9" speed="22.22" allow="private emergency authority army vip passenger hov taxi bus coach delivery truck trailer motorcycle evehicle custom1 custom2" oneway="1"/>
    <type id="highway.path" priority="1" speed="2.78" allow="pedestrian bicycle" oneway="0" width="2.00"/>
    <type id="highway.pedestrian" priority="1" speed="2.78" allow="pedestrian" oneway="1" width="2.00"/>
    <type id="highway.primary" priority="12" speed="27.78" disallow="pedestrian tram rail_urban rail rail_electric rail_fast ship" oneway="0"/>
    <type id="highway.primary_link" priority="7" speed="22.22" disallow="pedestrian tram rail_urban rail rail_electric rail_fast ship" oneway="0"/>
    <type id="highway.raceway" priority="15" speed="83.33" allow="vip" oneway="0"/>
    <type id="highway.residential" priority="3" speed="13.89" disallow="pedestrian tram rail_urban rail rail_electric rail_fast ship" oneway="0"/>
    <type id="highway.secondary" priority="11" speed="27.78" disallow="pedestrian tram rail_urban rail rail_electric rail_fast ship" oneway="0"/>
    <type id="highway.secondary_link" priority="6" speed="22.22" disallow="pedestrian tram rail_urban rail rail_electric rail_fast ship" oneway="0"/>
    <type id="highway.service" priority="1" speed="5.56" allow="pedestrian delivery bicycle" oneway="0"/>
    <type id="highway.stairs" priority="1" speed="1.39" allow="pedestrian" oneway="1" width="2.00"/>
    <type id="highway.step" priority="1" speed="1.39" allow="pedestrian" oneway="1" width="2.00"/>
    <type id="highway.steps" priority="1" speed="1.39" allow="pedestrian" oneway="1" width="2.00"/>
    <type id="highway.tertiary" priority="10" speed="22.22" disallow="pedestrian tram rail_urban rail rail_electric rail_fast ship" oneway="0"/>
    <type id="highway.tertiary_link" priority="5" speed="22.22" disallow="pedestrian tram rail_urban rail rail_electric rail_fast ship" oneway="0"/>
    <type id="highway.track" priority="1" speed="5.56" allow="pedestrian motorcycle moped bicycle" oneway="0"/>
    <type id="highway.trunk" priority="13" speed="27.78" disallow="pedestrian bicycle tram rail_urban rail rail_electric rail_fast ship" oneway="0"/>
    <type id="highway.trunk_link" priority="8" speed="22.22" disallow="pedestrian bicycle tram rail_urban rail rail_electric rail_fast ship" oneway="0"/>
    <type id="highway.unclassified" priority="4" speed="13.89" disallow="pedestrian tram rail_urban rail rail_electric rail_fast ship" oneway="0"/>
    <type id="highway.unsurfaced" priority="1" speed="8.33" disallow="tram rail_urban rail rail_electric rail_fast ship" oneway="0"/>
    <type id="railway.highspeed" priority="21" speed="69.44" allow="rail_fast" oneway="1"/>
    <type id="railway.light_rail" priority="19" speed="27.78" allow="rail_urban" oneway="1"/>
    <type id="railway.preserved" priority="16" speed="27.78" allow="rail" oneway="1"/>
    <type id="railway.rail" priority="20" speed="44.44" allow="rail" oneway="1"/>
    <type id="railway.subway" priority="18" speed="27.78" allow="rail_urban" oneway="1"/>
    <type id="railway.tram" priority="17" speed="13.89" allow="tram" oneway="1"/>

    <edge id=":17_0" function="internal">
        <lane id=":17_0_0" index="0" disallow="pedestrian tram rail_urban rail rail_electric rail_fast ship" speed="36.11" length="3.32" width="3.50" shape="855.37,-828.97 858.17,-827.18"/>
    </edge>
    <edge id=":18_0" function="internal">
        <lane id=":18_0_0" index="0" disallow="pedestrian tram rail_urban rail rail_electric rail_fast ship" speed="36.11" length="2.96" width="3.50" shape="846.24,-852.44 847.49,-855.12"/>
    </edge>
    <edge id=":3_0" function="internal">
        <lane id=":3_0_0" index="0" disallow="pedestrian tram rail_urban rail rail_electric rail_fast ship" speed="36.11" length="0.10" width="3.50" shape="849.98,-852.28 849.98,-852.28"/>
    </edge>
    <edge id=":34_0" function="internal">
        <lane id=":34_0_0" index="0" disallow="pedestrian tram rail_urban rail rail_electric rail_fast ship" speed="36.11" length="3.79" width="3.50" shape="976.09,-899.78 972.83,-901.72"/>
    </edge>
    <edge id=":46_0" function="internal">
        <lane id=":46_0_0" index="0" disallow="pedestrian tram rail_urban rail rail_electric rail_fast ship" speed="36.11" length="3.32" width="3.50" shape="856.31,-824.22 853.51,-826.01"/>
    </edge>
    <edge id=":62_0" function="internal">
        <lane id=":62_0_0" index="0" disallow="pedestrian tram rail_urban rail rail_electric rail_fast ship" speed="36.11" length="3.46" width="3.50" shape="974.74,-904.66 977.71,-902.88"/>
    </edge>
    <edge id=":63_0" function="internal">
        <lane id=":63_0_0" index="0" disallow="pedestrian tram rail_urban rail rail_electric rail_fast ship" speed="36.11" length="38.22" width="3.50" shape="942.47,-895.63 926.46,-905.08 909.37,-914.73"/>
    </edge>
    <edge id=":63_1" function="internal">
        <lane id=":63_1_0" index="0" disallow="pedestrian tram rail_urban rail rail_electric rail_fast ship" speed="11.13" length="26.71" width="3.50" shape="942.47,-895.63 941.40,-896.29 938.32,-898.37 935.37,-900.72 933.52,-902.51 931.85,-904.49 931.09,-905.63 930.43,-906.82 929.88,-908.10 929.48,-909.47 929.27,-910.89 929.27,-912.35 929.48,-913.79 929.90,-915.18 930.49,-916.50"/>
    </edge>
    <edge id=":63_2" function="internal">
        <lane id=":63_2_0" index="0" disallow="pedestrian tram rail_urban rail rail_electric rail_fast ship" speed="9.95" length="21.47" width="3.50" shape="933.61,-914.91 933.14,-913.87 932.86,-912.84 932.75,-911.78 932.82,-910.71 933.05,-909.67 933.42,-908.67 933.91,-907.71 934.49,-906.81 935.13,-905.95 936.57,-904.37 938.15,-902.93 940.70,-900.97 943.37,-899.19 944.28,-898.63"/>
    </edge>
    <edge id=":63_3" function="internal">
        <lane id=":63_3_0" index="0" disallow="pedestrian tram rail_urban rail rail_electric rail_fast ship" speed="10.86" length="27.26" width="3.50" shape="933.61,-914.91 932.87,-913.69 932.03,-912.62 931.04,-911.69 929.93,-910.91 928.70,-910.32 927.41,-909.92 926.07,-909.69 924.71,-909.61 923.35,-909.67 920.66,-910.10 918.04,-910.82 914.24,-912.30 910.57,-914.08 909.37,-914.73"/>
    </edge>
    <edge id=":63_4" function="internal">
        <lane id=":63_4_0" index="0" disallow="pedestrian tram rail_urban rail rail_electric rail_fast ship" speed="9.65" length="21.60" width="3.50" shape="911.06,-917.80 912.10,-917.23 915.30,-915.66 918.56,-914.35 920.74,-913.69 922.96,-913.26 924.00,-913.17 925.05,-913.17 926.06,-913.28 927.01,-913.51 927.87,-913.85 928.66,-914.33 929.35,-914.93 929.97,-915.65 930.49,-916.50"/>
    </edge>
    <edge id=":63_5" function="internal">
        <lane id=":63_5_0" index="0" disallow="pedestrian tram rail_urban rail rail_electric rail_fast ship" speed="36.11" length="38.36" width="3.50" shape="911.06,-917.80 928.21,-908.11 944.28,-898.63"/>
    </edge>
    <edge id=":64_0" function="internal">
        <lane id=":64_0_0" index="0" disallow="pedestrian tram rail_urban rail rail_electric rail_fast ship" speed="11.06" length="28.90" width="3.50" shape="902.82,-918.35 899.67,-919.88 897.55,-920.66 895.38,-921.21 893.17,-921.48 892.12,-921.49 891.06,-921.41 890.01,-921.24 888.99,-920.97 887.99,-920.61 887.03,-920.16 886.11,-919.61 885.25,-919.01 883.58,-917.54 882.11,-915.85 880.81,-914.01 879.11,-910.97"/>
    </edge>
    <edge id=":64_1" function="internal">
        <lane id=":64_1_0" index="0" disallow="pedestrian tram rail_urban rail rail_electric rail_fast ship" speed="36.11" length="38.84" width="3.50" shape="902.82,-918.35 885.77,-927.68 868.75,-936.99"/>
    </edge>
    <edge id=":64_2" function="internal">
        <lane id=":64_2_0" index="0" disallow="pedestrian tram rail_urban rail rail_electric rail_fast ship" speed="36.11" length="38.84" width="3.50" shape="870.42,-940.07 887.45,-930.75 904.49,-921.42"/>
    </edge>
    <edge id=":64_3" function="internal">
        <lane id=":64_3_0" index="0" disallow="pedestrian tram rail_urban rail rail_electric rail_fast ship" speed="12.40" length="34.46" width="3.50" shape="870.42,-940.07 872.55,-938.81 874.61,-937.38 876.54,-935.74 878.30,-933.88 879.82,-931.77 881.01,-929.47 881.49,-928.20 881.85,-926.90 882.25,-924.35 882.27,-921.75 881.96,-919.21 881.39,-916.75 880.59,-914.36 879.11,-910.97"/>
    </edge>
    <edge id=":64_4" function="internal">
        <lane id=":64_4_0" index="0" disallow="pedestrian tram rail_urban rail rail_electric rail_fast ship" speed="11.41" length="29.01" width="3.50" shape="875.97,-912.53 877.27,-915.48 877.95,-917.52 878.45,-919.62 878.71,-921.75 878.70,-923.90 878.37,-926.02 878.08,-927.06 877.71,-928.06 876.73,-929.98 875.48,-931.72 874.00,-933.28 872.36,-934.67 870.60,-935.90 868.75,-936.99"/>
    </edge>
    <edge id=":64_5" function="internal">
        <lane id=":64_5_0" index="0" disallow="pedestrian tram rail_urban rail rail_electric rail_fast ship" speed="12.07" length="34.63" width="3.50" shape="875.97,-912.53 877.93,-916.01 879.47,-918.19 881.22,-920.20 883.21,-921.96 884.30,-922.73 885.45,-923.40 886.66,-923.97 887.91,-924.42 889.20,-924.76 890.51,-924.98 891.84,-925.08 893.17,-925.06 895.81,-924.74 898.39,-924.09 900.89,-923.17 904.49,-921.42"/>
    </edge>
    <edge id=":65_0" function="internal">
        <lane id=":65_0_0" index="0" disallow="pedestrian tram rail_urban rail rail_electric rail_fast ship" speed="10.48" length="25.72" width="3.50" shape="850.89,-946.68 848.01,-948.09 846.02,-948.88 843.96,-949.50 841.86,-949.91 840.79,-950.01 839.72,-950.03 838.65,-949.96 837.59,-949.80 836.55,-949.54 835.55,-949.17 834.58,-948.70 833.67,-948.13 832.83,-947.47 832.04,-946.74 830.66,-945.10 829.51,-943.29 829.01,-942.34"/>
    </edge>
    <edge id=":65_1" function="internal">
        <lane id=":65_1_0" index="0" disallow="pedestrian tram rail_urban rail rail_electric rail_fast ship" speed="12.40" length="34.50" width="3.50" shape="850.89,-946.68 849.79,-947.30 846.71,-949.33 844.74,-950.94 842.94,-952.76 841.36,-954.81 840.08,-957.06 839.55,-958.30 839.14,-959.55 838.83,-960.84 838.61,-962.17 838.49,-964.74 838.72,-967.31 839.24,-969.81 840.00,-972.22 841.44,-975.62"/>
    </edge>
    <edge id=":65_2" function="internal">
        <lane id=":65_2_0" index="0" disallow="pedestrian tram rail_urban rail rail_electric rail_fast ship" speed="11.42" length="29.08" width="3.50" shape="844.60,-974.10 843.33,-971.13 842.69,-969.07 842.25,-966.96 842.06,-964.81 842.16,-962.66 842.33,-961.60 842.59,-960.55 842.93,-959.53 843.35,-958.53 844.42,-956.66 845.74,-954.95 847.25,-953.42 848.92,-952.05 851.63,-950.28 852.54,-949.76"/>
    </edge>
    <edge id=":65_3" function="internal">
        <lane id=":65_3_0" index="0" disallow="pedestrian tram rail_urban rail rail_electric rail_fast ship" speed="36.11" length="35.38" width="3.50" shape="844.60,-974.10 836.81,-958.23 829.01,-942.34"/>
    </edge>
    <edge id=":65_4" function="internal">
        <lane id=":65_4_0" index="0" disallow="pedestrian tram rail_urban rail rail_electric rail_fast ship" speed="36.11" length="35.34" width="3.50" shape="825.87,-943.89 833.66,-959.77 841.44,-975.62"/>
    </edge>
    <edge id=":65_5" function="internal">
        <lane id=":65_5_0" index="0" disallow="pedestrian tram rail_urban rail rail_electric rail_fast ship" speed="11.53" length="31.43" width="3.50" shape="825.87,-943.89 826.48,-945.05 827.85,-947.22 829.51,-949.22 830.50,-950.18 831.56,-951.02 832.71,-951.77 833.93,-952.40 835.21,-952.90 836.53,-953.26 837.87,-953.49 839.21,-953.60 840.54,-953.60 841.89,-953.49 844.41,-953.03 846.86,-952.31 849.22,-951.38 852.54,-949.76"/>
    </edge>
    <edge id=":66_0" function="internal">
        <lane id=":66_0_0" index="0" disallow="pedestrian tram rail_urban rail rail_electric rail_fast ship" speed="9.60" length="21.29" width="3.49" shape="952.81,-913.25 950.00,-914.79 947.12,-916.16 945.14,-916.96 943.12,-917.61 942.08,-917.86 941.03,-918.05 939.98,-918.16 938.91,-918.18 937.86,-918.07 936.83,-917.80 935.86,-917.36 935.00,-916.74 934.27,-915.97 933.70,-915.07"/>
    </edge>
    <edge id=":66_1" function="internal">
        <lane id=":66_1_0" index="0" disallow="pedestrian tram rail_urban rail rail_electric rail_fast ship" speed="12.40" length="34.53" width="3.50" shape="952.81,-913.25 949.57,-915.33 947.57,-916.92 945.72,-918.68 944.08,-920.64 942.72,-922.81 942.16,-923.96 941.70,-925.15 941.33,-926.38 941.07,-927.63 940.84,-930.17 940.99,-932.72 941.46,-935.24 942.20,-937.68 943.15,-940.06 944.28,-942.35"/>
    </edge>
    <edge id=":66_2" function="internal">
        <lane id=":66_2_0" index="0" disallow="pedestrian tram rail_urban rail rail_electric rail_fast ship" speed="11.41" length="29.10" width="3.50" shape="947.38,-940.72 946.38,-938.71 945.56,-936.66 944.93,-934.57 944.53,-932.46 944.41,-930.36 944.60,-928.25 944.81,-927.27 945.11,-926.28 945.49,-925.31 945.92,-924.40 947.06,-922.59 948.43,-920.96 950.00,-919.46 951.72,-918.11 954.56,-916.28"/>
    </edge>
    <edge id=":66_3" function="internal">
        <lane id=":66_3_0" index="0" disallow="pedestrian tram rail_urban rail rail_electric rail_fast ship" speed="36.11" length="29.07" width="3.49" shape="947.38,-940.72 940.53,-927.89 933.70,-915.07"/>
    </edge>
    <edge id=":66_4" function="internal">
        <lane id=":66_4_0" index="0" disallow="pedestrian tram rail_urban rail rail_electric rail_fast ship" speed="36.11" length="29.05" width="3.50" shape="930.61,-916.72 937.44,-929.54 944.28,-942.35"/>
    </edge>
    <edge id=":66_5" function="internal">
        <lane id=":66_5_0" index="0" disallow="pedestrian tram rail_urban rail rail_electric rail_fast ship" speed="10.76" length="26.90" width="3.50" shape="930.61,-916.73 931.37,-917.94 932.34,-919.07 933.50,-920.04 934.82,-920.79 936.22,-921.29 937.64,-921.58 939.04,-921.67 940.40,-921.63 941.73,-921.47 943.05,-921.21 945.51,-920.52 947.89,-919.63 951.28,-918.06 954.56,-916.28"/>
    </edge>
    <edge id=":67_0" function="internal">
        <lane id=":67_0_0" index="0" disallow="pedestrian tram rail_urban rail rail_electric rail_fast ship" speed="36.11" length="31.86" width="3.50" shape="991.18,-866.23 974.34,-876.40 963.91,-882.70"/>
    </edge>
    <edge id=":67_1" function="internal">
        <lane id=":67_1_0" index="0" disallow="pedestrian tram rail_urban rail rail_electric rail_fast ship" speed="10.18" length="23.30" width="3.50" shape="991.18,-866.23 983.66,-870.97 982.79,-872.12 982.29,-873.47 982.12,-874.90 982.22,-876.33 982.52,-877.74 982.94,-879.12 984.08,-881.78 985.45,-884.31"/>
    </edge>
    <edge id=":67_2" function="internal">
        <lane id=":67_2_0" index="0" disallow="pedestrian tram rail_urban rail rail_electric rail_fast ship" speed="6.31" length="9.40" width="3.49" shape="988.39,-882.42 986.45,-873.22"/>
    </edge>
    <edge id=":67_3" function="internal">
        <lane id=":67_3_0" index="0" disallow="pedestrian tram rail_urban rail rail_electric rail_fast ship" speed="10.96" length="27.52" width="3.50" shape="988.40,-882.45 987.71,-881.40 986.80,-880.33 985.73,-879.36 984.53,-878.56 983.22,-877.95 981.86,-877.53 980.48,-877.30 979.11,-877.23 977.77,-877.29 976.47,-877.46 975.17,-877.71 972.75,-878.41 970.41,-879.31 967.08,-880.90 963.91,-882.70"/>
    </edge>
    <edge id=":67_4" function="internal">
        <lane id=":67_4_0" index="0" disallow="pedestrian tram rail_urban rail rail_electric rail_fast ship" speed="9.84" length="22.09" width="3.50" shape="965.70,-885.70 968.44,-884.14 971.28,-882.75 973.23,-881.95 975.23,-881.31 976.25,-881.06 977.29,-880.88 978.33,-880.77 979.39,-880.75 980.43,-880.85 981.46,-881.08 982.44,-881.46 983.35,-881.99 984.16,-882.66 984.86,-883.44 985.45,-884.31"/>
    </edge>
    <edge id=":67_5" function="internal">
        <lane id=":67_5_0" index="0" disallow="pedestrian tram rail_urban rail rail_electric rail_fast ship" speed="36.11" length="29.36" width="3.49" shape="965.71,-885.69 990.84,-870.51"/>
    </edge>
    <edge id=":69_0" function="internal">
        <lane id=":69_0_0" index="0" disallow="pedestrian tram rail_urban rail rail_electric rail_fast ship" speed="36.11" length="35.62" width="3.50" shape="828.92,-942.15 816.21,-916.85 812.88,-910.35"/>
    </edge>
    <edge id=":69_1" function="internal">
        <lane id=":69_1_0" index="0" disallow="pedestrian tram rail_urban rail rail_electric rail_fast ship" speed="11.59" length="32.41" width="3.50" shape="828.92,-942.15 827.60,-939.75 826.06,-937.54 824.25,-935.54 823.23,-934.66 822.13,-933.87 820.97,-933.20 819.74,-932.65 818.45,-932.23 817.14,-931.94 815.80,-931.79 814.45,-931.76 813.10,-931.85 810.45,-932.31 807.86,-933.09 805.37,-934.12 801.77,-935.98"/>
    </edge>
    <edge id=":69_2" function="internal">
        <lane id=":69_2_0" index="0" disallow="pedestrian tram rail_urban rail rail_electric rail_fast ship" speed="10.53" length="26.59" width="3.50" shape="803.51,-939.02 806.65,-937.38 808.77,-936.51 810.94,-935.84 813.15,-935.44 814.21,-935.36 815.28,-935.37 816.33,-935.48 817.36,-935.69 818.35,-936.00 819.31,-936.41 820.22,-936.92 821.09,-937.53 821.88,-938.20 823.38,-939.83 824.66,-941.67 825.78,-943.70"/>
    </edge>
    <edge id=":69_3" function="internal">
        <lane id=":69_3_0" index="0" disallow="pedestrian tram rail_urban rail rail_electric rail_fast ship" speed="12.40" length="34.13" width="3.50" shape="803.51,-939.02 804.64,-938.34 807.74,-936.19 809.72,-934.50 811.52,-932.61 813.11,-930.49 814.39,-928.17 814.91,-926.89 815.31,-925.59 815.60,-924.27 815.78,-922.93 815.86,-921.58 815.83,-920.21 815.49,-917.61 814.84,-915.08 813.95,-912.65 812.88,-910.35"/>
    </edge>
    <edge id=":69_4" function="internal">
        <lane id=":69_4_0" index="0" disallow="pedestrian tram rail_urban rail rail_electric rail_fast ship" speed="11.42" length="28.74" width="3.50" shape="809.76,-911.93 810.69,-913.93 811.45,-916.01 812.00,-918.15 812.27,-920.34 812.29,-921.45 812.22,-922.55 812.07,-923.65 811.83,-924.73 811.49,-925.78 811.07,-926.80 810.00,-928.74 808.67,-930.50 807.14,-932.09 805.45,-933.52 802.72,-935.41 801.77,-935.98"/>
    </edge>
    <edge id=":69_5" function="internal">
        <lane id=":69_5_0" index="0" disallow="pedestrian tram rail_urban rail rail_electric rail_fast ship" speed="36.11" length="35.58" width="3.50" shape="809.76,-911.93 813.09,-918.44 825.78,-943.70"/>
    </edge>
    <edge id=":70_0" function="internal">
        <lane id=":70_0_0" index="0" disallow="pedestrian tram rail_urban rail rail_electric rail_fast ship" speed="36.11" length="35.85" width="3.50" shape="939.79,-766.91 933.54,-772.35 923.68,-781.27 918.94,-785.15 914.79,-788.14 912.25,-789.79"/>
    </edge>
    <edge id=":70_1" function="internal">
        <lane id=":70_1_0" index="0" disallow="pedestrian tram rail_urban rail rail_electric rail_fast ship" speed="12.90" length="35.20" width="3.50" shape="939.79,-766.91 937.85,-768.67 936.20,-770.56 934.80,-772.64 933.72,-774.90 932.98,-777.29 932.61,-779.77 932.57,-782.28 932.85,-784.77 933.38,-787.22 934.57,-790.79 936.11,-794.22 937.92,-797.51 938.57,-798.58"/>
    </edge>
    <edge id=":70_2" function="internal">
        <lane id=":70_2_0" index="0" disallow="pedestrian tram rail_urban rail rail_electric rail_fast ship" speed="11.95" length="30.07" width="3.50" shape="941.54,-796.74 940.97,-795.79 939.33,-792.83 937.95,-789.79 936.88,-786.66 936.40,-784.57 936.14,-782.45 936.13,-780.35 936.40,-778.30 936.97,-776.32 937.84,-774.45 938.98,-772.72 940.36,-771.12 941.96,-769.65"/>
    </edge>
    <edge id=":70_3" function="internal">
        <lane id=":70_3_0" index="0" disallow="pedestrian tram rail_urban rail rail_electric rail_fast ship" speed="12.24" length="34.41" width="3.50" shape="941.54,-796.74 940.12,-794.61 938.52,-792.57 936.72,-790.67 934.68,-788.96 932.44,-787.54 931.18,-786.94 929.90,-786.45 928.58,-786.08 927.23,-785.82 925.87,-785.68 924.51,-785.66 923.13,-785.74 920.53,-786.19 918.00,-786.96 915.59,-787.97 912.25,-789.79"/>
    </edge>
    <edge id=":70_4" function="internal">
        <lane id=":70_4_0" index="0" disallow="pedestrian tram rail_urban rail rail_electric rail_fast ship" speed="11.25" length="28.85" width="3.50" shape="914.07,-792.78 916.98,-791.19 919.02,-790.33 921.15,-789.69 923.34,-789.31 924.45,-789.24 925.56,-789.26 926.66,-789.38 927.75,-789.58 928.82,-789.89 929.86,-790.28 930.86,-790.76 932.74,-791.95 934.44,-793.38 935.96,-794.99 937.34,-796.74 938.57,-798.58"/>
    </edge>
    <edge id=":70_5" function="internal">
        <lane id=":70_5_0" index="0" disallow="pedestrian tram rail_urban rail rail_electric rail_fast ship" speed="36.11" length="36.28" width="3.50" shape="914.07,-792.78 916.72,-791.07 920.97,-788.00 925.82,-784.03 935.77,-775.05 941.96,-769.65"/>
    </edge>

    <edge id="51898" from="66" to="21" priority="3" type="highway.residential" spreadType="center" length="70.00" shape="942.28,-924.75 977.22,-1004.12">
        <lane id="51898_0" index="0" disallow="pedestrian tram rail_urban rail rail_electric rail_fast ship" speed="36.11" length="70.00" width="3.50" customShape="1" shape="944.28,-942.35 976.19,-1002.20 977.22,-1004.12"/>
    </edge>
    <edge id="51899" from="29" to="66" priority="3" type="highway.residential" spreadType="center" length="70.01" shape="980.31,-1002.49 945.48,-923.34">
        <lane id="51899_0" index="0" disallow="pedestrian tram rail_urban rail rail_electric rail_fast ship" speed="36.11" length="70.01" width="3.50" customShape="1" shape="980.31,-1002.49 979.28,-1000.55 947.37,-940.71"/>
    </edge>
    <edge id="51901" from="63" to="66" priority="3" type="highway.residential" spreadType="center" length="0.30" shape="927.34,-910.97 942.80,-925.45">
        <lane id="51901_0" index="0" disallow="pedestrian tram rail_urban rail rail_electric rail_fast ship" speed="36.11" length="0.30" width="3.50" customShape="1" shape="930.49,-916.50 930.55,-916.61 930.63,-916.76"/>
    </edge>
    <edge id="51902" from="66" to="63" priority="3" type="highway.residential" spreadType="center" length="0.25" shape="945.19,-922.90 929.74,-908.41">
        <lane id="51902_0" index="0" disallow="pedestrian tram rail_urban rail rail_electric rail_fast ship" speed="36.11" length="0.25" width="3.49" customShape="1" shape="933.70,-915.07 933.64,-914.96 933.58,-914.85"/>
    </edge>
    <edge id="51937" from="64" to="65" priority="3" type="highway.residential" spreadType="center" length="20.33" shape="882.55,-921.99 839.64,-954.03">
        <lane id="51937_0" index="0" disallow="pedestrian tram rail_urban rail rail_electric rail_fast ship" speed="36.11" length="20.33" width="3.50" customShape="1" shape="868.75,-936.99 859.82,-941.83 850.88,-946.68"/>
    </edge>
    <edge id="51938" from="65" to="64" priority="3" type="highway.residential" spreadType="center" length="20.36" shape="841.73,-956.84 884.64,-924.79">
        <lane id="51938_0" index="0" disallow="pedestrian tram rail_urban rail rail_electric rail_fast ship" speed="36.11" length="20.36" width="3.50" customShape="1" shape="852.54,-949.76 861.49,-944.91 870.44,-940.06"/>
    </edge>
    <edge id="51940" from="63" to="64" priority="3" type="highway.residential" spreadType="center" length="7.51" shape="928.03,-908.02 883.02,-921.73">
        <lane id="51940_0" index="0" disallow="pedestrian tram rail_urban rail rail_electric rail_fast ship" speed="36.11" length="7.51" width="3.50" customShape="1" shape="909.37,-914.73 906.08,-916.54 902.80,-918.36"/>
    </edge>
    <edge id="51941" from="64" to="63" priority="3" type="highway.residential" spreadType="center" length="7.50" shape="884.04,-925.08 929.05,-911.36">
        <lane id="51941_0" index="0" disallow="pedestrian tram rail_urban rail rail_electric rail_fast ship" speed="36.11" length="7.50" width="3.50" customShape="1" shape="904.49,-921.42 907.77,-919.61 911.06,-917.80"/>
    </edge>
    <edge id="51943" from="67" to="63" priority="3" type="highway.residential" spreadType="center" length="25.04" shape="976.83,-879.53 927.66,-908.18">
        <lane id="51943_0" index="0" disallow="pedestrian tram rail_urban rail rail_electric rail_fast ship" speed="36.11" length="25.04" width="3.50" customShape="1" shape="963.91,-882.70 953.18,-889.17 942.47,-895.63"/>
    </edge>
    <edge id="51944" from="63" to="67" priority="3" type="highway.residential" spreadType="center" length="25.03" shape="929.42,-911.20 978.59,-882.55">
        <lane id="51944_0" index="0" disallow="pedestrian tram rail_urban rail rail_electric rail_fast ship" speed="36.11" length="25.03" width="3.50" customShape="1" shape="944.28,-898.63 954.99,-892.16 965.71,-885.69"/>
    </edge>
    <edge id="51946" from="51" to="67" priority="3" type="highway.residential" spreadType="center" length="0.20" shape="989.30,-867.37 976.33,-879.93">
        <lane id="51946_0" index="0" disallow="pedestrian tram rail_urban rail rail_electric rail_fast ship" speed="36.11" length="0.20" width="3.49" customShape="1" shape="991.35,-866.13 991.18,-866.23"/>
    </edge>
    <edge id="52062" from="18" to="64" priority="3" type="highway.residential" spreadType="center" length="64.09" shape="846.83,-853.79 882.05,-924.20">
        <lane id="52062_0" index="0" disallow="pedestrian tram rail_urban rail rail_electric rail_fast ship" speed="36.11" length="64.09" width="3.50" customShape="1" shape="847.49,-855.12 861.41,-883.19 875.98,-912.53"/>
    </edge>
    <edge id="52063" from="64" to="3" priority="3" type="highway.residential" spreadType="center" length="65.52" shape="885.18,-922.64 849.98,-852.28">
        <lane id="52063_0" index="0" disallow="pedestrian tram rail_urban rail rail_electric rail_fast ship" speed="36.11" length="65.52" width="3.50" customShape="1" shape="879.11,-910.97 864.55,-881.63 849.98,-852.28"/>
    </edge>
    <edge id="52135" from="70" to="50" priority="3" type="highway.residential" spreadType="center" length="70.01" shape="929.85,-786.66 975.52,-858.04">
        <lane id="52135_0" index="0" disallow="pedestrian tram rail_urban rail rail_electric rail_fast ship" speed="36.11" length="70.01" width="3.50" customShape="1" shape="938.57,-798.58 961.50,-835.48 975.52,-858.04"/>
    </edge>
    <edge id="52136" from="52" to="70" priority="3" type="highway.residential" spreadType="center" length="70.01" shape="978.49,-856.18 932.80,-784.78">
        <lane id="52136_0" index="0" disallow="pedestrian tram rail_urban rail rail_electric rail_fast ship" speed="36.11" length="70.01" width="3.50" customShape="1" shape="978.49,-856.18 964.48,-833.63 941.54,-796.72"/>
    </edge>
    <edge id="52230" from="70" to="46" priority="3" type="highway.residential" spreadType="center" length="65.69" shape="930.55,-784.20 854.90,-825.09">
        <lane id="52230_0" index="0" disallow="pedestrian tram rail_urban rail rail_electric rail_fast ship" speed="36.11" length="65.69" width="3.50" customShape="1" shape="912.25,-789.79 883.57,-807.44 856.31,-824.22"/>
    </edge>
    <edge id="52231" from="17" to="70" priority="3" type="highway.residential" spreadType="center" length="65.65" shape="856.76,-828.05 932.21,-787.27">