<routes>
	<vehicle depart="0.1" departLane="0" departPos="9.053652499280938" departSpeed="1.5477358" id="37" type="bicycle">
		<route edges=":52_1 73 204"/>
	</vehicle>
	<vehicle depart="0.1" departLane="0" departPos="55.77500013023737" departSpeed="0.00060895236" id="343" type="bicycle">
		<route edges="202 205"/>
	</vehicle>
	<vehicle depart="0.1" departLane="0" departPos="12.13652226259433" departSpeed="0.92541115" id="371" type="bicycle">
		<route edges="320 944"/>
	</vehicle>
	<vehicle depart="0.1" departLane="0" departPos="20.381664598019363" departSpeed="5.8042436" id="374" type="bicycle">
		<route edges="202 205"/>
	</vehicle>
	<vehicle depart="0.1" departLane="0" departPos="68.82099626469356" departSpeed="0.0" id="339" type="bus">
		<route edges="202 205"/>
	</vehicle>
	<vehicle depart="0.1" departLane="0" departPos="6.2" departSpeed="0.76997398" id="361" type="bus">
		<route edges="73 204"/>
	</vehicle>
	<vehicle depart="0.1" departLane="0" departPos="12.506901973320836" departSpeed="0.20493305" id="383" type="bus">
		<route edges="202 205"/>
	</vehicle>
	<vehicle depart="0.1" departLane="0" departPos="69.2826481815388" departSpeed="0.0" id="32" type="passenger">
		<route edges="320 944"/>
	</vehicle>
	<vehicle depart="0.1" departLane="0" departPos="7.828676159636395" departSpeed="7.1547169" id="34" type="passenger">
		<route edges=":48_9 115 118"/>
	</vehicle>
	<vehicle depart="0.1" departLane="0" departPos="62.10871102044108" departSpeed="0.00070628172" id="36" type="passenger">
		<route edges="320 944"/>
	</vehicle>
	<vehicle depart="0.1" departLane="0" departPos="50.31957539847531" departSpeed="5.8379816" id="310" type="passenger">
		<route edges="73 204"/>
	</vehicle>
	<vehicle depart="0.1" departLane="0" departPos="39.81300182401517" departSpeed="4.3200629" id="311" type="passenger">
		<route edges="73 204"/>
	</vehicle>
	<vehicle depart="0.1" departLane="0" departPos="22.35747732354872" departSpeed="0.0" id="312" type="passenger">
		<route edges="205 115"/>
	</vehicle>
	<vehicle depart="0.1" departLane="0" departPos="14.866744011753077" departSpeed="3.8005971e-05" id="315" type="passenger">
		<route edges="205 115"/>
	</vehicle>
	<vehicle depart="0.1" departLane="0" departPos="11.465222751954773" departSpeed="8.9583089" id="317" type="passenger">
		<route edges="115 118"/>
	</vehicle>
	<vehicle depart="0.1" departLane="0" departPos="8.26005126763906" departSpeed="10.387354" id="321" type="passenger">
		<route edges="74 689"/>
	</vehicle>
	<vehicle depart="0.1" departLane="0" departPos="15.708044027843606" departSpeed="1.0889948" id="327" type="passenger">
		<route edges="73 204"/>
	</vehicle>
	<vehicle depart="0.1" departLane="0" departPos="55.3712291584328" departSpeed="0.0052011351" id="332" type="passenger">
		<route edges="320 944"/>
	</vehicle>
	<vehicle depart="0.1" departLane="0" departPos="151.6129312288134" departSpeed="23.530403" id="334" type="passenger">
		<route edges="114 12 9"/>
	</vehicle>
	<vehicle depart="0.1" departLane="0" departPos="58.19549188970713" departSpeed="16.940106" id="335" type="passenger">
		<route edges="319"/>
	</vehicle>
	<vehicle depart="0.1" departLane="0" departPos="11.840853351360998" departSpeed="7.2019678" id="337" type="passenger">
		<route edges=":52_2 319"/>
	</vehicle>
	<vehicle depart="0.1" departLane="0" departPos="322.464538445392" departSpeed="24.917444" id="338" type="passenger">
		<route edges="114 12 9"/>
	</vehicle>
	<vehicle depart="0.1" departLane="0" departPos="61.01985395906657" departSpeed="0.0" id="341" type="passenger">
		<route edges="13 204"/>
	</vehicle>
	<vehicle depart="0.1" departLane="0" departPos="48.449555033324145" departSpeed="0.021752544" id="342" type="passenger">
		<route edges="320 944"/>
	</vehicle>
	<vehicle depart="0.1" departLane="0" departPos="53.79774103639361" departSpeed="0.023777662" id="345" type="passenger">
		<route edges="13 204"/>
	</vehicle>
	<vehicle depart="0.1" departLane="0" departPos="46.270903370885776" departSpeed="0.21935665" id="348" type="passenger">
		<route edges="13 204"/>
	</vehicle>
	<vehicle depart="0.1" departLane="0" departPos="41.14689356000302" departSpeed="0.068941086" id="349" type="passenger">
		<route edges="320 944"/>
	</vehicle>
	<vehicle depart="0.1" departLane="0" departPos="54.38816492962594" departSpeed="0.00056162202" id="350" type="passenger">
		<route edges="202 205"/>
	</vehicle>
	<vehicle depart="0.1" departLane="0" departPos="232.19286417305185" departSpeed="27.690447" id="351" type="passenger">
		<route edges="114 12 9"/>
	</vehicle>
	<vehicle depart="0.1" departLane="0" departPos="38.00483858654695" departSpeed="1.0649374" id="352" type="passenger">
		<route edges="13 204"/>
	</vehicle>
	<vehicle depart="0.1" departLane="0" departPos="33.937211233294924" departSpeed="0.16742253" id="354" type="passenger">
		<route edges="320 944"/>
	</vehicle>
	<vehicle depart="0.1" departLane="0" departPos="23.544401358494266" departSpeed="2.0067754" id="355" type="passenger">
		<route edges="73 204"/>
	</vehicle>
	<vehicle depart="0.1" departLane="0" departPos="47.613730485476985" departSpeed="0.0067466394" id="356" type="passenger">
		<route edges="202 205"/>
	</vehicle>
	<vehicle depart="0.1" departLane="0" departPos="106.1942573645436" departSpeed="21.293087" id="357" type="passenger">
		<route edges="114 74"/>
	</vehicle>
	<vehicle depart="0.1" departLane="0" departPos="27.631044926512498" departSpeed="2.5659894" id="358" type="passenger">
		<route edges="13 204"/>
	</vehicle>
	<vehicle depart="0.1" departLane="0" departPos="40.68177285046524" departSpeed="0.044465059" id="359" type="passenger">
		<route edges="202 205"/>
	</vehicle>
	<vehicle depart="0.1" departLane="0" departPos="26.52949474859124" departSpeed="0.34340949" id="360" type="passenger">
		<route edges="320 944"/>
	</vehicle>
	<vehicle depart="0.1" departLane="0" departPos="14.783503939954924" departSpeed="4.6291043" id="363" type="passenger">
		<route edges="13 204"/>
	</vehicle>
	<vehicle depart="0.1" departLane="0" departPos="33.34497923141075" departSpeed="0.17596846" id="364" type="passenger">
		<route edges="202 205"/>
	</vehicle>
	<vehicle depart="0.1" departLane="0" departPos="13.142317573634674" departSpeed="6.6114774" id="367" type="passenger">
		<route edges=":49_0 13 204"/>
	</vehicle>
	<vehicle depart="0.1" departLane="0" departPos="18.517598287228736" departSpeed="0.59922241" id="368" type="passenger">
		<route edges="320 944"/>
	</vehicle>
	<vehicle depart="0.1" departLane="0" departPos="25.439270686744106" departSpeed="0.48853995" id="369" type="passenger">
		<route edges="202 205"/>
	</vehicle>
	<vehicle depart="0.1" departLane="0" departPos="66.0807063735852" departSpeed="8.3082474" id="370" type="passenger">
		<route edges="10 13 204"/>
	</vehicle>
	<vehicle depart="0.1" departLane="0" departPos="47.68082068868256" departSpeed="9.6136683" id="373" type="passenger">
		<route edges="10 13"/>
	</vehicle>
	<vehicle depart="0.1" departLane="0" departPos="29.978806378053083" departSpeed="3.1215081" id="330" type="motorcycle">
		<route edges="73 204"/>
	</vehicle>
	<vehicle depart="0.1" departLane="0" departPos="83.37582448035774" departSpeed="19.608511" id="340" type="motorcycle">
		<route edges="114 74"/>
	</vehicle>
	<vehicle depart="0.1" departLane="0" departPos="17.349293491051913" departSpeed="0.96877769" id="372" type="motorcycle">
		<route edges="202 205"/>
	</vehicle>
	<vehicle depart="0.1" departLane="0" departPos="4.99004649884707" departSpeed="2.2424281" id="377" type="motorcycle">
		<route edges="76 73 204"/>
	</vehicle>
	<vehicle depart="0.1" departLane="0" departPos="32.13466959985866" departSpeed="0.0" id="30" type="truck">
		<route edges="205 115"/>
	</vehicle>
	<vehicle depart="0.1" departLane="0" departPos="118.28785728750233" departSpeed="0.0" id="325" type="truck">
		<route edges="62 13"/>
	</vehicle>
	<vehicle depart="0.1" departLane="0" departPos="7.770761689391623" departSpeed="0.00052882556" id="328" type="truck">
		<route edges="205 115"/>
	</vehicle>
	<vehicle depart="0.1" departLane="0" departPos="7.935332395756257" departSpeed="0.33707747" id="382" type="truck">
		<route edges="320 944"/>
	</vehicle>
</routes>
