<routes>
	<vehicle depart="0.1" departLane="0" departPos="17.929671860422435" departSpeed="1.4237736" id="315" type="bicycle">
		<route edges=":17_6 38215"/>
	</vehicle>
	<vehicle depart="0.1" departLane="0" departPos="12.391876944416211" departSpeed="1.8648672" id="317" type="bicycle">
		<route edges=":17_6 38215"/>
	</vehicle>
	<vehicle depart="0.1" departLane="0" departPos="6.968032003499999" departSpeed="1.6731774" id="320" type="passenger">
		<route edges=":17_7 37699"/>
	</vehicle>
	<vehicle depart="0.1" departLane="0" departPos="70.31967826638864" departSpeed="0.32134687" id="325" type="passenger">
		<route edges="37690 38215"/>
	</vehicle>
	<vehicle depart="0.1" departLane="0" departPos="56.75850683977397" departSpeed="0.15901461" id="329" type="passenger">
		<route edges="37690 38030"/>
	</vehicle>
	<vehicle depart="0.1" departLane="0" departPos="44.387406014176335" departSpeed="9.1898156" id="333" type="passenger">
		<route edges="38214 38030"/>
	</vehicle>
	<vehicle depart="0.1" departLane="0" departPos="31.534702746239716" departSpeed="6.1874217" id="338" type="passenger">
		<route edges="38214 37691"/>
	</vehicle>
	<vehicle depart="0.1" departLane="0" departPos="9.79918675876608" departSpeed="0.40035825" id="30" type="truck">
		<route edges=":17_4 37691"/>
	</vehicle>
	<vehicle depart="0.1" departLane="0" departPos="48.557513014586796" departSpeed="1.1296243" id="33" type="truck">
		<route edges="38029 37699"/>
	</vehicle>
	<vehicle depart="0.1" departLane="0" departPos="26.25711191657594" departSpeed="10.031926" id="324" type="truck">
		<route edges=":17_0 37691"/>
	</vehicle>
</routes>
