<!-- generated on Tue Feb  9 22:19:41 2021 by Eclipse SUMO netconvert Version 1.8.0
<configuration xmlns:xsi="http://www.w3.org/2001/XMLSchema-instance" xsi:noNamespaceSchemaLocation="http://sumo.dlr.de/xsd/netconvertConfiguration.xsd">

    <input>
        <node-files value="./converted_scenarios/scenario-factory/BEL_Zwevegem-1_6_I-1-1/BEL_Zwevegem-1_6_I-1-1.nod.xml"/>
        <edge-files value="./converted_scenarios/scenario-factory/BEL_Zwevegem-1_6_I-1-1/BEL_Zwevegem-1_6_I-1-1.edg.xml"/>
        <connection-files value="./converted_scenarios/scenario-factory/BEL_Zwevegem-1_6_I-1-1/BEL_Zwevegem-1_6_I-1-1.con.xml"/>
        <tllogic-files value="./converted_scenarios/scenario-factory/BEL_Zwevegem-1_6_I-1-1/BEL_Zwevegem-1_6_I-1-1.tll.xml"/>
        <type-files value="/home/zen/commonroad-interactive-benchmarks/install/commonroad-map-tool/crmapconverter/sumo_map/templates/DEU.typ.xml"/>
    </input>

    <output>
        <output-file value="./converted_scenarios/scenario-factory/BEL_Zwevegem-1_6_I-1-1/BEL_Zwevegem-1_6_I-1-1.net.xml"/>
    </output>

    <processing>
        <geometry.remove.keep-edges.explicit value="true"/>
        <geometry.avoid-overlap value="true"/>
        <offset.disable-normalization value="true"/>
    </processing>

    <junctions>
        <no-turnarounds value="true"/>
        <junctions.internal-link-detail value="20"/>
    </junctions>

    <report>
        <aggregate-warnings value="5"/>
    </report>

    <random_number>
        <seed value="1234"/>
    </random_number>

</configuration>
--><net xmlns:xsi="http://www.w3.org/2001/XMLSchema-instance" version="1.6" junctionCornerDetail="5" junctionLinkDetail="20" limitTurnSpeed="5.50" xsi:noNamespaceSchemaLocation="http://sumo.dlr.de/xsd/net_file.xsd">

    <location netOffset="0.00,0.00" convBoundary="-652.68,380.50,-483.52,563.82" origBoundary="-652.68,380.50,-483.52,563.82" projParameter="!"/>

    <type id="highway.bridleway" priority="1" speed="2.78" allow="pedestrian" oneway="1" width="2.00"/>
    <type id="highway.bus_guideway" priority="1" speed="27.78" allow="bus" oneway="1"/>
    <type id="highway.cycleway" priority="1" speed="8.33" allow="bicycle" oneway="0" width="1.00"/>
    <type id="highway.footway" priority="1" speed="2.78" allow="pedestrian" oneway="1" width="2.00"/>
    <type id="highway.ford" priority="1" speed="2.78" allow="army" oneway="0"/>
    <type id="highway.living_street" priority="2" speed="2.78" disallow="tram rail_urban rail rail_electric rail_fast ship" oneway="0"/>
    <type id="highway.motorway" priority="14" speed="39.44" allow="private emergency authority army vip passenger hov taxi bus coach delivery truck trailer motorcycle evehicle custom1 custom2" oneway="1"/>
    <type id="highway.motorway_link" priority="9" speed="22.22" allow="private emergency authority army vip passenger hov taxi bus coach delivery truck trailer motorcycle evehicle custom1 custom2" oneway="1"/>
    <type id="highway.path" priority="1" speed="2.78" allow="pedestrian bicycle" oneway="0" width="2.00"/>
    <type id="highway.pedestrian" priority="1" speed="2.78" allow="pedestrian" oneway="1" width="2.00"/>
    <type id="highway.primary" priority="12" speed="27.78" disallow="pedestrian tram rail_urban rail rail_electric rail_fast ship" oneway="0"/>
    <type id="highway.primary_link" priority="7" speed="22.22" disallow="pedestrian tram rail_urban rail rail_electric rail_fast ship" oneway="0"/>
    <type id="highway.raceway" priority="15" speed="83.33" allow="vip" oneway="0"/>
    <type id="highway.residential" priority="3" speed="13.89" disallow="pedestrian tram rail_urban rail rail_electric rail_fast ship" oneway="0"/>
    <type id="highway.secondary" priority="11" speed="27.78" disallow="pedestrian tram rail_urban rail rail_electric rail_fast ship" oneway="0"/>
    <type id="highway.secondary_link" priority="6" speed="22.22" disallow="pedestrian tram rail_urban rail rail_electric rail_fast ship" oneway="0"/>
    <type id="highway.service" priority="1" speed="5.56" allow="pedestrian delivery bicycle" oneway="0"/>
    <type id="highway.stairs" priority="1" speed="1.39" allow="pedestrian" oneway="1" width="2.00"/>
    <type id="highway.step" priority="1" speed="1.39" allow="pedestrian" oneway="1" width="2.00"/>
    <type id="highway.steps" priority="1" speed="1.39" allow="pedestrian" oneway="1" width="2.00"/>
    <type id="highway.tertiary" priority="10" speed="22.22" disallow="pedestrian tram rail_urban rail rail_electric rail_fast ship" oneway="0"/>
    <type id="highway.tertiary_link" priority="5" speed="22.22" disallow="pedestrian tram rail_urban rail rail_electric rail_fast ship" oneway="0"/>
    <type id="highway.track" priority="1" speed="5.56" allow="pedestrian motorcycle moped bicycle" oneway="0"/>
    <type id="highway.trunk" priority="13" speed="27.78" disallow="pedestrian bicycle tram rail_urban rail rail_electric rail_fast ship" oneway="0"/>
    <type id="highway.trunk_link" priority="8" speed="22.22" disallow="pedestrian bicycle tram rail_urban rail rail_electric rail_fast ship" oneway="0"/>
    <type id="highway.unclassified" priority="4" speed="13.89" disallow="pedestrian tram rail_urban rail rail_electric rail_fast ship" oneway="0"/>
    <type id="highway.unsurfaced" priority="1" speed="8.33" disallow="tram rail_urban rail rail_electric rail_fast ship" oneway="0"/>
    <type id="railway.highspeed" priority="21" speed="69.44" allow="rail_fast" oneway="1"/>
    <type id="railway.light_rail" priority="19" speed="27.78" allow="rail_urban" oneway="1"/>
    <type id="railway.preserved" priority="16" speed="27.78" allow="rail" oneway="1"/>
    <type id="railway.rail" priority="20" speed="44.44" allow="rail" oneway="1"/>
    <type id="railway.subway" priority="18" speed="27.78" allow="rail_urban" oneway="1"/>
    <type id="railway.tram" priority="17" speed="13.89" allow="tram" oneway="1"/>

    <edge id=":17_0" function="internal">
        <lane id=":17_0_0" index="0" disallow="pedestrian tram rail_urban rail rail_electric rail_fast ship" speed="36.11" length="52.16" width="3.50" shape="-543.47,480.57 -556.40,472.30 -567.79,465.43 -576.71,460.42 -583.98,456.67 -588.59,454.50"/>
    </edge>
    <edge id=":17_1" function="internal">
        <lane id=":17_1_0" index="0" disallow="pedestrian tram rail_urban rail rail_electric rail_fast ship" speed="14.91" length="47.07" width="3.50" shape="-543.47,480.57 -548.43,477.13 -552.23,474.15 -555.84,470.94 -558.37,468.35 -560.69,465.57 -562.72,462.58 -563.88,460.46 -564.82,458.24 -565.52,455.93 -565.92,453.55 -566.01,451.14 -565.77,448.74 -565.21,446.39 -564.37,444.13 -563.86,443.03"/>
    </edge>
    <edge id=":17_2" function="internal">
        <lane id=":17_2_0" index="0" disallow="pedestrian tram rail_urban rail rail_electric rail_fast ship" speed="14.10" length="41.98" width="3.50" shape="-560.72,444.58 -561.16,445.52 -561.88,447.48 -562.33,449.47 -562.49,451.50 -562.37,453.54 -561.96,455.56 -561.31,457.54 -560.43,459.45 -559.38,461.29 -557.50,463.95 -555.37,466.44 -553.04,468.78 -549.70,471.71 -546.17,474.45 -541.54,477.64"/>
    </edge>
    <edge id=":17_3" function="internal">
        <lane id=":17_3_0" index="0" disallow="pedestrian tram rail_urban rail rail_electric rail_fast ship" speed="33.79" length="50.16" width="3.50" shape="-560.72,444.58 -561.42,446.31 -561.94,448.16 -562.51,451.10 -563.03,455.13 -563.48,461.27 -563.71,469.53 -563.61,480.93 -563.11,494.41"/>
    </edge>
    <edge id=":17_4" function="internal">
        <lane id=":17_4_0" index="0" disallow="pedestrian tram rail_urban rail rail_electric rail_fast ship" speed="12.28" length="33.51" width="3.50" shape="-560.72,444.58 -562.59,447.85 -564.07,449.93 -565.77,451.85 -567.72,453.58 -569.89,455.01 -571.11,455.62 -572.34,456.12 -573.62,456.51 -574.95,456.80 -577.53,457.05 -580.13,456.94 -582.67,456.51 -585.13,455.84 -588.59,454.50"/>
    </edge>
    <edge id=":17_5" function="internal">
        <lane id=":17_5_0" index="0" disallow="pedestrian tram rail_urban rail rail_electric rail_fast ship" speed="11.28" length="28.08" width="3.50" shape="-587.17,451.31 -584.16,452.47 -582.07,453.04 -579.94,453.40 -577.78,453.49 -575.63,453.28 -574.58,453.05 -573.54,452.74 -572.54,452.33 -571.57,451.85 -569.77,450.66 -568.15,449.23 -566.72,447.61 -565.46,445.85 -563.86,443.03"/>
    </edge>
    <edge id=":17_6" function="internal">
        <lane id=":17_6_0" index="0" disallow="pedestrian tram rail_urban rail rail_electric rail_fast ship" speed="36.11" length="52.73" width="3.50" shape="-587.17,451.31 -582.47,453.51 -575.10,457.31 -566.08,462.37 -554.59,469.31 -541.54,477.64"/>
    </edge>
    <edge id=":17_7" function="internal">
        <lane id=":17_7_0" index="0" disallow="pedestrian tram rail_urban rail rail_electric rail_fast ship" speed="18.48" length="52.17" width="3.50" shape="-587.17,451.31 -585.11,452.30 -582.15,454.02 -579.34,456.01 -576.74,458.27 -574.36,460.77 -572.24,463.48 -570.38,466.36 -568.77,469.37 -567.40,472.49 -566.26,475.70 -565.05,480.03 -564.16,484.43 -563.55,488.87 -563.11,494.41"/>
    </edge>
    <edge id=":17_8" function="internal">
        <lane id=":17_8_0" index="0" disallow="pedestrian tram rail_urban rail rail_electric rail_fast ship" speed="17.80" length="48.30" width="3.50" shape="-566.61,494.58 -567.02,489.35 -567.59,485.18 -568.41,481.06 -569.52,477.01 -570.57,474.03 -571.82,471.14 -573.28,468.35 -574.98,465.69 -576.91,463.20 -579.06,460.90 -581.43,458.83 -584.00,456.99 -586.72,455.41 -588.59,454.50"/>
    </edge>
    <edge id=":17_9" function="internal">
        <lane id=":17_9_0" index="0" disallow="pedestrian tram rail_urban rail rail_electric rail_fast ship" speed="34.37" length="51.92" width="3.50" shape="-566.61,494.58 -567.11,480.82 -567.20,469.16 -566.94,460.69 -566.45,454.35 -565.88,450.15 -565.24,447.03 -564.66,444.99 -563.86,443.03"/>
    </edge>

    <edge id="37690" from="13" to="17" priority="3" type="highway.residential" spreadType="center" length="70.00" shape="-651.25,423.15 -563.59,466.02">
        <lane id="37690_0" index="0" disallow="pedestrian tram rail_urban rail rail_electric rail_fast ship" speed="36.11" length="70.00" width="3.50" customShape="1" shape="-651.25,423.15 -649.75,423.79 -603.71,443.94 -587.16,451.31"/>
    </edge>
    <edge id="37691" from="17" to="6" priority="3" type="highway.residential" spreadType="center" length="70.00" shape="-565.12,469.16 -652.68,426.34">
        <lane id="37691_0" index="0" disallow="pedestrian tram rail_urban rail rail_electric rail_fast ship" speed="36.11" length="70.00" width="3.50" customShape="1" shape="-588.59,454.50 -605.13,447.14 -651.16,427.00 -652.68,426.34"/>
    </edge>
    <edge id="37699" from="17" to="10" priority="3" type="highway.residential" spreadType="center" length="69.99" shape="-562.64,467.72 -572.50,563.65">
        <lane id="37699_0" index="0" disallow="pedestrian tram rail_urban rail rail_electric rail_fast ship" speed="36.11" length="69.99" width="3.50" customShape="1" shape="-563.11,494.41 -563.06,495.94 -563.11,501.53 -563.60,508.62 -565.00,520.74 -566.65,531.79 -569.29,546.29 -572.50,563.65"/>
    </edge>
    <edge id="37700" from="16" to="17" priority="3" type="highway.residential" spreadType="center" length="70.04" shape="-576.09,563.82 -566.12,467.37">
        <lane id="37700_0" index="0" disallow="pedestrian tram rail_urban rail rail_electric rail_fast ship" speed="36.11" length="70.04" width="3.50" customShape="1" shape="-576.09,563.82 -572.74,545.70 -570.12,531.33 -568.49,520.41 -567.09,508.45 -566.62,501.49 -566.55,496.04 -566.61,494.54"/>
    </edge>
    <edge id="38029" from="14" to="17" priority="3" type="highway.residential" spreadType="center" length="70.02" shape="-529.26,382.05 -562.76,468.24">
        <lane id="38029_0" index="0" disallow="pedestrian tram rail_urban rail rail_electric rail_fast ship" speed="36.11" length="70.02" width="3.50" customShape="1" shape="-529.26,382.05 -534.59,392.63 -560.73,444.60"/>
    </edge>
    <edge id="38030" from="17" to="3" priority="3" type="highway.residential" spreadType="center" length="70.00" shape="-566.02,466.97 -532.40,380.50">
        <lane id="38030_0" index="0" disallow="pedestrian tram rail_urban rail rail_electric rail_fast ship" speed="36.11" length="70.00" width="3.50" customShape="1" shape="-563.86,443.03 -537.71,391.06 -532.40,380.50"/>
    </edge>
    <edge id="38214" from="15" to="17" priority="3" type="highway.residential" spreadType="center" length="70.00" shape="-485.45,519.72 -565.35,469.04">
        <lane id="38214_0" index="0" disallow="pedestrian tram rail_urban rail rail_electric rail_fast ship" speed="36.11" length="70.00" width="3.50" customShape="1" shape="-485.45,519.72 -496.37,512.08 -514.60,499.65 -543.47,480.56"/>
    </edge>
    <edge id="38215" from="17" to="12" priority="3" type="highway.residential" spreadType="center" length="70.00" shape="-563.47,466.08 -483.52,516.80">
        <lane id="38215_0" index="0" disallow="pedestrian tram rail_urban rail rail_electric rail_fast ship" speed="36.11" length="70.00" width="3.50" customShape="1" shape="-541.54,477.64 -512.65,496.75 -494.39,509.19 -483.52,516.80"/>
    </edge>

    <junction id="10" type="dead_end" x="-572.50" y="563.65" incLanes="37699_0" intLanes="" shape="-570.78,563.97 -574.22,563.33" rightOfWay="edgePriority"/>
    <junction id="12" type="dead_end" x="-483.52" y="516.80" incLanes="38215_0" intLanes="" shape="-482.52,515.36 -484.52,518.23" rightOfWay="edgePriority"/>
    <junction id="13" type="dead_end" x="-651.25" y="423.15" incLanes="" intLanes="" shape="-651.94,424.75 -650.55,421.54" rightOfWay="edgePriority"/>
    <junction id="14" type="dead_end" x="-529.26" y="382.05" incLanes="" intLanes="" shape="-530.82,381.26 -527.70,382.84" rightOfWay="edgePriority"/>
    <junction id="15" type="dead_end" x="-485.45" y="519.72" incLanes="" intLanes="" shape="-484.44,518.29 -486.45,521.15" rightOfWay="edgePriority"/>
    <junction id="16" type="dead_end" x="-576.09" y="563.82" incLanes="" intLanes="" shape="-574.37,564.13 -577.81,563.50" rightOfWay="edgePriority"/>
    <junction id="17" type="priority" x="-564.38" y="467.58" incLanes="38214_0 38029_0 37690_0 37700_0" intLanes=":17_0_0 :17_1_0 :17_2_0 :17_3_0 :17_4_0 :17_5_0 :17_6_0 :17_7_0 :17_8_0 :17_9_0" shape="-544.44,482.02 -540.58,476.19 -548.20,470.63 -554.01,465.25 -558.01,460.03 -560.21,454.98 -560.59,450.10 -559.17,445.39 -565.42,442.25 -567.92,446.27 -570.83,449.19 -574.14,450.99 -577.84,451.67 -581.95,451.25 -586.46,449.71 -589.30,456.10 -583.22,459.62 -578.17,464.30 -574.16,470.14 -571.19,477.13 -569.26,485.29 -568.36,494.61 -561.37,494.34 -560.94,488.95 -559.33,484.56 -556.71,481.42 -553.24,479.78 -549.09,479.90">
        <request index="0" response="0000000000" foes="1110011000" cont="0"/>
        <request index="1" response="0001100000" foes="1001111000" cont="0"/>
        <request index="2" response="0001000000" foes="0001000000" cont="0"/>
        <request index="3" response="0011000011" foes="0011000011" cont="0"/>
        <request index="4" response="1111000011" foes="1111000011" cont="0"/>
        <request index="5" response="0000000000" foes="1000000010" cont="0"/>
        <request index="6" response="0000000000" foes="1000011110" cont="0"/>
        <request index="7" response="0000000001" foes="1000011001" cont="0"/>
        <request index="8" response="0000000001" foes="0000010001" cont="0"/>
        <request index="9" response="0011100011" foes="0011110011" cont="0"/>
    </junction>
    <junction id="3" type="dead_end" x="-532.40" y="380.50" incLanes="38030_0" intLanes="" shape="-533.96,379.71 -530.84,381.28" rightOfWay="edgePriority"/>
    <junction id="6" type="dead_end" x="-652.68" y="426.34" incLanes="37691_0" intLanes="" shape="-653.37,427.95 -651.98,424.74" rightOfWay="edgePriority"/>

    <connection from="37690" to="38030" fromLane="0" toLane="0" contPos="-4.00" shape="-587.16,451.31 -584.16,452.47 -582.07,453.04 -579.94,453.40 -577.78,453.49 -575.63,453.28 -574.58,453.05 -573.54,452.74 -572.54,452.33 -571.57,451.85 -569.77,450.66 -568.15,449.23 -566.72,447.61 -565.46,445.85 -563.86,443.03" via=":17_5_0" dir="r" state="M"/>
    <connection from="37690" to="38215" fromLane="0" toLane="0" contPos="-4.00" shape="-587.16,451.31 -582.47,453.51 -575.10,457.31 -566.08,462.37 -554.59,469.31 -541.54,477.64" via=":17_6_0" dir="s" state="M"/>
    <connection from="37690" to="37699" fromLane="0" toLane="0" contPos="-4.00" shape="-587.16,451.31 -585.11,452.30 -582.15,454.02 -579.34,456.01 -576.74,458.27 -574.36,460.77 -572.24,463.48 -570.38,466.36 -568.77,469.37 -567.40,472.49 -566.26,475.70 -565.05,480.03 -564.16,484.43 -563.55,488.87 -563.11,494.41" via=":17_7_0" dir="l" state="m"/>
    <connection from="37700" to="37691" fromLane="0" toLane="0" contPos="-4.00" shape="-566.61,494.58 -567.02,489.35 -567.59,485.18 -568.41,481.06 -569.52,477.01 -570.57,474.03 -571.82,471.14 -573.28,468.35 -574.98,465.69 -576.91,463.20 -579.06,460.90 -581.43,458.83 -584.00,456.99 -586.72,455.41 -588.59,454.50" via=":17_8_0" dir="r" state="m"/>
    <connection from="37700" to="38030" fromLane="0" toLane="0" contPos="-4.00" shape="-566.61,494.58 -567.11,480.82 -567.20,469.16 -566.94,460.69 -566.45,454.35 -565.88,450.15 -565.24,447.03 -564.66,444.99 -563.86,443.03" via=":17_9_0" dir="s" state="m"/>
    <connection from="38029" to="38215" fromLane="0" toLane="0" contPos="-4.00" shape="-560.72,444.58 -561.16,445.52 -561.88,447.48 -562.33,449.47 -562.49,451.50 -562.37,453.54 -561.96,455.56 -561.31,457.54 -560.43,459.45 -559.38,461.29 -557.50,463.95 -555.37,466.44 -553.04,468.78 -549.70,471.71 -546.17,474.45 -541.54,477.64" via=":17_2_0" dir="r" state="m"/>
    <connection from="38029" to="37699" fromLane="0" toLane="0" contPos="-4.00" shape="-560.72,444.58 -561.42,446.31 -561.94,448.16 -562.51,451.10 -563.03,455.13 -563.48,461.27 -563.71,469.53 -563.61,480.93 -563.11,494.41" via=":17_3_0" dir="s" state="m"/>
    <connection from="38029" to="37691" fromLane="0" toLane="0" contPos="-4.00" shape="-560.72,444.58 -562.59,447.85 -564.07,449.93 -565.77,451.85 -567.72,453.58 -569.89,455.01 -571.11,455.62 -572.34,456.12 -573.62,456.51 -574.95,456.80 -577.53,457.05 -580.13,456.94 -582.67,456.51 -585.13,455.84 -588.59,454.50" via=":17_4_0" dir="l" state="m"/>
    <connection from="38214" to="37691" fromLane="0" toLane="0" contPos="-4.00" shape="-543.47,480.57 -556.40,472.30 -567.79,465.43 -576.71,460.42 -583.98,456.67 -588.59,454.50" via=":17_0_0" dir="s" state="M"/>
    <connection from="38214" to="38030" fromLane="0" toLane="0" contPos="-4.00" shape="-543.47,480.57 -548.43,477.13 -552.23,474.15 -555.84,470.94 -558.37,468.35 -560.69,465.57 -562.72,462.58 -563.88,460.46 -564.82,458.24 -565.52,455.93 -565.92,453.55 -566.01,451.14 -565.77,448.74 -565.21,446.39 -564.37,444.13 -563.86,443.03" via=":17_1_0" dir="l" state="m"/>

    <connection from=":17_0" to="37691" fromLane="0" toLane="0" dir="s" state="M"/>
    <connection from=":17_1" to="38030" fromLane="0" toLane="0" dir="l" state="M"/>
    <connection from=":17_2" to="38215" fromLane="0" toLane="0" dir="r" state="M"/>
    <connection from=":17_3" to="37699" fromLane="0" toLane="0" dir="s" state="M"/>
    <connection from=":17_4" to="37691" fromLane="0" toLane="0" dir="l" state="M"/>
    <connection from=":17_5" to="38030" fromLane="0" toLane="0" dir="r" state="M"/>
    <connection from=":17_6" to="38215" fromLane="0" toLane="0" dir="s" state="M"/>
    <connection from=":17_7" to="37699" fromLane="0" toLane="0" dir="l" state="M"/>
    <connection from=":17_8" to="37691" fromLane="0" toLane="0" dir="r" state="M"/>
    <connection from=":17_9" to="38030" fromLane="0" toLane="0" dir="s" state="M"/>

</net>