<routes>
	<vehicle depart="0.1" departLane="0" departPos="13.973622494214009" departSpeed="1.53704" id="31" type="passenger">
		<route edges=":60_5 20493"/>
	</vehicle>
	<vehicle depart="0.1" departLane="0" departPos="26.634607926353876" departSpeed="13.180319" id="38" type="passenger">
		<route edges=":60_1 20647"/>
	</vehicle>
	<vehicle depart="0.1" departLane="0" departPos="12.498257598098247" departSpeed="0.00064928905" id="310" type="passenger">
		<route edges="20493 20496"/>
	</vehicle>
	<vehicle depart="0.1" departLane="0" departPos="2.5" departSpeed="1.1221885" id="318" type="passenger">
		<route edges="20493 20496"/>
	</vehicle>
	<vehicle depart="0.1" departLane="0" departPos="69.00133333348563" departSpeed="0.0" id="320" type="passenger">
		<route edges="20646 20643"/>
	</vehicle>
	<vehicle depart="0.1" departLane="0" departPos="28.289827191981534" departSpeed="9.8668927" id="331" type="passenger">
		<route edges=":58_3 20492 20647"/>
	</vehicle>
	<vehicle depart="0.1" departLane="0" departPos="61.46068424666973" departSpeed="0.043163607" id="341" type="motorcycle">
		<route edges="20646 20643"/>
	</vehicle>
</routes>
