<routes>
	<vehicle depart="0.1" departLane="0" departPos="19.43465463083919" departSpeed="3.2946599" id="371" type="bus">
		<route edges="41779 41782"/>
	</vehicle>
	<vehicle depart="0.1" departLane="0" departPos="9.924010612353936" departSpeed="6.0410446" id="38" type="passenger">
		<route edges=":63_2 41779"/>
	</vehicle>
	<vehicle depart="0.1" departLane="0" departPos="24.954496067459605" departSpeed="4.4554237" id="316" type="passenger">
		<route edges=":63_3 41775"/>
	</vehicle>
	<vehicle depart="0.1" departLane="0" departPos="33.5223298977284" departSpeed="3.3424019" id="317" type="passenger">
		<route edges="41778 41856"/>
	</vehicle>
	<vehicle depart="0.1" departLane="0" departPos="37.049588135816975" departSpeed="3.7686486" id="330" type="passenger">
		<route edges=":69_2 41857 41775"/>
	</vehicle>
	<vehicle depart="0.1" departLane="0" departPos="31.35066447963867" departSpeed="1.3417789" id="365" type="passenger">
		<route edges="41779 41782"/>
	</vehicle>
	<vehicle depart="0.1" departLane="0" departPos="22.0849251865609" departSpeed="3.6526865" id="377" type="passenger">
		<route edges=":63_5 41779"/>
	</vehicle>
	<vehicle depart="0.1" departLane="0" departPos="19.66252120361179" departSpeed="2.7458201" id="381" type="passenger">
		<route edges=":63_4 41856 41637"/>
	</vehicle>
	<vehicle depart="0.1" departLane="0" departPos="67.9752214058852" departSpeed="1.4115261" id="383" type="passenger">
		<route edges="41776 41856"/>
	</vehicle>
	<vehicle depart="0.1" departLane="0" departPos="48.45858857494342" departSpeed="2.4829379" id="387" type="passenger">
		<route edges="41776 41856"/>
	</vehicle>
</routes>
