<routes>
	<vehicle depart="0.1" departLane="1" departPos="91.4242790674433" departSpeed="9.7350395" id="1" type="passenger">
		<route edges="26 28 24"/>
	</vehicle>
	<vehicle depart="0.1" departLane="0" departPos="0" departSpeed="14.752294" id="2" type="passenger">
		<route edges="26 27 24"/>
	</vehicle>
	<vehicle depart="0.1" departLane="0" departPos="85.03457254370636" departSpeed="14.752294" id="3" type="passenger">
		<route edges="26 27 24"/>
	</vehicle>
</routes>
