<routes>
	<vehicle depart="0.1" departLane="0" departPos="33.64594767704653" departSpeed="0.0030044126" id="315" type="bicycle">
		<route edges="784 204"/>
	</vehicle>
	<vehicle depart="0.1" departLane="0" departPos="31.136564438121802" departSpeed="6.8744483" id="316" type="bicycle">
		<route edges="135"/>
	</vehicle>
	<vehicle depart="0.1" departLane="0" departPos="26.58356001763194" departSpeed="1.7531876" id="333" type="bus">
		<route edges="224 133 201"/>
	</vehicle>
	<vehicle depart="0.1" departLane="0" departPos="38.48243569399799" departSpeed="0.0" id="31" type="passenger">
		<route edges="200 135"/>
	</vehicle>
	<vehicle depart="0.1" departLane="0" departPos="12.786318917861053" departSpeed="10.281361" id="32" type="passenger">
		<route edges="785"/>
	</vehicle>
	<vehicle depart="0.1" departLane="0" departPos="17.059436615229664" departSpeed="0.00056908144" id="33" type="passenger">
		<route edges="200 135"/>
	</vehicle>
	<vehicle depart="0.1" departLane="0" departPos="31.688583962132657" departSpeed="0.0" id="34" type="passenger">
		<route edges="200 135"/>
	</vehicle>
	<vehicle depart="0.1" departLane="0" departPos="40.80205416237529" departSpeed="0.0" id="36" type="passenger">
		<route edges="131 133"/>
	</vehicle>
	<vehicle depart="0.1" departLane="0" departPos="31.687914065008027" departSpeed="1.3138187" id="38" type="passenger">
		<route edges="131 133"/>
	</vehicle>
	<vehicle depart="0.1" departLane="0" departPos="50.13450144636456" departSpeed="0.0" id="39" type="passenger">
		<route edges="784 204"/>
	</vehicle>
	<vehicle depart="0.1" departLane="0" departPos="24.56018748581394" departSpeed="3.5748686e-05" id="310" type="passenger">
		<route edges="200 135"/>
	</vehicle>
	<vehicle depart="0.1" departLane="0" departPos="22.10945332553773" departSpeed="1.7699284" id="312" type="passenger">
		<route edges="131 133"/>
	</vehicle>
	<vehicle depart="0.1" departLane="0" departPos="38.818147307265775" departSpeed="0.00041251063" id="313" type="passenger">
		<route edges="784 204"/>
	</vehicle>
	<vehicle depart="0.1" departLane="0" departPos="32.88844537630831" departSpeed="5.0424789" id="314" type="passenger">
		<route edges="201 204"/>
	</vehicle>
	<vehicle depart="0.1" departLane="0" departPos="13.07035555902214" departSpeed="1.5935748" id="317" type="passenger">
		<route edges="131 133"/>
	</vehicle>
	<vehicle depart="0.1" departLane="0" departPos="31.735733267441695" departSpeed="0.002943788" id="318" type="passenger">
		<route edges="784 204"/>
	</vehicle>
	<vehicle depart="0.1" departLane="0" departPos="21.429455252004605" departSpeed="4.4053727" id="319" type="passenger">
		<route edges="201 204"/>
	</vehicle>
	<vehicle depart="0.1" departLane="0" departPos="9.554329052318604" departSpeed="0.005096997" id="320" type="passenger">
		<route edges="200 135"/>
	</vehicle>
	<vehicle depart="0.1" departLane="0" departPos="10.106023619696076" departSpeed="4.0903238" id="322" type="passenger">
		<route edges="201 204"/>
	</vehicle>
	<vehicle depart="0.1" departLane="0" departPos="10.766245625975635" departSpeed="4.332552" id="325" type="passenger">
		<route edges=":22_2 201 785"/>
	</vehicle>
	<vehicle depart="0.1" departLane="0" departPos="69.44213656041835" departSpeed="0.0" id="326" type="passenger">
		<route edges="203 200"/>
	</vehicle>
	<vehicle depart="0.1" departLane="0" departPos="41.96583405622091" departSpeed="0.0" id="327" type="passenger">
		<route edges="224 133 201 785"/>
	</vehicle>
	<vehicle depart="0.1" departLane="0" departPos="14.59076018589441" departSpeed="0.05392281" id="328" type="passenger">
		<route edges="784 204"/>
	</vehicle>
	<vehicle depart="0.1" departLane="0" departPos="62.370147135304094" departSpeed="0.12886655" id="329" type="passenger">
		<route edges="203 200"/>
	</vehicle>
	<vehicle depart="0.1" departLane="0" departPos="7.268274698362195" departSpeed="0.14113142" id="331" type="passenger">
		<route edges="784 204"/>
	</vehicle>
	<vehicle depart="0.1" departLane="0" departPos="9.290185843483814" departSpeed="1.919728" id="334" type="passenger">
		<route edges="224 133"/>
	</vehicle>
	<vehicle depart="0.1" departLane="0" departPos="27.229636517257113" departSpeed="11.062084" id="335" type="passenger">
		<route edges="203 200"/>
	</vehicle>
	<vehicle depart="0.1" departLane="0" departPos="5.604155873745792" departSpeed="0.29553396" id="336" type="passenger">
		<route edges="131 133"/>
	</vehicle>
	<vehicle depart="0.1" departLane="0" departPos="43.032979539915246" departSpeed="3.1275206e-05" id="311" type="motorcycle">
		<route edges="784 204"/>
	</vehicle>
	<vehicle depart="0.1" departLane="0" departPos="1.25" departSpeed="0.092568872" id="324" type="motorcycle">
		<route edges="200 135"/>
	</vehicle>
	<vehicle depart="0.1" departLane="0" departPos="33.407980892436356" departSpeed="0.86517433" id="330" type="motorcycle">
		<route edges="224 133 135"/>
	</vehicle>
	<vehicle depart="0.1" departLane="0" departPos="51.22390198863104" departSpeed="3.1396036" id="332" type="motorcycle">
		<route edges="203 200"/>
	</vehicle>
	<vehicle depart="0.1" departLane="0" departPos="8.985969016927683" departSpeed="5.5947128" id="37" type="truck">
		<route edges=":21_2 204"/>
	</vehicle>
	<vehicle depart="0.1" departLane="0" departPos="24.3101012308384" departSpeed="0.014547588" id="323" type="truck">
		<route edges="784 204"/>
	</vehicle>
</routes>
