<routes>
	<vehicle depart="0.1" departLane="0" departPos="37.266656402516944" departSpeed="0.0" id="31" type="passenger">
		<route edges="21473 21470"/>
	</vehicle>
	<vehicle depart="0.1" departLane="0" departPos="29.76704270903516" departSpeed="0.0" id="32" type="passenger">
		<route edges="21473 21470"/>
	</vehicle>
	<vehicle depart="0.1" departLane="0" departPos="14.396432269450141" departSpeed="0.0" id="38" type="passenger">
		<route edges="21401 21297"/>
	</vehicle>
	<vehicle depart="0.1" departLane="0" departPos="22.864420878805042" departSpeed="11.567893" id="310" type="passenger">
		<route edges=":29_3 21474"/>
	</vehicle>
	<vehicle depart="0.1" departLane="0" departPos="2.5" departSpeed="5.1011584" id="313" type="passenger">
		<route edges=":29_2 21470"/>
	</vehicle>
	<vehicle depart="0.1" departLane="0" departPos="6.896803448510666" departSpeed="0.0" id="317" type="passenger">
		<route edges="21401 21297"/>
	</vehicle>
	<vehicle depart="0.1" departLane="0" departPos="69.99908956450327" departSpeed="7.3925101" id="334" type="passenger">
		<route edges="21344 21075"/>
	</vehicle>
	<vehicle depart="0.1" departLane="0" departPos="59.998907668801365" departSpeed="4.1736864" id="336" type="passenger">
		<route edges="21344 21296"/>
	</vehicle>
	<vehicle depart="0.1" departLane="0" departPos="47.26715352423987" departSpeed="0.0" id="320" type="truck">
		<route edges="21473 21470"/>
	</vehicle>
	<vehicle depart="0.1" departLane="0" departPos="20.915495538434552" departSpeed="9.8685604" id="331" type="truck">
		<route edges=":30_0 21296 21293"/>
	</vehicle>
</routes>
