<!-- generated on Tue Feb  9 22:18:58 2021 by Eclipse SUMO netconvert Version 1.8.0
<configuration xmlns:xsi="http://www.w3.org/2001/XMLSchema-instance" xsi:noNamespaceSchemaLocation="http://sumo.dlr.de/xsd/netconvertConfiguration.xsd">

    <input>
        <node-files value="./converted_scenarios/scenario-factory/BEL_Zaventem-2_1_I-1-1/BEL_Zaventem-2_1_I-1-1.nod.xml"/>
        <edge-files value="./converted_scenarios/scenario-factory/BEL_Zaventem-2_1_I-1-1/BEL_Zaventem-2_1_I-1-1.edg.xml"/>
        <connection-files value="./converted_scenarios/scenario-factory/BEL_Zaventem-2_1_I-1-1/BEL_Zaventem-2_1_I-1-1.con.xml"/>
        <tllogic-files value="./converted_scenarios/scenario-factory/BEL_Zaventem-2_1_I-1-1/BEL_Zaventem-2_1_I-1-1.tll.xml"/>
        <type-files value="/home/zen/commonroad-interactive-benchmarks/install/commonroad-map-tool/crmapconverter/sumo_map/templates/DEU.typ.xml"/>
    </input>

    <output>
        <output-file value="./converted_scenarios/scenario-factory/BEL_Zaventem-2_1_I-1-1/BEL_Zaventem-2_1_I-1-1.net.xml"/>
    </output>

    <processing>
        <geometry.remove.keep-edges.explicit value="true"/>
        <geometry.avoid-overlap value="true"/>
        <offset.disable-normalization value="true"/>
    </processing>

    <junctions>
        <no-turnarounds value="true"/>
        <junctions.internal-link-detail value="20"/>
    </junctions>

    <report>
        <aggregate-warnings value="5"/>
    </report>

    <random_number>
        <seed value="1234"/>
    </random_number>

</configuration>
--><net xmlns:xsi="http://www.w3.org/2001/XMLSchema-instance" version="1.6" junctionCornerDetail="5" junctionLinkDetail="20" limitTurnSpeed="5.50" xsi:noNamespaceSchemaLocation="http://sumo.dlr.de/xsd/net_file.xsd">

    <location netOffset="0.00,0.00" convBoundary="-520.81,555.72,-344.26,704.53" origBoundary="-520.81,555.72,-344.26,704.53" projParameter="!"/>

    <type id="highway.bridleway" priority="1" speed="2.78" allow="pedestrian" oneway="1" width="2.00"/>
    <type id="highway.bus_guideway" priority="1" speed="27.78" allow="bus" oneway="1"/>
    <type id="highway.cycleway" priority="1" speed="8.33" allow="bicycle" oneway="0" width="1.00"/>
    <type id="highway.footway" priority="1" speed="2.78" allow="pedestrian" oneway="1" width="2.00"/>
    <type id="highway.ford" priority="1" speed="2.78" allow="army" oneway="0"/>
    <type id="highway.living_street" priority="2" speed="2.78" disallow="tram rail_urban rail rail_electric rail_fast ship" oneway="0"/>
    <type id="highway.motorway" priority="14" speed="39.44" allow="private emergency authority army vip passenger hov taxi bus coach delivery truck trailer motorcycle evehicle custom1 custom2" oneway="1"/>
    <type id="highway.motorway_link" priority="9" speed="22.22" allow="private emergency authority army vip passenger hov taxi bus coach delivery truck trailer motorcycle evehicle custom1 custom2" oneway="1"/>
    <type id="highway.path" priority="1" speed="2.78" allow="pedestrian bicycle" oneway="0" width="2.00"/>
    <type id="highway.pedestrian" priority="1" speed="2.78" allow="pedestrian" oneway="1" width="2.00"/>
    <type id="highway.primary" priority="12" speed="27.78" disallow="pedestrian tram rail_urban rail rail_electric rail_fast ship" oneway="0"/>
    <type id="highway.primary_link" priority="7" speed="22.22" disallow="pedestrian tram rail_urban rail rail_electric rail_fast ship" oneway="0"/>
    <type id="highway.raceway" priority="15" speed="83.33" allow="vip" oneway="0"/>
    <type id="highway.residential" priority="3" speed="13.89" disallow="pedestrian tram rail_urban rail rail_electric rail_fast ship" oneway="0"/>
    <type id="highway.secondary" priority="11" speed="27.78" disallow="pedestrian tram rail_urban rail rail_electric rail_fast ship" oneway="0"/>
    <type id="highway.secondary_link" priority="6" speed="22.22" disallow="pedestrian tram rail_urban rail rail_electric rail_fast ship" oneway="0"/>
    <type id="highway.service" priority="1" speed="5.56" allow="pedestrian delivery bicycle" oneway="0"/>
    <type id="highway.stairs" priority="1" speed="1.39" allow="pedestrian" oneway="1" width="2.00"/>
    <type id="highway.step" priority="1" speed="1.39" allow="pedestrian" oneway="1" width="2.00"/>
    <type id="highway.steps" priority="1" speed="1.39" allow="pedestrian" oneway="1" width="2.00"/>
    <type id="highway.tertiary" priority="10" speed="22.22" disallow="pedestrian tram rail_urban rail rail_electric rail_fast ship" oneway="0"/>
    <type id="highway.tertiary_link" priority="5" speed="22.22" disallow="pedestrian tram rail_urban rail rail_electric rail_fast ship" oneway="0"/>
    <type id="highway.track" priority="1" speed="5.56" allow="pedestrian motorcycle moped bicycle" oneway="0"/>
    <type id="highway.trunk" priority="13" speed="27.78" disallow="pedestrian bicycle tram rail_urban rail rail_electric rail_fast ship" oneway="0"/>
    <type id="highway.trunk_link" priority="8" speed="22.22" disallow="pedestrian bicycle tram rail_urban rail rail_electric rail_fast ship" oneway="0"/>
    <type id="highway.unclassified" priority="4" speed="13.89" disallow="pedestrian tram rail_urban rail rail_electric rail_fast ship" oneway="0"/>
    <type id="highway.unsurfaced" priority="1" speed="8.33" disallow="tram rail_urban rail rail_electric rail_fast ship" oneway="0"/>
    <type id="railway.highspeed" priority="21" speed="69.44" allow="rail_fast" oneway="1"/>
    <type id="railway.light_rail" priority="19" speed="27.78" allow="rail_urban" oneway="1"/>
    <type id="railway.preserved" priority="16" speed="27.78" allow="rail" oneway="1"/>
    <type id="railway.rail" priority="20" speed="44.44" allow="rail" oneway="1"/>
    <type id="railway.subway" priority="18" speed="27.78" allow="rail_urban" oneway="1"/>
    <type id="railway.tram" priority="17" speed="13.89" allow="tram" oneway="1"/>

    <edge id=":29_0" function="internal">
        <lane id=":29_0_0" index="0" disallow="pedestrian tram rail_urban rail rail_electric rail_fast ship" speed="36.11" length="36.32" width="3.50" shape="-425.91,686.50 -430.09,686.52 -439.45,686.80 -447.73,687.39 -454.93,688.22 -462.06,689.37"/>
    </edge>
    <edge id=":29_1" function="internal">
        <lane id=":29_1_0" index="0" disallow="pedestrian tram rail_urban rail rail_electric rail_fast ship" speed="11.94" length="34.78" width="3.50" shape="-425.91,686.50 -429.94,686.30 -432.59,685.91 -435.19,685.29 -437.69,684.36 -438.89,683.77 -440.04,683.09 -441.13,682.31 -442.14,681.44 -443.07,680.48 -443.90,679.43 -444.64,678.32 -445.27,677.14 -445.80,675.91 -446.58,673.36 -447.03,670.72 -447.20,668.06 -447.16,665.38"/>
    </edge>
    <edge id=":29_2" function="internal">
        <lane id=":29_2_0" index="0" disallow="pedestrian tram rail_urban rail rail_electric rail_fast ship" speed="10.92" length="28.90" width="3.50" shape="-443.66,665.67 -443.70,667.88 -443.55,670.16 -443.17,672.37 -442.51,674.50 -442.09,675.46 -441.58,676.41 -440.99,677.29 -440.33,678.12 -439.59,678.88 -438.78,679.57 -437.90,680.18 -436.97,680.73 -436.01,681.20 -433.89,681.98 -431.69,682.50 -429.43,682.82 -425.90,683.00"/>
    </edge>
    <edge id=":29_3" function="internal">
        <lane id=":29_3_0" index="0" disallow="pedestrian tram rail_urban rail rail_electric rail_fast ship" speed="13.51" length="32.74" width="3.50" shape="-443.67,665.67 -443.74,666.77 -444.17,670.27 -444.95,673.75 -445.71,676.06 -446.69,678.29 -447.91,680.43 -449.39,682.41 -451.12,684.20 -453.06,685.75 -455.18,687.03 -457.41,688.05 -459.72,688.83 -462.06,689.37"/>
    </edge>
    <edge id=":29_4" function="internal">
        <lane id=":29_4_0" index="0" disallow="pedestrian tram rail_urban rail rail_electric rail_fast ship" speed="12.57" length="28.24" width="3.50" shape="-462.79,685.96 -460.70,685.46 -458.72,684.80 -456.83,683.92 -455.05,682.83 -453.43,681.51 -451.99,680.00 -450.76,678.31 -449.74,676.49 -448.91,674.58 -448.27,672.59 -447.60,669.53 -447.22,666.43 -447.16,665.38"/>
    </edge>
    <edge id=":29_5" function="internal">
        <lane id=":29_5_0" index="0" disallow="pedestrian tram rail_urban rail rail_electric rail_fast ship" speed="36.11" length="37.06" width="3.50" shape="-462.79,685.95 -455.43,684.75 -448.08,683.91 -439.65,683.31 -430.15,683.02 -425.90,683.00"/>
    </edge>
    <edge id=":30_0" function="internal">
        <lane id=":30_0_0" index="0" disallow="pedestrian tram rail_urban rail rail_electric rail_fast ship" speed="36.11" length="25.52" width="3.46" shape="-410.71,645.85 -423.61,640.80 -434.57,636.79"/>
    </edge>
    <edge id=":30_1" function="internal">
        <lane id=":30_1_0" index="0" disallow="pedestrian tram rail_urban rail rail_electric rail_fast ship" speed="12.11" length="34.10" width="3.50" shape="-410.71,645.85 -414.33,644.21 -416.60,642.91 -418.73,641.39 -420.67,639.63 -421.55,638.65 -422.34,637.61 -423.05,636.51 -423.66,635.35 -424.16,634.14 -424.56,632.89 -424.84,631.61 -425.02,630.32 -425.07,627.70 -424.77,625.09 -424.19,622.54 -423.38,620.05 -422.91,618.82"/>
    </edge>
    <edge id=":30_2" function="internal">
        <lane id=":30_2_0" index="0" disallow="pedestrian tram rail_urban rail rail_electric rail_fast ship" speed="11.10" length="28.48" width="3.50" shape="-419.66,620.14 -420.07,621.19 -420.77,623.35 -421.27,625.52 -421.52,627.69 -421.47,629.87 -421.32,630.89 -421.09,631.91 -420.78,632.91 -420.37,633.87 -419.88,634.80 -419.31,635.68 -418.66,636.52 -417.97,637.30 -416.33,638.78 -414.52,640.05 -412.59,641.16 -409.43,642.59"/>
    </edge>
    <edge id=":30_3" function="internal">
        <lane id=":30_3_0" index="0" disallow="pedestrian tram rail_urban rail rail_electric rail_fast ship" speed="10.64" length="24.40" width="3.46" shape="-419.66,620.14 -420.12,621.25 -422.02,625.55 -423.62,628.76 -425.45,631.88 -426.89,633.88 -427.76,634.87 -428.76,635.79 -429.98,636.58 -431.47,637.11 -434.57,636.79"/>
    </edge>
    <edge id=":30_4" function="internal">
        <lane id=":30_4_0" index="0" disallow="pedestrian tram rail_urban rail rail_electric rail_fast ship" speed="9.20" length="17.80" width="3.50" shape="-431.75,634.02 -431.41,633.71 -430.57,633.14 -429.86,632.41 -429.24,631.60 -428.66,630.76 -427.62,629.01 -426.20,626.29 -424.91,623.52 -423.30,619.77 -422.91,618.82"/>
    </edge>
    <edge id=":30_5" function="internal">
        <lane id=":30_5_0" index="0" disallow="pedestrian tram rail_urban rail rail_electric rail_fast ship" speed="36.11" length="23.91" width="3.50" shape="-431.75,634.02 -422.39,637.52 -409.43,642.59"/>
    </edge>
    <edge id=":31_0" function="internal">
        <lane id=":31_0_0" index="0" disallow="pedestrian tram rail_urban rail rail_electric rail_fast ship" speed="8.43" length="17.02" width="3.50" shape="-434.76,636.72 -434.74,637.01 -435.62,637.44 -436.33,638.13 -436.92,638.92 -437.43,639.76 -437.88,640.64 -438.66,642.45 -439.34,644.30 -440.23,647.13 -441.25,650.94 -441.48,651.86"/>
    </edge>
    <edge id=":31_1" function="internal">
        <lane id=":31_1_0" index="0" disallow="pedestrian tram rail_urban rail rail_electric rail_fast ship" speed="36.11" length="22.63" width="3.50" shape="-434.76,636.72 -443.84,633.26 -455.84,628.50"/>
    </edge>
    <edge id=":31_2" function="internal">
        <lane id=":31_2_0" index="0" disallow="pedestrian tram rail_urban rail rail_electric rail_fast ship" speed="36.11" length="24.21" width="3.42" shape="-454.53,625.25 -442.60,629.99 -431.94,633.96"/>
    </edge>
    <edge id=":31_3" function="internal">
        <lane id=":31_3_0" index="0" disallow="pedestrian tram rail_urban rail rail_electric rail_fast ship" speed="12.79" length="32.90" width="3.50" shape="-454.53,625.25 -453.38,625.74 -451.16,626.84 -449.01,628.15 -447.00,629.70 -445.17,631.50 -443.59,633.55 -442.32,635.82 -441.39,638.24 -440.82,640.75 -440.56,643.28 -440.57,645.79 -440.80,648.28 -441.48,651.86"/>
    </edge>
    <edge id=":31_4" function="internal">
        <lane id=":31_4_0" index="0" disallow="pedestrian tram rail_urban rail rail_electric rail_fast ship" speed="11.82" length="27.96" width="3.50" shape="-444.90,651.12 -444.29,647.92 -444.09,645.78 -444.07,643.63 -444.29,641.50 -444.76,639.40 -445.51,637.39 -446.56,635.52 -447.86,633.81 -449.39,632.30 -451.09,630.99 -452.92,629.87 -454.85,628.92 -455.84,628.50"/>
    </edge>
    <edge id=":31_5" function="internal">
        <lane id=":31_5_0" index="0" disallow="pedestrian tram rail_urban rail rail_electric rail_fast ship" speed="9.96" length="24.05" width="3.42" shape="-444.90,651.12 -444.61,649.93 -443.35,645.44 -442.18,642.09 -441.23,639.87 -440.06,637.72 -439.32,636.64 -438.45,635.62 -437.38,634.71 -436.08,633.99 -434.54,633.60 -431.94,633.96"/>
    </edge>

    <edge id="21074" from="26" to="30" priority="3" type="highway.residential" spreadType="center" length="70.00" shape="-414.06,555.72 -419.68,633.22">
        <lane id="21074_0" index="0" disallow="pedestrian tram rail_urban rail rail_electric rail_fast ship" speed="36.11" length="70.00" width="3.49" customShape="1" shape="-414.06,555.72 -412.91,556.22 -411.62,557.06 -410.45,558.07 -409.42,559.20 -408.20,560.86 -406.96,563.10 -406.24,565.02 -405.80,567.02 -405.66,569.07 -405.79,574.20 -406.28,579.31 -407.23,584.87 -408.54,590.36 -410.47,596.75 -413.09,603.98 -419.67,620.14"/>
    </edge>
    <edge id="21075" from="30" to="18" priority="3" type="highway.residential" spreadType="center" length="69.99" shape="-423.16,633.04 -420.77,557.79">
        <lane id="21075_0" index="0" disallow="pedestrian tram rail_urban rail rail_electric rail_fast ship" speed="36.11" length="69.99" width="3.50" customShape="1" shape="-422.91,618.82 -416.43,602.93 -413.87,595.88 -411.98,589.69 -410.70,584.39 -409.78,579.03 -409.29,574.12 -409.16,569.22 -409.27,567.44 -409.67,565.75 -410.34,564.13 -411.52,562.22 -412.62,560.89 -413.52,560.07 -414.64,559.40 -415.87,558.87 -417.11,558.47 -420.35,557.83 -420.77,557.79"/>
    </edge>
    <edge id="21293" from="31" to="11" priority="3" type="highway.residential" spreadType="center" length="69.99" shape="-444.61,639.50 -520.81,602.46">
        <lane id="21293_0" index="0" disallow="pedestrian tram rail_urban rail rail_electric rail_fast ship" speed="36.11" length="69.99" width="3.50" customShape="1" shape="-455.84,628.50 -498.73,611.31 -520.81,602.46"/>
    </edge>
    <edge id="21294" from="25" to="31" priority="3" type="highway.residential" spreadType="center" length="69.99" shape="-519.50,599.22 -443.08,636.35">
        <lane id="21294_0" index="0" disallow="pedestrian tram rail_urban rail rail_electric rail_fast ship" speed="36.11" length="69.99" width="3.50" customShape="1" shape="-519.50,599.22 -497.43,608.07 -454.53,625.26"/>
    </edge>
    <edge id="21296" from="30" to="31" priority="3" type="highway.residential" spreadType="center" length="0.20" shape="-421.05,634.75 -443.64,639.63">
        <lane id="21296_0" index="0" disallow="pedestrian tram rail_urban rail rail_electric rail_fast ship" speed="36.11" length="0.20" width="3.46" customShape="1" shape="-434.57,636.79 -434.76,636.72"/>
    </edge>
    <edge id="21297" from="31" to="30" priority="3" type="highway.residential" spreadType="center" length="0.20" shape="-444.36,636.27 -421.78,631.39">
        <lane id="21297_0" index="0" disallow="pedestrian tram rail_urban rail rail_electric rail_fast ship" speed="36.11" length="0.20" width="3.42" customShape="1" shape="-431.94,633.96 -431.75,634.02"/>
    </edge>
    <edge id="21344" from="24" to="30" priority="3" type="highway.residential" spreadType="center" length="70.00" shape="-345.57,671.38 -422.20,634.62">
        <lane id="21344_0" index="0" disallow="pedestrian tram rail_urban rail rail_electric rail_fast ship" speed="36.11" length="70.00" width="3.50" customShape="1" shape="-345.57,671.38 -350.13,669.59 -410.74,645.83"/>
    </edge>
    <edge id="21345" from="30" to="19" priority="3" type="highway.residential" spreadType="center" length="70.00" shape="-420.69,631.47 -344.26,668.14">
        <lane id="21345_0" index="0" disallow="pedestrian tram rail_urban rail rail_electric rail_fast ship" speed="36.11" length="70.00" width="3.50" customShape="1" shape="-409.43,642.59 -348.86,666.33 -344.26,668.14"/>
    </edge>
    <edge id="21401" from="29" to="31" priority="3" type="highway.residential" spreadType="center" length="14.50" shape="-446.32,679.27 -445.62,637.81">
        <lane id="21401_0" index="0" disallow="pedestrian tram rail_urban rail rail_electric rail_fast ship" speed="36.11" length="14.50" width="3.50" customShape="1" shape="-447.16,665.38 -446.84,661.64 -446.13,656.86 -444.89,651.08"/>
    </edge>
    <edge id="21402" from="31" to="29" priority="3" type="highway.residential" spreadType="center" length="14.00" shape="-442.13,637.87 -442.82,679.32">
        <lane id="21402_0" index="0" disallow="pedestrian tram rail_urban rail rail_electric rail_fast ship" speed="36.11" length="14.00" width="3.50" customShape="1" shape="-441.48,651.86 -442.68,657.45 -443.36,662.02 -443.67,665.67"/>
    </edge>
    <edge id="21470" from="29" to="20" priority="3" type="highway.residential" spreadType="center" length="24.35" shape="-444.42,677.55 -401.55,683.09">
        <lane id="21470_0" index="0" disallow="pedestrian tram rail_urban rail rail_electric rail_fast ship" speed="36.11" length="24.35" width="3.50" customShape="1" shape="-425.90,683.00 -413.74,683.05 -401.55,683.09"/>
    </edge>
    <edge id="21471" from="27" to="29" priority="3" type="highway.residential" spreadType="center" length="24.37" shape="-401.56,686.59 -444.86,681.02">
        <lane id="21471_0" index="0" disallow="pedestrian tram rail_urban rail rail_electric rail_fast ship" speed="36.11" length="24.37" width="3.50" customShape="1" shape="-401.56,686.59 -413.75,686.55 -425.93,686.50"/>
    </edge>
    <edge id="21473" from="28" to="29" priority="3" type="highway.residential" spreadType="center" length="48.26" shape="-508.40,701.29 -445.14,677.64">
        <lane id="21473_0" index="0" disallow="pedestrian tram rail_urban rail rail_electric rail_fast ship" speed="36.11" length="48.26" width="3.50" customShape="1" shape="-508.40,701.29 -495.54,696.10 -483.98,691.84 -476.19,689.24 -469.76,687.46 -462.73,685.94"/>
    </edge>
    <edge id="21474" from="29" to="21" priority="3" type="highway.residential" spreadType="center" length="47.58" shape="-443.92,680.92 -507.07,704.53">
        <lane id="21474_0" index="0" disallow="pedestrian tram rail_urban rail rail_electric rail_fast ship" speed="36.11" length="47.58" width="3.50" customShape="1" shape="-462.06,689.37 -468.96,690.86 -475.25,692.61 -482.92,695.18 -494.35,699.39 -507.07,704.53"/>
    </edge>

    <junction id="11" type="dead_end" x="-520.81" y="602.46" incLanes="21293_0" intLanes="" shape="-521.46,604.09 -520.16,600.84" rightOfWay="edgePriority"/>
    <junction id="18" type="dead_end" x="-420.77" y="557.79" incLanes="21075_0" intLanes="" shape="-420.94,559.53 -420.61,556.05" rightOfWay="edgePriority"/>
    <junction id="19" type="dead_end" x="-344.26" y="668.14" incLanes="21345_0" intLanes="" shape="-343.62,666.51 -344.90,669.77" rightOfWay="edgePriority"/>
    <junction id="20" type="dead_end" x="-401.55" y="683.09" incLanes="21470_0" intLanes="" shape="-401.54,681.34 -401.55,684.84" rightOfWay="edgePriority"/>
    <junction id="21" type="dead_end" x="-507.07" y="704.53" incLanes="21474_0" intLanes="" shape="-506.42,706.15 -507.72,702.91" rightOfWay="edgePriority"/>
    <junction id="24" type="dead_end" x="-345.57" y="671.38" incLanes="" intLanes="" shape="-344.93,669.75 -346.21,673.01" rightOfWay="edgePriority"/>
    <junction id="25" type="dead_end" x="-519.50" y="599.22" incLanes="" intLanes="" shape="-520.15,600.84 -518.85,597.59" rightOfWay="edgePriority"/>
    <junction id="26" type="dead_end" x="-414.06" y="555.72" incLanes="" intLanes="" shape="-414.76,557.31 -413.35,554.12" rightOfWay="edgePriority"/>
    <junction id="27" type="dead_end" x="-401.56" y="686.59" incLanes="" intLanes="" shape="-401.55,684.84 -401.57,688.34" rightOfWay="edgePriority"/>
    <junction id="28" type="dead_end" x="-508.40" y="701.29" incLanes="" intLanes="" shape="-507.75,702.92 -509.06,699.67" rightOfWay="edgePriority"/>
    <junction id="29" type="priority" x="-444.57" y="679.29" incLanes="21471_0 21402_0 21473_0" intLanes=":29_0_0 :29_1_0 :29_2_0 :29_3_0 :29_4_0 :29_5_0" shape="-425.92,688.25 -425.89,681.25 -431.15,680.80 -435.37,679.51 -438.56,677.36 -440.71,674.36 -441.84,670.51 -441.93,665.82 -448.90,665.24 -449.67,670.27 -451.09,674.56 -453.14,678.10 -455.84,680.90 -459.18,682.94 -463.16,684.24 -461.69,691.08 -454.19,689.56 -448.61,688.65 -443.95,688.22 -439.27,688.11 -433.58,688.17">
        <request index="0" response="000000" foes="001000" cont="0"/>
        <request index="1" response="110000" foes="111000" cont="0"/>
        <request index="2" response="100000" foes="100000" cont="0"/>
        <request index="3" response="100011" foes="100011" cont="0"/>
        <request index="4" response="000000" foes="000010" cont="0"/>
        <request index="5" response="000000" foes="001110" cont="0"/>
    </junction>
    <junction id="30" type="priority" x="-421.42" y="633.06" incLanes="21344_0 21074_0 21297_0" intLanes=":30_0_0 :30_1_0 :30_2_0 :30_3_0 :30_4_0 :30_5_0" shape="-411.35,647.48 -408.79,640.96 -413.23,638.76 -416.51,636.10 -418.64,632.97 -419.60,629.38 -419.40,625.32 -418.05,620.80 -424.53,618.16 -434.48,631.48 -435.93,638.19">
        <request index="0" response="000000" foes="001000" cont="0"/>
        <request index="1" response="110000" foes="111000" cont="0"/>
        <request index="2" response="100000" foes="100000" cont="0"/>
        <request index="3" response="100011" foes="100011" cont="0"/>
        <request index="4" response="000000" foes="000010" cont="0"/>
        <request index="5" response="000000" foes="001110" cont="0"/>
    </junction>
    <junction id="31" type="priority" x="-443.88" y="637.91" incLanes="21296_0 21294_0 21401_0" intLanes=":31_0_0 :31_1_0 :31_2_0 :31_3_0 :31_4_0 :31_5_0" shape="-432.60,639.08 -430.85,632.50 -453.88,623.63 -456.49,630.13 -452.55,632.17 -449.53,634.77 -447.43,637.92 -446.24,641.64 -445.97,645.92 -446.61,650.75 -439.77,652.23">
        <request index="0" response="000000" foes="001000" cont="0"/>
        <request index="1" response="000000" foes="111000" cont="0"/>
        <request index="2" response="000000" foes="100000" cont="0"/>
        <request index="3" response="000011" foes="100011" cont="0"/>
        <request index="4" response="000010" foes="000010" cont="0"/>
        <request index="5" response="001110" foes="001110" cont="0"/>
    </junction>

    <connection from="21074" to="21345" fromLane="0" toLane="0" contPos="-4.00" shape="-419.66,620.14 -420.07,621.19 -420.77,623.35 -421.27,625.52 -421.52,627.69 -421.47,629.87 -421.32,630.89 -421.09,631.91 -420.78,632.91 -420.37,633.87 -419.88,634.80 -419.31,635.68 -418.66,636.52 -417.97,637.30 -416.33,638.78 -414.52,640.05 -412.59,641.16 -409.43,642.59" via=":30_2_0" dir="r" state="m"/>
    <connection from="21074" to="21296" fromLane="0" toLane="0" contPos="-4.00" shape="-419.66,620.14 -420.12,621.25 -422.02,625.55 -423.62,628.76 -425.45,631.88 -426.89,633.88 -427.76,634.87 -428.76,635.79 -429.98,636.58 -431.47,637.11 -433.36,637.15" via=":30_3_0" dir="l" state="m"/>
    <connection from="21294" to="21297" fromLane="0" toLane="0" contPos="-4.00" shape="-454.53,625.26 -442.60,629.99 -432.75,633.71" via=":31_2_0" dir="s" state="M"/>
    <connection from="21294" to="21402" fromLane="0" toLane="0" contPos="-4.00" shape="-454.53,625.26 -453.38,625.74 -451.16,626.84 -449.01,628.15 -447.00,629.70 -445.17,631.50 -443.59,633.55 -442.32,635.82 -441.39,638.24 -440.82,640.75 -440.56,643.28 -440.57,645.79 -440.80,648.28 -441.48,651.86" via=":31_3_0" dir="l" state="m"/>
    <connection from="21296" to="21402" fromLane="0" toLane="0" contPos="-4.00" shape="-433.78,637.05 -434.74,637.01 -435.62,637.44 -436.33,638.13 -436.92,638.92 -437.43,639.76 -437.88,640.64 -438.66,642.45 -439.34,644.30 -440.23,647.13 -441.25,650.94 -441.48,651.86" via=":31_0_0" dir="r" state="M"/>
    <connection from="21296" to="21293" fromLane="0" toLane="0" contPos="-4.00" shape="-433.78,637.05 -443.84,633.26 -455.84,628.50" via=":31_1_0" dir="s" state="M"/>
    <connection from="21297" to="21075" fromLane="0" toLane="0" contPos="-4.00" shape="-432.39,633.82 -431.41,633.71 -430.57,633.14 -429.86,632.41 -429.24,631.60 -428.66,630.76 -427.62,629.01 -426.20,626.29 -424.91,623.52 -423.30,619.77 -422.91,618.82" via=":30_4_0" dir="r" state="M"/>
    <connection from="21297" to="21345" fromLane="0" toLane="0" contPos="-4.00" shape="-432.39,633.82 -422.39,637.52 -409.43,642.59" via=":30_5_0" dir="s" state="M"/>
    <connection from="21344" to="21296" fromLane="0" toLane="0" contPos="-4.00" shape="-410.74,645.83 -423.61,640.80 -433.36,637.15" via=":30_0_0" dir="s" state="M"/>
    <connection from="21344" to="21075" fromLane="0" toLane="0" contPos="-4.00" shape="-410.74,645.83 -414.33,644.21 -416.60,642.91 -418.73,641.39 -420.67,639.63 -421.55,638.65 -422.34,637.61 -423.05,636.51 -423.66,635.35 -424.16,634.14 -424.56,632.89 -424.84,631.61 -425.02,630.32 -425.07,627.70 -424.77,625.09 -424.19,622.54 -423.38,620.05 -422.91,618.82" via=":30_1_0" dir="l" state="m"/>
    <connection from="21401" to="21293" fromLane="0" toLane="0" contPos="-4.00" shape="-444.89,651.08 -444.29,647.92 -444.09,645.78 -444.07,643.63 -444.29,641.50 -444.76,639.40 -445.51,637.39 -446.56,635.52 -447.86,633.81 -449.39,632.30 -451.09,630.99 -452.92,629.87 -454.85,628.92 -455.84,628.50" via=":31_4_0" dir="r" state="m"/>
    <connection from="21401" to="21297" fromLane="0" toLane="0" contPos="-4.00" shape="-444.89,651.08 -444.61,649.93 -443.35,645.44 -442.18,642.09 -441.23,639.87 -440.06,637.72 -439.32,636.64 -438.45,635.62 -437.38,634.71 -436.08,633.99 -434.54,633.60 -432.75,633.71" via=":31_5_0" dir="l" state="m"/>
    <connection from="21402" to="21470" fromLane="0" toLane="0" contPos="-4.00" shape="-443.66,665.57 -443.70,667.88 -443.55,670.16 -443.17,672.37 -442.51,674.50 -442.09,675.46 -441.58,676.41 -440.99,677.29 -440.33,678.12 -439.59,678.88 -438.78,679.57 -437.90,680.18 -436.97,680.73 -436.01,681.20 -433.89,681.98 -431.69,682.50 -429.43,682.82 -425.90,683.00" via=":29_2_0" dir="r" state="m"/>
    <connection from="21402" to="21474" fromLane="0" toLane="0" contPos="-4.00" shape="-443.66,665.57 -443.74,666.77 -444.17,670.27 -444.95,673.75 -445.71,676.06 -446.69,678.29 -447.91,680.43 -449.39,682.41 -451.12,684.20 -453.06,685.75 -455.18,687.03 -457.41,688.05 -459.72,688.83 -462.06,689.37" via=":29_3_0" dir="l" state="m"/>
    <connection from="21471" to="21474" fromLane="0" toLane="0" contPos="-4.00" shape="-425.93,686.50 -430.09,686.52 -439.45,686.80 -447.73,687.39 -454.93,688.22 -462.06,689.37" via=":29_0_0" dir="s" state="M"/>
    <connection from="21471" to="21401" fromLane="0" toLane="0" contPos="-4.00" shape="-425.93,686.50 -429.94,686.30 -432.59,685.91 -435.19,685.29 -437.69,684.36 -438.89,683.77 -440.04,683.09 -441.13,682.31 -442.14,681.44 -443.07,680.48 -443.90,679.43 -444.64,678.32 -445.27,677.14 -445.80,675.91 -446.58,673.36 -447.03,670.72 -447.20,668.06 -447.16,665.38" via=":29_1_0" dir="l" state="m"/>
    <connection from="21473" to="21401" fromLane="0" toLane="0" contPos="-4.00" shape="-462.73,685.94 -460.70,685.46 -458.72,684.80 -456.83,683.92 -455.05,682.83 -453.43,681.51 -451.99,680.00 -450.76,678.31 -449.74,676.49 -448.91,674.58 -448.27,672.59 -447.60,669.53 -447.22,666.43 -447.16,665.38" via=":29_4_0" dir="r" state="M"/>
    <connection from="21473" to="21470" fromLane="0" toLane="0" contPos="-4.00" shape="-462.73,685.94 -455.43,684.75 -448.08,683.91 -439.65,683.31 -430.15,683.02 -425.90,683.00" via=":29_5_0" dir="s" state="M"/>

    <connection from=":29_0" to="21474" fromLane="0" toLane="0" dir="s" state="M"/>
    <connection from=":29_1" to="21401" fromLane="0" toLane="0" dir="l" state="M"/>
    <connection from=":29_2" to="21470" fromLane="0" toLane="0" dir="r" state="M"/>
    <connection from=":29_3" to="21474" fromLane="0" toLane="0" dir="l" state="M"/>
    <connection from=":29_4" to="21401" fromLane="0" toLane="0" dir="r" state="M"/>
    <connection from=":29_5" to="21470" fromLane="0" toLane="0" dir="s" state="M"/>
    <connection from=":30_0" to="21296" fromLane="0" toLane="0" dir="s" state="M"/>
    <connection from=":30_1" to="21075" fromLane="0" toLane="0" dir="l" state="M"/>
    <connection from=":30_2" to="21345" fromLane="0" toLane="0" dir="r" state="M"/>
    <connection from=":30_3" to="21296" fromLane="0" toLane="0" dir="l" state="M"/>
    <connection from=":30_4" to="21075" fromLane="0" toLane="0" dir="r" state="M"/>
    <connection from=":30_5" to="21345" fromLane="0" toLane="0" dir="s" state="M"/>
    <connection from=":31_0" to="21402" fromLane="0" toLane="0" dir="r" state="M"/>
    <connection from=":31_1" to="21293" fromLane="0" toLane="0" dir="s" state="M"/>
    <connection from=":31_2" to="21297" fromLane="0" toLane="0" dir="s" state="M"/>
    <connection from=":31_3" to="21402" fromLane="0" toLane="0" dir="l" state="M"/>
    <connection from=":31_4" to="21293" fromLane="0" toLane="0" dir="r" state="M"/>
    <connection from=":31_5" to="21297" fromLane="0" toLane="0" dir="l" state="M"/>

</net>