<routes>
	<vehicle depart="0.1" departLane="0" departPos="13.659839531802259" departSpeed="1.8176694" id="37" type="bicycle">
		<route edges=":22_3 14460"/>
	</vehicle>
	<vehicle depart="0.1" departLane="0" departPos="19.381957178460496" departSpeed="2.2976102" id="314" type="bicycle">
		<route edges=":22_3 14460"/>
	</vehicle>
	<vehicle depart="0.1" departLane="0" departPos="27.31474255474111" departSpeed="14.537513" id="337" type="passenger">
		<route edges=":22_2 14234 14942"/>
	</vehicle>
	<vehicle depart="0.1" departLane="0" departPos="51.26143243472795" departSpeed="0.39776129" id="30" type="truck">
		<route edges="14459 14234"/>
	</vehicle>
</routes>
