<routes>
	<vehicle depart="0.1" departLane="0" departPos="56.648670883262724" departSpeed="0.021453743" id="312" type="bicycle">
		<route edges="5832 6024"/>
	</vehicle>
	<vehicle depart="0.1" departLane="0" departPos="64.14771872849253" departSpeed="10.12172" id="353" type="bus">
		<route edges="6030 5930"/>
	</vehicle>
	<vehicle depart="0.1" departLane="0" departPos="16.358022426152495" departSpeed="1.2689633" id="31" type="passenger">
		<route edges=":29_5 5930 5486"/>
	</vehicle>
	<vehicle depart="0.1" departLane="0" departPos="2.5" departSpeed="0.21366059" id="32" type="passenger">
		<route edges="5929 6027"/>
	</vehicle>
	<vehicle depart="0.1" departLane="0" departPos="28.412807095777755" departSpeed="1.525095" id="38" type="passenger">
		<route edges="5929 6031"/>
	</vehicle>
	<vehicle depart="0.1" departLane="0" departPos="16.439315707913245" departSpeed="0.45864187" id="310" type="passenger">
		<route edges=":30_4 6028"/>
	</vehicle>
	<vehicle depart="0.1" departLane="0" departPos="13.280905835454073" departSpeed="1.9389925" id="315" type="passenger">
		<route edges=":31_0 5929"/>
	</vehicle>
	<vehicle depart="0.1" departLane="0" departPos="9.622271647359593" departSpeed="1.7404461" id="319" type="passenger">
		<route edges=":29_0 6027"/>
	</vehicle>
	<vehicle depart="0.1" departLane="0" departPos="23.375219703489485" departSpeed="6.6798162" id="351" type="passenger">
		<route edges=":29_0 6027 5831"/>
	</vehicle>
	<vehicle depart="0.1" departLane="0" departPos="39.79815051398227" departSpeed="9.7346936" id="354" type="passenger">
		<route edges="6030 5930"/>
	</vehicle>
</routes>
