<!-- generated on Tue Feb  9 22:20:33 2021 by Eclipse SUMO netconvert Version 1.8.0
<configuration xmlns:xsi="http://www.w3.org/2001/XMLSchema-instance" xsi:noNamespaceSchemaLocation="http://sumo.dlr.de/xsd/netconvertConfiguration.xsd">

    <input>
        <node-files value="./converted_scenarios/scenario-factory/ITA_Empoli-1_1_I-1-1/ITA_Empoli-1_1_I-1-1.nod.xml"/>
        <edge-files value="./converted_scenarios/scenario-factory/ITA_Empoli-1_1_I-1-1/ITA_Empoli-1_1_I-1-1.edg.xml"/>
        <connection-files value="./converted_scenarios/scenario-factory/ITA_Empoli-1_1_I-1-1/ITA_Empoli-1_1_I-1-1.con.xml"/>
        <tllogic-files value="./converted_scenarios/scenario-factory/ITA_Empoli-1_1_I-1-1/ITA_Empoli-1_1_I-1-1.tll.xml"/>
        <type-files value="/home/zen/commonroad-interactive-benchmarks/install/commonroad-map-tool/crmapconverter/sumo_map/templates/DEU.typ.xml"/>
    </input>

    <output>
        <output-file value="./converted_scenarios/scenario-factory/ITA_Empoli-1_1_I-1-1/ITA_Empoli-1_1_I-1-1.net.xml"/>
    </output>

    <processing>
        <geometry.remove.keep-edges.explicit value="true"/>
        <geometry.avoid-overlap value="true"/>
        <offset.disable-normalization value="true"/>
    </processing>

    <junctions>
        <no-turnarounds value="true"/>
        <junctions.internal-link-detail value="20"/>
    </junctions>

    <report>
        <aggregate-warnings value="5"/>
    </report>

    <random_number>
        <seed value="1234"/>
    </random_number>

</configuration>
--><net xmlns:xsi="http://www.w3.org/2001/XMLSchema-instance" version="1.6" junctionCornerDetail="5" junctionLinkDetail="20" limitTurnSpeed="5.50" xsi:noNamespaceSchemaLocation="http://sumo.dlr.de/xsd/net_file.xsd">

    <location netOffset="0.00,0.00" convBoundary="113.35,643.94,453.98,911.63" origBoundary="113.35,643.94,453.98,911.63" projParameter="!"/>

    <type id="highway.bridleway" priority="1" speed="2.78" allow="pedestrian" oneway="1" width="2.00"/>
    <type id="highway.bus_guideway" priority="1" speed="27.78" allow="bus" oneway="1"/>
    <type id="highway.cycleway" priority="1" speed="8.33" allow="bicycle" oneway="0" width="1.00"/>
    <type id="highway.footway" priority="1" speed="2.78" allow="pedestrian" oneway="1" width="2.00"/>
    <type id="highway.ford" priority="1" speed="2.78" allow="army" oneway="0"/>
    <type id="highway.living_street" priority="2" speed="2.78" disallow="tram rail_urban rail rail_electric rail_fast ship" oneway="0"/>
    <type id="highway.motorway" priority="14" speed="39.44" allow="private emergency authority army vip passenger hov taxi bus coach delivery truck trailer motorcycle evehicle custom1 custom2" oneway="1"/>
    <type id="highway.motorway_link" priority="9" speed="22.22" allow="private emergency authority army vip passenger hov taxi bus coach delivery truck trailer motorcycle evehicle custom1 custom2" oneway="1"/>
    <type id="highway.path" priority="1" speed="2.78" allow="pedestrian bicycle" oneway="0" width="2.00"/>
    <type id="highway.pedestrian" priority="1" speed="2.78" allow="pedestrian" oneway="1" width="2.00"/>
    <type id="highway.primary" priority="12" speed="27.78" disallow="pedestrian tram rail_urban rail rail_electric rail_fast ship" oneway="0"/>
    <type id="highway.primary_link" priority="7" speed="22.22" disallow="pedestrian tram rail_urban rail rail_electric rail_fast ship" oneway="0"/>
    <type id="highway.raceway" priority="15" speed="83.33" allow="vip" oneway="0"/>
    <type id="highway.residential" priority="3" speed="13.89" disallow="pedestrian tram rail_urban rail rail_electric rail_fast ship" oneway="0"/>
    <type id="highway.secondary" priority="11" speed="27.78" disallow="pedestrian tram rail_urban rail rail_electric rail_fast ship" oneway="0"/>
    <type id="highway.secondary_link" priority="6" speed="22.22" disallow="pedestrian tram rail_urban rail rail_electric rail_fast ship" oneway="0"/>
    <type id="highway.service" priority="1" speed="5.56" allow="pedestrian delivery bicycle" oneway="0"/>
    <type id="highway.stairs" priority="1" speed="1.39" allow="pedestrian" oneway="1" width="2.00"/>
    <type id="highway.step" priority="1" speed="1.39" allow="pedestrian" oneway="1" width="2.00"/>
    <type id="highway.steps" priority="1" speed="1.39" allow="pedestrian" oneway="1" width="2.00"/>
    <type id="highway.tertiary" priority="10" speed="22.22" disallow="pedestrian tram rail_urban rail rail_electric rail_fast ship" oneway="0"/>
    <type id="highway.tertiary_link" priority="5" speed="22.22" disallow="pedestrian tram rail_urban rail rail_electric rail_fast ship" oneway="0"/>
    <type id="highway.track" priority="1" speed="5.56" allow="pedestrian motorcycle moped bicycle" oneway="0"/>
    <type id="highway.trunk" priority="13" speed="27.78" disallow="pedestrian bicycle tram rail_urban rail rail_electric rail_fast ship" oneway="0"/>
    <type id="highway.trunk_link" priority="8" speed="22.22" disallow="pedestrian bicycle tram rail_urban rail rail_electric rail_fast ship" oneway="0"/>
    <type id="highway.unclassified" priority="4" speed="13.89" disallow="pedestrian tram rail_urban rail rail_electric rail_fast ship" oneway="0"/>
    <type id="highway.unsurfaced" priority="1" speed="8.33" disallow="tram rail_urban rail rail_electric rail_fast ship" oneway="0"/>
    <type id="railway.highspeed" priority="21" speed="69.44" allow="rail_fast" oneway="1"/>
    <type id="railway.light_rail" priority="19" speed="27.78" allow="rail_urban" oneway="1"/>
    <type id="railway.preserved" priority="16" speed="27.78" allow="rail" oneway="1"/>
    <type id="railway.rail" priority="20" speed="44.44" allow="rail" oneway="1"/>
    <type id="railway.subway" priority="18" speed="27.78" allow="rail_urban" oneway="1"/>
    <type id="railway.tram" priority="17" speed="13.89" allow="tram" oneway="1"/>

    <edge id=":16_0" function="internal">
        <lane id=":16_0_0" index="0" disallow="pedestrian tram rail_urban rail rail_electric rail_fast ship" speed="36.11" length="2.85" width="3.50" shape="295.50,847.48 296.15,850.26"/>
    </edge>
    <edge id=":17_0" function="internal">
        <lane id=":17_0_0" index="0" disallow="pedestrian tram rail_urban rail rail_electric rail_fast ship" speed="36.11" length="3.12" width="3.50" shape="271.93,872.85 274.98,872.20"/>
    </edge>
    <edge id=":18_0" function="internal">
        <lane id=":18_0_0" index="0" disallow="pedestrian tram rail_urban rail rail_electric rail_fast ship" speed="36.11" length="3.34" width="3.50" shape="249.21,862.46 248.22,859.27"/>
    </edge>
    <edge id=":22_0" function="internal">
        <lane id=":22_0_0" index="0" disallow="pedestrian tram rail_urban rail rail_electric rail_fast ship" speed="36.11" length="0.10" width="3.50" shape="292.46,849.70 292.46,849.70"/>
    </edge>
    <edge id=":23_0" function="internal">
        <lane id=":23_0_0" index="0" disallow="pedestrian tram rail_urban rail rail_electric rail_fast ship" speed="36.11" length="3.20" width="3.50" shape="281.90,874.03 278.81,874.86"/>
    </edge>
    <edge id=":24_0" function="internal">
        <lane id=":24_0_0" index="0" disallow="pedestrian tram rail_urban rail rail_electric rail_fast ship" speed="36.11" length="3.19" width="3.50" shape="277.95,871.47 281.03,870.64"/>
    </edge>
    <edge id=":25_0" function="internal">
        <lane id=":25_0_0" index="0" disallow="pedestrian tram rail_urban rail rail_electric rail_fast ship" speed="36.11" length="0.10" width="3.50" shape="274.25,875.98 274.25,875.98"/>
    </edge>
    <edge id=":3_0" function="internal">
        <lane id=":3_0_0" index="0" disallow="pedestrian tram rail_urban rail rail_electric rail_fast ship" speed="36.11" length="3.33" width="3.50" shape="251.57,858.27 252.56,861.45"/>
    </edge>
    <edge id=":57_0" function="internal">
        <lane id=":57_0_0" index="0" disallow="pedestrian tram rail_urban rail rail_electric rail_fast ship" speed="36.11" length="0.30" width="3.50" shape="133.30,707.45 133.21,707.16"/>
    </edge>
    <edge id=":62_0" function="internal">
        <lane id=":62_0_0" index="0" disallow="pedestrian tram rail_urban rail rail_electric rail_fast ship" speed="36.11" length="3.00" width="3.50" shape="136.15,704.85 137.04,707.71"/>
    </edge>
    <edge id=":63_0" function="internal">
        <lane id=":63_0_0" index="0" disallow="pedestrian tram rail_urban rail rail_electric rail_fast ship" speed="36.11" length="3.00" width="3.50" shape="125.59,682.93 124.67,680.07"/>
    </edge>
    <edge id=":74_0" function="internal">
        <lane id=":74_0_0" index="0" disallow="pedestrian tram rail_urban rail rail_electric rail_fast ship" speed="36.11" length="2.99" width="3.50" shape="128.00,679.00 128.92,681.85"/>
    </edge>
    <edge id=":81_0" function="internal">
        <lane id=":81_0_0" index="0" disallow="pedestrian tram rail_urban rail rail_electric rail_fast ship" speed="14.75" length="34.99" width="3.50" shape="241.38,835.34 240.41,832.21 238.87,828.11 237.53,825.17 235.98,822.34 234.21,819.67 232.18,817.22 230.71,815.77 229.10,814.45 227.39,813.30 225.57,812.34 223.66,811.58 221.67,811.02 219.60,810.66"/>
    </edge>
    <edge id=":81_1" function="internal">
        <lane id=":81_1_0" index="0" disallow="pedestrian tram rail_urban rail rail_electric rail_fast ship" speed="11.36" length="38.95" width="3.50" shape="241.38,835.34 240.39,831.20 239.97,828.34 239.84,825.43 239.92,823.91 240.13,822.40 240.50,820.89 241.05,819.40 241.81,817.98 242.78,816.67 243.93,815.53 245.23,814.57 246.63,813.82 248.07,813.24 249.53,812.81 251.03,812.52 253.92,812.23 256.82,812.24 261.03,812.63"/>
    </edge>
    <edge id=":81_2" function="internal">
        <lane id=":81_2_0" index="0" disallow="pedestrian tram rail_urban rail rail_electric rail_fast ship" speed="10.29" length="31.67" width="3.50" shape="260.58,816.10 256.94,815.76 254.51,815.76 252.08,815.99 250.89,816.23 249.72,816.57 248.58,817.02 247.51,817.60 246.53,818.32 245.67,819.18 244.94,820.15 244.37,821.23 243.95,822.37 243.66,823.56 243.49,824.76 243.43,825.98 243.54,828.41 243.89,830.82 244.74,834.38"/>
    </edge>
    <edge id=":81_3" function="internal">
        <lane id=":81_3_0" index="0" disallow="pedestrian tram rail_urban rail rail_electric rail_fast ship" speed="36.11" length="41.34" width="3.50" shape="260.58,816.10 240.11,813.38 219.60,810.66"/>
    </edge>
    <edge id=":81_4" function="internal">
        <lane id=":81_4_0" index="0" disallow="pedestrian tram rail_urban rail rail_electric rail_fast ship" speed="36.11" length="41.35" width="3.50" shape="220.04,807.19 240.57,809.91 261.03,812.63"/>
    </edge>
    <edge id=":81_5" function="internal">
        <lane id=":81_5_0" index="0" disallow="pedestrian tram rail_urban rail rail_electric rail_fast ship" speed="15.57" length="39.08" width="3.50" shape="220.04,807.18 222.40,807.60 224.68,808.23 226.89,809.09 228.99,810.17 230.97,811.46 232.82,812.94 234.53,814.58 236.82,817.29 238.81,820.23 240.53,823.34 242.02,826.56 243.69,830.99 244.74,834.38"/>
    </edge>
    <edge id=":82_0" function="internal">
        <lane id=":82_0_0" index="0" disallow="pedestrian tram rail_urban rail rail_electric rail_fast ship" speed="36.11" length="41.33" width="3.50" shape="168.52,826.03 162.71,806.18 156.91,786.36"/>
    </edge>
    <edge id=":82_1" function="internal">
        <lane id=":82_1_0" index="0" disallow="pedestrian tram rail_urban rail rail_electric rail_fast ship" speed="11.43" length="39.38" width="3.50" shape="168.52,826.03 167.42,821.59 166.97,818.60 166.81,815.58 166.89,814.07 167.09,812.57 167.44,811.10 167.95,809.68 168.66,808.34 169.55,807.12 170.61,806.05 171.83,805.14 173.15,804.41 174.55,803.84 176.00,803.40 177.48,803.09 180.49,802.77 183.51,802.75 188.06,803.13"/>
    </edge>
    <edge id=":82_2" function="internal">
        <lane id=":82_2_0" index="0" disallow="pedestrian tram rail_urban rail rail_electric rail_fast ship" speed="10.37" length="32.09" width="3.50" shape="187.62,806.60 183.67,806.27 181.10,806.29 178.56,806.56 177.38,806.81 176.22,807.15 175.13,807.60 174.13,808.15 173.23,808.82 172.45,809.60 171.80,810.49 171.28,811.48 170.89,812.56 170.63,813.70 170.47,814.90 170.41,816.10 170.54,818.65 170.92,821.19 171.88,825.04"/>
    </edge>
    <edge id=":82_3" function="internal">
        <lane id=":82_3_0" index="0" disallow="pedestrian tram rail_urban rail rail_electric rail_fast ship" speed="15.63" length="39.09" width="3.50" shape="187.62,806.60 183.05,805.88 178.57,804.86 175.28,803.85 172.06,802.60 168.98,801.07 166.07,799.22 164.26,797.79 162.59,796.22 161.08,794.49 159.74,792.62 158.60,790.63 157.65,788.53 156.91,786.36"/>
    </edge>
    <edge id=":82_4" function="internal">
        <lane id=":82_4_0" index="0" disallow="pedestrian tram rail_urban rail rail_electric rail_fast ship" speed="14.81" length="35.05" width="3.50" shape="160.26,785.35 160.92,787.27 161.75,789.10 162.76,790.83 163.94,792.45 165.28,793.94 166.76,795.31 168.36,796.54 170.98,798.17 173.77,799.52 176.70,800.64 179.71,801.54 183.84,802.47 188.06,803.13"/>
    </edge>
    <edge id=":82_5" function="internal">
        <lane id=":82_5_0" index="0" disallow="pedestrian tram rail_urban rail rail_electric rail_fast ship" speed="36.11" length="41.36" width="3.50" shape="160.26,785.35 166.07,805.20 171.88,825.04"/>
    </edge>
    <edge id=":83_0" function="internal">
        <lane id=":83_0_0" index="0" disallow="pedestrian tram rail_urban rail rail_electric rail_fast ship" speed="14.59" length="34.65" width="3.50" shape="290.44,841.98 289.54,838.84 288.10,834.75 286.82,831.81 285.34,828.99 283.63,826.33 281.65,823.88 280.20,822.43 278.63,821.11 276.94,819.97 275.14,819.00 273.25,818.23 271.29,817.66 269.25,817.29"/>
    </edge>
    <edge id=":83_1" function="internal">
        <lane id=":83_1_0" index="0" disallow="pedestrian tram rail_urban rail rail_electric rail_fast ship" speed="11.48" length="39.06" width="3.50" shape="290.44,841.98 289.48,837.55 289.11,834.57 289.04,831.57 289.15,830.07 289.38,828.59 289.75,827.14 290.29,825.73 291.00,824.41 291.89,823.20 292.94,822.14 294.14,821.23 295.45,820.49 296.83,819.91 298.26,819.47 299.73,819.15 302.71,818.80 305.72,818.77 310.21,819.15"/>
    </edge>
    <edge id=":83_2" function="internal">
        <lane id=":83_2_0" index="0" disallow="pedestrian tram rail_urban rail rail_electric rail_fast ship" speed="10.42" length="31.92" width="3.50" shape="309.79,822.62 305.86,822.29 303.32,822.32 300.80,822.61 299.64,822.86 298.49,823.22 297.42,823.67 296.43,824.23 295.54,824.91 294.76,825.69 294.11,826.58 293.58,827.57 293.17,828.64 292.88,829.78 292.70,830.97 292.61,832.17 292.67,834.71 292.98,837.24 293.82,841.09"/>
    </edge>
    <edge id=":83_3" function="internal">
        <lane id=":83_3_0" index="0" disallow="pedestrian tram rail_urban rail rail_electric rail_fast ship" speed="36.11" length="40.89" width="3.50" shape="309.79,822.62 289.52,819.95 269.25,817.29"/>
    </edge>
    <edge id=":83_4" function="internal">
        <lane id=":83_4_0" index="0" disallow="pedestrian tram rail_urban rail rail_electric rail_fast ship" speed="36.11" length="40.84" width="3.50" shape="269.72,813.82 289.98,816.48 310.21,819.15"/>
    </edge>
    <edge id=":83_5" function="internal">
        <lane id=":83_5_0" index="0" disallow="pedestrian tram rail_urban rail rail_electric rail_fast ship" speed="15.42" length="38.78" width="3.50" shape="269.72,813.82 272.05,814.25 274.31,814.89 276.49,815.76 278.57,816.85 280.53,818.14 282.35,819.63 284.02,821.27 286.26,823.99 288.20,826.93 289.86,830.03 291.27,833.26 292.84,837.68 293.82,841.09"/>
    </edge>
    <edge id=":84_0" function="internal">
        <lane id=":84_0_0" index="0" disallow="pedestrian tram rail_urban rail rail_electric rail_fast ship" speed="15.44" length="36.35" width="3.50" shape="345.26,840.71 344.51,838.82 343.58,837.04 342.47,835.37 341.18,833.83 339.76,832.41 337.34,830.50 334.71,828.88 331.90,827.51 328.97,826.36 324.91,825.13 320.76,824.19 315.48,823.35"/>
    </edge>
    <edge id=":84_1" function="internal">
        <lane id=":84_1_0" index="0" disallow="pedestrian tram rail_urban rail rail_electric rail_fast ship" speed="36.11" length="42.06" width="3.50" shape="345.26,840.71 342.93,833.90 331.38,801.01"/>
    </edge>
    <edge id=":84_2" function="internal">
        <lane id=":84_2_0" index="0" disallow="pedestrian tram rail_urban rail rail_electric rail_fast ship" speed="36.11" length="42.08" width="3.50" shape="334.68,799.84 346.24,832.76 348.56,839.56"/>
    </edge>
    <edge id=":84_3" function="internal">
        <lane id=":84_3_0" index="0" disallow="pedestrian tram rail_urban rail rail_electric rail_fast ship" speed="11.38" length="40.31" width="3.50" shape="334.68,799.84 335.97,804.04 336.60,806.96 336.94,809.95 336.96,811.52 336.84,813.10 336.55,814.69 336.06,816.26 335.33,817.77 334.35,819.17 333.16,820.37 331.81,821.37 330.36,822.14 328.87,822.73 327.35,823.15 325.81,823.45 322.83,823.73 319.84,823.73 315.48,823.35"/>
    </edge>
    <edge id=":84_4" function="internal">
        <lane id=":84_4_0" index="0" disallow="pedestrian tram rail_urban rail rail_electric rail_fast ship" speed="10.30" length="32.75" width="3.50" shape="315.92,819.88 319.68,820.20 322.20,820.21 324.71,819.97 325.95,819.73 327.16,819.40 328.33,818.94 329.45,818.35 330.46,817.61 331.35,816.71 332.07,815.68 332.62,814.55 333.00,813.35 333.23,812.11 333.32,810.85 333.31,809.59 333.03,807.09 332.50,804.63 331.38,801.01"/>
    </edge>
    <edge id=":84_5" function="internal">
        <lane id=":84_5_0" index="0" disallow="pedestrian tram rail_urban rail rail_electric rail_fast ship" speed="16.24" length="40.24" width="3.50" shape="315.92,819.88 321.59,820.79 326.07,821.82 330.47,823.18 333.67,824.46 336.75,826.01 339.67,827.85 342.34,830.03 343.96,831.66 345.40,833.45 346.66,835.37 347.72,837.42 348.56,839.56"/>
    </edge>
    <edge id=":85_0" function="internal">
        <lane id=":85_0_0" index="0" disallow="pedestrian tram rail_urban rail rail_electric rail_fast ship" speed="11.64" length="29.55" width="3.50" shape="302.39,719.69 301.56,717.59 300.56,715.60 299.40,713.74 298.04,712.06 296.49,710.60 294.72,709.38 293.81,708.91 292.88,708.51 290.81,707.88 288.67,707.55 286.48,707.48 284.27,707.63 282.06,707.96 278.73,708.76"/>
    </edge>
    <edge id=":85_1" function="internal">
        <lane id=":85_1_0" index="0" disallow="pedestrian tram rail_urban rail rail_electric rail_fast ship" speed="36.11" length="38.55" width="3.50" shape="302.39,719.69 295.84,701.55 289.30,683.43"/>
    </edge>
    <edge id=":85_2" function="internal">
        <lane id=":85_2_0" index="0" disallow="pedestrian tram rail_urban rail rail_electric rail_fast ship" speed="36.11" length="38.56" width="3.50" shape="292.59,682.23 299.13,700.36 305.68,718.50"/>
    </edge>
    <edge id=":85_3" function="internal">
        <lane id=":85_3_0" index="0" disallow="pedestrian tram rail_urban rail rail_electric rail_fast ship" speed="11.97" length="34.81" width="3.50" shape="292.59,682.23 293.01,683.46 293.72,685.94 294.22,688.52 294.45,691.18 294.31,693.86 294.08,695.24 293.73,696.59 293.25,697.90 292.65,699.16 291.93,700.35 291.11,701.47 290.19,702.50 289.18,703.47 287.07,705.08 284.77,706.42 282.38,707.51 278.73,708.76"/>
    </edge>
    <edge id=":85_4" function="internal">
        <lane id=":85_4_0" index="0" disallow="pedestrian tram rail_urban rail rail_electric rail_fast ship" speed="10.95" length="28.96" width="3.50" shape="277.76,705.39 280.92,704.32 282.95,703.39 284.88,702.28 286.65,700.93 287.46,700.16 288.20,699.33 288.86,698.43 289.44,697.48 289.92,696.47 290.30,695.43 290.58,694.35 290.77,693.25 290.89,691.03 290.70,688.81 290.28,686.62 289.66,684.48 289.30,683.43"/>
    </edge>
    <edge id=":85_5" function="internal">
        <lane id=":85_5_0" index="0" disallow="pedestrian tram rail_urban rail rail_electric rail_fast ship" speed="12.61" length="34.88" width="3.50" shape="277.76,705.39 281.53,704.49 284.09,704.11 286.67,703.94 289.25,704.04 291.80,704.45 294.27,705.20 295.45,705.72 296.59,706.33 298.71,707.80 300.59,709.58 302.20,711.59 303.58,713.78 304.73,716.10 305.68,718.50"/>
    </edge>
    <edge id=":86_0" function="internal">
        <lane id=":86_0_0" index="0" disallow="pedestrian tram rail_urban rail rail_electric rail_fast ship" speed="36.11" length="38.76" width="3.50" shape="381.79,886.01 372.65,888.34 344.17,895.34"/>
    </edge>
    <edge id=":86_1" function="internal">
        <lane id=":86_1_0" index="0" disallow="pedestrian tram rail_urban rail rail_electric rail_fast ship" speed="12.65" length="34.86" width="3.50" shape="381.79,886.01 380.55,886.30 378.06,886.74 375.49,886.94 372.89,886.85 370.30,886.42 367.80,885.63 366.55,885.07 365.39,884.42 364.25,883.67 362.25,882.01 360.48,880.10 358.96,878.02 357.66,875.82 356.55,873.54 355.21,870.09"/>
    </edge>
    <edge id=":86_2" function="internal">
        <lane id=":86_2_0" index="0" disallow="pedestrian tram rail_urban rail rail_electric rail_fast ship" speed="11.68" length="29.56" width="3.50" shape="358.53,868.97 359.70,872.01 360.66,873.98 361.77,875.87 363.05,877.65 364.53,879.27 366.21,880.68 367.12,881.29 368.08,881.82 369.07,882.28 371.16,882.96 373.32,883.33 375.51,883.41 377.69,883.25 379.85,882.87 380.92,882.62"/>
    </edge>
    <edge id=":86_3" function="internal">
        <lane id=":86_3_0" index="0" disallow="pedestrian tram rail_urban rail rail_electric rail_fast ship" speed="11.94" length="35.09" width="3.50" shape="358.53,868.97 359.58,872.69 360.05,875.30 360.25,877.98 360.11,880.66 359.87,882.06 359.52,883.41 359.05,884.74 358.44,886.01 357.71,887.22 356.87,888.35 355.94,889.39 354.89,890.36 352.71,891.95 350.34,893.23 347.88,894.24 344.17,895.34"/>
    </edge>
    <edge id=":86_4" function="internal">
        <lane id=":86_4_0" index="0" disallow="pedestrian tram rail_urban rail rail_electric rail_fast ship" speed="10.93" length="29.19" width="3.50" shape="343.32,891.94 346.56,890.99 348.64,890.14 350.61,889.06 352.43,887.74 353.25,886.97 354.00,886.14 354.67,885.24 355.25,884.27 355.73,883.26 356.11,882.20 356.39,881.11 356.57,880.00 356.69,877.76 356.52,875.52 356.12,873.30 355.21,870.09"/>
    </edge>
    <edge id=":86_5" function="internal">
        <lane id=":86_5_0" index="0" disallow="pedestrian tram rail_urban rail rail_electric rail_fast ship" speed="36.11" length="38.74" width="3.50" shape="343.32,891.94 371.79,884.95 380.92,882.62"/>
    </edge>
    <edge id=":87_0" function="internal">
        <lane id=":87_0_0" index="0" disallow="pedestrian tram rail_urban rail rail_electric rail_fast ship" speed="36.11" length="38.58" width="3.50" shape="150.65,764.94 149.48,760.94 139.58,727.98"/>
    </edge>
    <edge id=":87_1" function="internal">
        <lane id=":87_1_0" index="0" disallow="pedestrian tram rail_urban rail rail_electric rail_fast ship" speed="12.29" length="34.28" width="3.50" shape="150.65,764.94 150.02,762.46 149.58,759.92 149.38,757.31 149.49,754.66 149.96,752.05 150.36,750.71 150.86,749.45 151.47,748.23 152.18,747.06 152.98,745.96 153.86,744.94 154.84,743.97 156.88,742.32 159.10,740.93 161.43,739.77 164.98,738.41"/>
    </edge>
    <edge id=":87_2" function="internal">
        <lane id=":87_2_0" index="0" disallow="pedestrian tram rail_urban rail rail_electric rail_fast ship" speed="11.30" length="28.81" width="3.50" shape="166.06,741.74 162.97,742.92 160.99,743.90 159.11,745.08 157.38,746.47 156.59,747.26 155.87,748.10 155.21,748.99 154.63,749.94 154.14,750.93 153.73,751.96 153.41,753.02 153.01,755.20 152.92,757.42 153.08,759.63 153.46,761.81 154.01,763.96"/>
    </edge>
    <edge id=":87_3" function="internal">
        <lane id=":87_3_0" index="0" disallow="pedestrian tram rail_urban rail rail_electric rail_fast ship" speed="12.16" length="34.25" width="3.50" shape="166.06,741.74 163.63,742.44 161.11,742.96 158.52,743.24 155.88,743.23 153.26,742.86 151.91,742.51 150.63,742.05 149.38,741.48 148.20,740.79 147.08,740.01 146.04,739.13 145.06,738.16 143.40,736.12 142.02,733.89 140.88,731.54 139.58,727.98"/>
    </edge>
    <edge id=":87_4" function="internal">
        <lane id=":87_4_0" index="0" disallow="pedestrian tram rail_urban rail rail_electric rail_fast ship" speed="11.16" length="28.63" width="3.50" shape="142.92,726.93 144.05,730.04 145.01,732.02 146.17,733.89 147.56,735.61 148.35,736.38 149.19,737.09 150.09,737.72 151.05,738.27 152.05,738.73 153.09,739.11 154.15,739.39 156.33,739.70 158.54,739.70 160.73,739.46 162.89,739.01 164.98,738.41"/>
    </edge>
    <edge id=":87_5" function="internal">
        <lane id=":87_5_0" index="0" disallow="pedestrian tram rail_urban rail rail_electric rail_fast ship" speed="36.11" length="38.66" width="3.50" shape="142.92,726.93 152.83,759.95 154.01,763.96"/>
    </edge>
    <edge id=":88_0" function="internal">
        <lane id=":88_0_0" index="0" disallow="pedestrian tram rail_urban rail rail_electric rail_fast ship" speed="12.19" length="30.34" width="3.50" shape="447.63,886.15 446.71,884.19 445.62,882.32 444.35,880.56 442.89,878.96 441.23,877.57 439.39,876.41 437.42,875.52 435.34,874.90 433.21,874.53 431.04,874.39 428.88,874.45 425.65,874.84 422.47,875.52"/>
    </edge>
    <edge id=":88_1" function="internal">
        <lane id=":88_1_0" index="0" disallow="pedestrian tram rail_urban rail rail_electric rail_fast ship" speed="11.90" length="35.53" width="3.50" shape="436.30,848.84 437.60,852.75 438.19,855.42 438.49,858.13 438.51,859.50 438.43,860.86 438.23,862.21 437.92,863.54 437.47,864.83 436.90,866.08 436.20,867.25 435.39,868.35 434.48,869.37 433.49,870.30 431.29,871.92 428.90,873.24 426.38,874.30 422.47,875.52"/>
    </edge>
    <edge id=":88_2" function="internal">
        <lane id=":88_2_0" index="0" disallow="pedestrian tram rail_urban rail rail_electric rail_fast ship" speed="10.88" length="29.49" width="3.50" shape="421.59,872.14 425.00,871.08 427.14,870.17 429.14,869.07 430.97,867.72 431.75,866.99 432.48,866.18 433.12,865.32 433.66,864.40 434.11,863.43 434.46,862.41 434.71,861.36 434.87,860.27 434.94,859.17 434.92,858.07 434.67,855.77 434.17,853.51 433.04,850.11"/>
    </edge>
    <edge id=":88_3" function="internal">
        <lane id=":88_3_0" index="0" disallow="pedestrian tram rail_urban rail rail_electric rail_fast ship" speed="13.13" length="35.36" width="3.50" shape="421.59,872.14 425.19,871.36 428.85,870.93 431.37,870.87 433.89,871.05 436.39,871.50 438.85,872.26 441.20,873.34 443.37,874.74 445.34,876.41 447.06,878.30 448.54,880.36 449.79,882.54 450.85,884.77"/>
    </edge>
    <edge id=":89_0" function="internal">
        <lane id=":89_0_0" index="0" disallow="pedestrian tram rail_urban rail rail_electric rail_fast ship" speed="36.11" length="37.95" width="3.50" shape="427.32,835.42 423.91,826.85 418.32,813.62 412.40,800.53"/>
    </edge>
    <edge id=":89_1" function="internal">
        <lane id=":89_1_0" index="0" disallow="pedestrian tram rail_urban rail rail_electric rail_fast ship" speed="12.45" length="34.02" width="3.50" shape="427.32,835.42 426.88,834.21 426.14,831.78 425.60,829.26 425.32,826.66 425.38,824.01 425.80,821.40 426.18,820.07 426.66,818.81 427.25,817.59 427.94,816.40 429.51,814.29 431.36,812.41 433.38,810.78 435.54,809.36 438.90,807.59"/>
    </edge>
    <edge id=":89_2" function="internal">
        <lane id=":89_2_0" index="0" disallow="pedestrian tram rail_urban rail rail_electric rail_fast ship" speed="11.46" length="28.68" width="3.50" shape="440.37,810.77 437.44,812.31 435.59,813.52 433.87,814.90 432.33,816.47 431.01,818.24 430.45,819.19 429.98,820.18 429.58,821.22 429.27,822.27 428.91,824.45 428.87,826.65 429.10,828.85 429.56,831.00 430.20,833.11 430.59,834.15"/>
    </edge>
    <edge id=":89_3" function="internal">
        <lane id=":89_3_0" index="0" disallow="pedestrian tram rail_urban rail rail_electric rail_fast ship" speed="12.19" length="34.14" width="3.50" shape="440.37,810.77 436.71,812.23 434.19,812.95 431.60,813.42 428.98,813.55 427.67,813.48 426.37,813.30 425.09,813.01 423.84,812.62 422.63,812.11 421.46,811.50 420.36,810.80 418.32,809.15 416.53,807.23 414.96,805.12 413.60,802.88 412.40,800.53"/>
    </edge>
    <edge id=":89_4" function="internal">
        <lane id=":89_4_0" index="0" disallow="pedestrian tram rail_urban rail rail_electric rail_fast ship" speed="11.19" length="28.58" width="3.50" shape="415.57,799.04 416.61,801.10 417.78,803.03 419.11,804.82 420.61,806.42 422.30,807.79 423.17,808.34 424.11,808.83 425.08,809.23 426.08,809.55 427.11,809.78 428.16,809.92 429.20,809.98 431.40,809.87 433.57,809.48 435.71,808.87 438.90,807.59"/>
    </edge>
    <edge id=":89_5" function="internal">
        <lane id=":89_5_0" index="0" disallow="pedestrian tram rail_urban rail rail_electric rail_fast ship" speed="36.11" length="38.19" width="3.50" shape="415.57,799.04 421.53,812.22 427.15,825.52 430.59,834.15"/>
    </edge>

    <edge id="1425" from="81" to="82" priority="3" type="highway.residential" spreadType="center" length="32.24" shape="240.89,821.10 171.82,807.12">
        <lane id="1425_0" index="0" disallow="pedestrian tram rail_urban rail rail_electric rail_fast ship" speed="36.11" length="32.24" width="3.50" customShape="1" shape="219.60,810.66 203.61,808.63 187.62,806.60"/>
    </edge>
    <edge id="1426" from="82" to="81" priority="3" type="highway.residential" spreadType="center" length="32.27" shape="172.51,803.69 241.58,817.67">
        <lane id="1426_0" index="0" disallow="pedestrian tram rail_urban rail rail_electric rail_fast ship" speed="36.11" length="32.27" width="3.50" customShape="1" shape="188.06,803.13 204.05,805.16 220.07,807.19"/>
    </edge>
    <edge id="1428" from="83" to="81" priority="3" type="highway.residential" spreadType="center" length="8.78" shape="290.37,827.73 241.00,821.12">