<routes>
	<vehicle depart="0.1" departLane="0" departPos="36.221488189808554" departSpeed="17.273934" id="355" type="bus">
		<route edges="1829 1639"/>
	</vehicle>
	<vehicle depart="0.1" departLane="0" departPos="19.78525438594199" departSpeed="0.9017197" id="314" type="passenger">
		<route edges="1639 1955"/>
	</vehicle>
	<vehicle depart="0.1" departLane="0" departPos="29.227534605374174" departSpeed="2.8743448" id="339" type="truck">
		<route edges=":84_5 1639"/>
	</vehicle>
</routes>
