<routes>
	<vehicle depart="0.1" departLane="0" departPos="16.845046101223247" departSpeed="0.053101104" id="35" type="passenger">
		<route edges=":17_7 13357"/>
	</vehicle>
	<vehicle depart="0.1" departLane="0" departPos="5.649854175087093" departSpeed="0.92970344" id="39" type="passenger">
		<route edges=":17_7 13357"/>
	</vehicle>
	<vehicle depart="0.1" departLane="0" departPos="68.14836893053227" departSpeed="0.012086733" id="316" type="passenger">
		<route edges="13269 13357"/>
	</vehicle>
	<vehicle depart="0.1" departLane="0" departPos="58.253868295531845" departSpeed="0.97787249" id="320" type="passenger">
		<route edges="13269 13357"/>
	</vehicle>
	<vehicle depart="0.1" departLane="0" departPos="47.034100790908724" departSpeed="0.44685568" id="324" type="passenger">
		<route edges="13269 13357"/>
	</vehicle>
	<vehicle depart="0.1" departLane="0" departPos="32.008572977366384" departSpeed="11.175643" id="347" type="passenger">
		<route edges=":17_3 13357"/>
	</vehicle>
	<vehicle depart="0.1" departLane="0" departPos="52.11084748363879" departSpeed="11.897886" id="350" type="passenger">
		<route edges="13271 13268"/>
	</vehicle>
	<vehicle depart="0.1" departLane="0" departPos="6.217730324606572" departSpeed="0.72120002" id="30" type="truck">
		<route edges=":17_6 13268"/>
	</vehicle>
</routes>
