<routes>
	<vehicle depart="0.1" departLane="0" departPos="37.61042884540788" departSpeed="0.0" id="310" type="passenger">
		<route edges=":49_5 62266 62499 62402 62438"/>
	</vehicle>
	<vehicle depart="0.1" departLane="0" departPos="20.50694381340116" departSpeed="0.0" id="312" type="passenger">
		<route edges="62344 62270"/>
	</vehicle>
	<vehicle depart="0.1" departLane="0" departPos="30.10894461216908" departSpeed="0.00015966092" id="314" type="passenger">
		<route edges=":49_5 62266"/>
	</vehicle>
	<vehicle depart="0.1" departLane="0" departPos="10.969191910056608" departSpeed="1.1359676" id="315" type="passenger">
		<route edges="62345 62439"/>
	</vehicle>
	<vehicle depart="0.1" departLane="0" departPos="5.101339414763806" departSpeed="12.187436" id="318" type="passenger">
		<route edges="62438 62435"/>
	</vehicle>
	<vehicle depart="0.1" departLane="0" departPos="13.0011121215424" departSpeed="2.8753514e-05" id="324" type="passenger">
		<route edges="62344 62270"/>
	</vehicle>
	<vehicle depart="0.1" departLane="0" departPos="22.185020307370216" departSpeed="4.5696486" id="329" type="passenger">
		<route edges=":49_4 62345 62435"/>
	</vehicle>
	<vehicle depart="0.1" departLane="0" departPos="69.24733448289055" departSpeed="0.0" id="335" type="passenger">
		<route edges="62269 62266"/>
	</vehicle>
	<vehicle depart="0.1" departLane="0" departPos="19.697685266300596" departSpeed="11.141724" id="353" type="passenger">
		<route edges=":51_4 62267 62345 62435"/>
	</vehicle>
	<vehicle depart="0.1" departLane="0" departPos="22.125572369130246" departSpeed="2.1563985" id="30" type="truck">
		<route edges=":50_3 62344"/>
	</vehicle>
</routes>
