<routes>
	<vehicle depart="0.1" departLane="0" departPos="7.5791024220355565" departSpeed="4.4751403" id="310" type="bicycle">
		<route edges=":43_2 67764"/>
	</vehicle>
	<vehicle depart="0.1" departLane="0" departPos="45.42595074871083" departSpeed="0.00031411708" id="328" type="passenger">
		<route edges="67765 66716"/>
	</vehicle>
	<vehicle depart="0.1" departLane="0" departPos="33.66950080645164" departSpeed="9.1865246" id="329" type="passenger">
		<route edges=":43_0 73308 66996 68102"/>
	</vehicle>
	<vehicle depart="0.1" departLane="0" departPos="37.92104714013444" departSpeed="0.0038642377" id="332" type="passenger">
		<route edges="67765 66716"/>
	</vehicle>
	<vehicle depart="0.1" departLane="0" departPos="30.396174127180192" departSpeed="0.024999183" id="335" type="passenger">
		<route edges="67765 66716"/>
	</vehicle>
	<vehicle depart="0.1" departLane="0" departPos="22.799873771070242" departSpeed="0.097276541" id="336" type="passenger">
		<route edges="67765 66716"/>
	</vehicle>
	<vehicle depart="0.1" departLane="0" departPos="15.78239461555165" departSpeed="0.27333552" id="340" type="passenger">
		<route edges="67765 66716"/>
	</vehicle>
	<vehicle depart="0.1" departLane="0" departPos="2.5" departSpeed="7.9731153" id="345" type="passenger">
		<route edges="66717 67764"/>
	</vehicle>
	<vehicle depart="0.1" departLane="0" departPos="55.42759600860515" departSpeed="0.0" id="324" type="truck">
		<route edges="67765 66716"/>
	</vehicle>
</routes>
