<routes>
	<vehicle depart="0.1" departLane="1" departPos="50.26654038156306" departSpeed="3.5094445" id="310" type="bicycle">
		<route edges=":33_0 60920 60519"/>
	</vehicle>
	<vehicle depart="0.1" departLane="1" departPos="30.30010791558842" departSpeed="1.6879021" id="354" type="bus">
		<route edges=":33_0 60920"/>
	</vehicle>
	<vehicle depart="0.1" departLane="0" departPos="37.712774417557256" departSpeed="10.590745" id="366" type="bus">
		<route edges=":31_2 60519 60450"/>
	</vehicle>
	<vehicle depart="0.1" departLane="0" departPos="11.22585909811918" departSpeed="0.61869021" id="327" type="passenger">
		<route edges=":31_8 60519"/>
	</vehicle>
	<vehicle depart="0.1" departLane="0" departPos="15.708540992877804" departSpeed="0.78245906" id="335" type="passenger">
		<route edges=":33_0 60920"/>
	</vehicle>
	<vehicle depart="0.1" departLane="0" departPos="5.0565492871944375" departSpeed="0.67661473" id="343" type="passenger">
		<route edges=":31_7 60821"/>
	</vehicle>
	<vehicle depart="0.1" departLane="0" departPos="41.279230148826834" departSpeed="0.62049472" id="346" type="passenger">
		<route edges=":33_0 60920"/>
	</vehicle>
	<vehicle depart="0.1" departLane="0" departPos="40.87431739397703" departSpeed="9.8631506" id="368" type="passenger">
		<route edges="60823 60519"/>
	</vehicle>
	<vehicle depart="0.1" departLane="0" departPos="56.8843629395783" departSpeed="0.59526478" id="30" type="truck">
		<route edges="61041 60918"/>
	</vehicle>
	<vehicle depart="0.1" departLane="0" departPos="57.23004923000717" departSpeed="0.0" id="318" type="truck">
		<route edges="60518 60918"/>
	</vehicle>
</routes>
