<routes>
	<vehicle depart="0.1" departLane="1" departPos="2.5" departSpeed="0.039264563" id="312" type="passenger">
		<route edges="69765 69741"/>
	</vehicle>
	<vehicle depart="0.1" departLane="1" departPos="12.230774921549349" departSpeed="0.69073419" id="316" type="passenger">
		<route edges="69765 69741"/>
	</vehicle>
	<vehicle depart="0.1" departLane="1" departPos="45.56848775170608" departSpeed="0.0" id="341" type="passenger">
		<route edges="69212 69190"/>
	</vehicle>
	<vehicle depart="0.1" departLane="1" departPos="38.05180484807703" departSpeed="0.0018525672" id="346" type="passenger">
		<route edges="69212 69190"/>
	</vehicle>
	<vehicle depart="0.1" departLane="0" departPos="39.14613710617645" departSpeed="12.276006" id="352" type="passenger">
		<route edges=":17_10 69210"/>
	</vehicle>
	<vehicle depart="0.1" departLane="0" departPos="15.468779009871156" departSpeed="8.7485108" id="353" type="passenger">
		<route edges=":17_3 69741"/>
	</vehicle>
	<vehicle depart="0.1" departLane="0" departPos="20.47456778777189" departSpeed="10.454914" id="355" type="passenger">
		<route edges=":17_10 69210"/>
	</vehicle>
	<vehicle depart="0.1" departLane="0" departPos="6.1652547364792625" departSpeed="7.9157701" id="358" type="passenger">
		<route edges=":17_10 69210"/>
	</vehicle>
	<vehicle depart="0.1" departLane="0" departPos="28.65423341850478" departSpeed="9.9104973" id="359" type="passenger">
		<route edges="69212 69763"/>
	</vehicle>
	<vehicle depart="0.1" departLane="0" departPos="10.134085780936607" departSpeed="4.9691158" id="360" type="passenger">
		<route edges="69765 69210"/>
	</vehicle>
</routes>
