<!-- generated on 2020-12-18 15:40:45.624040 by ipykernel_launcher.py v1_2_0+5214-53edc58fcd
-->
<edges>
	<edge from="1" function="normal" id="34784" length="496.7289021092002" numLanes="2" priority="1" speed="36.11111111111111" spreadType="center" to="2">
		<lane allow="pedestrian rail private passenger ship delivery vip emergency bicycle rail_electric army rail_urban trailer coach custom2 tram taxi evehicle custom1 motorcycle authority truck hov moped" index="0" length="496.7289021092002" shape="-129.0279,-4.2176 -102.90465,-3.8777 -76.70405,-3.7787 -43.2048,-3.67805 -3.6427,-3.33885 24.22625,-2.7725999999999997 60.302400000000006,-1.6028957000000001 83.56184999999999,-0.7300499999999999 119.39645,0.7420600000000002 153.8098,2.4526700000000003 170.20305000000002,3.22365 179.985,3.5996 185.6838,3.5594 197.80155,2.6935000000000002 203.53764999999999,2.327725 210.6914,2.53565 217.12455,2.9938499999999997 257.6717,5.5881 269.6749,7.63615 281.4635,9.346250000000001 294.2246,10.67995 316.65815,12.4788 352.72365,14.5728 367.03454999999997,15.3219" speed="36.11111111111111" width="2.8606657704107996"/>
		<lane allow="pedestrian rail private passenger ship delivery vip emergency bicycle rail_electric army rail_urban trailer coach custom2 tram taxi evehicle custom1 motorcycle authority hov moped" index="1" length="496.7289021092002" shape="-129.06105,-1.14504 -102.9433,-0.8021400000000001 -76.7436,-0.742065 -43.227450000000005,-0.7529499999999999 -3.7049,-0.24995 24.0291,0.49 60.09955,1.5840042 83.29275,2.403755 119.21635,3.95625 153.61045000000001,5.75605 169.93135,6.53095 179.80285,6.96635 185.4588,6.83435 198.0789,5.92655 203.6646,5.703950000000001 210.463,5.7136499999999995 216.94844999999998,6.0975 256.9968,8.80635 269.11199999999997,10.78745 280.68975,12.5954 293.81489999999997,13.65285 316.46295,15.3306 352.2953,17.71255 352.56955,17.7247 366.87405,18.31475" speed="36.11111111111111" width="2.8437411591071364"/>
	</edge>
</edges>
