<routes>
	<vehicle depart="0.1" departLane="1" departPos="103.69868881577703" departSpeed="6.2680176" id="1" type="passenger">
		<route edges="26 28 24"/>
	</vehicle>
	<vehicle depart="0.1" departLane="0" departPos="0" departSpeed="9.2334691" id="2" type="passenger">
		<route edges="26 27 24"/>
	</vehicle>
	<vehicle depart="0.1" departLane="0" departPos="0" departSpeed="16.834382" id="3" type="passenger">
		<route edges="26 27 24"/>
	</vehicle>
</routes>
