<routes>
	<vehicle depart="0.1" departLane="0" departPos="28.92963937646545" departSpeed="0.0" id="31" type="passenger">
		<route edges="5701 5665"/>
	</vehicle>
	<vehicle depart="0.1" departLane="0" departPos="49.924576173023446" departSpeed="0.40226346" id="32" type="passenger">
		<route edges="5666 5975"/>
	</vehicle>
	<vehicle depart="0.1" departLane="0" departPos="11.68953005221818" departSpeed="0.0" id="35" type="passenger">
		<route edges="5701 5665"/>
	</vehicle>
	<vehicle depart="0.1" departLane="0" departPos="6.824560693208031" departSpeed="1.5724882" id="345" type="passenger">
		<route edges=":32_1 5700"/>
	</vehicle>
	<vehicle depart="0.1" departLane="0" departPos="20.150871345644084" departSpeed="1.2959967" id="349" type="passenger">
		<route edges="5703 5665"/>
	</vehicle>
	<vehicle depart="0.1" departLane="0" departPos="5.332114648985971" departSpeed="1.496048" id="352" type="passenger">
		<route edges="5703 5700"/>
	</vehicle>
	<vehicle depart="0.1" departLane="0" departPos="44.45684825168514" departSpeed="2.5684717" id="355" type="passenger">
		<route edges="5706 5703"/>
	</vehicle>
	<vehicle depart="0.1" departLane="0" departPos="10.357726812485351" departSpeed="3.524127" id="30" type="truck">
		<route edges=":32_4 5700"/>
	</vehicle>
	<vehicle depart="0.1" departLane="0" departPos="21.428062812900045" departSpeed="0.0" id="323" type="truck">
		<route edges="5701 5665"/>
	</vehicle>
	<vehicle depart="0.1" departLane="0" departPos="63.03476141304495" departSpeed="1.9608632" id="356" type="truck">
		<route edges="5706 5703"/>
	</vehicle>
</routes>
