<!-- generated on Tue Feb  9 22:22:28 2021 by Eclipse SUMO netconvert Version 1.8.0
<configuration xmlns:xsi="http://www.w3.org/2001/XMLSchema-instance" xsi:noNamespaceSchemaLocation="http://sumo.dlr.de/xsd/netconvertConfiguration.xsd">

    <input>
        <node-files value="./converted_scenarios/scenario-factory/BEL_Putte-2_1_I-1-1/BEL_Putte-2_1_I-1-1.nod.xml"/>
        <edge-files value="./converted_scenarios/scenario-factory/BEL_Putte-2_1_I-1-1/BEL_Putte-2_1_I-1-1.edg.xml"/>
        <connection-files value="./converted_scenarios/scenario-factory/BEL_Putte-2_1_I-1-1/BEL_Putte-2_1_I-1-1.con.xml"/>
        <tllogic-files value="./converted_scenarios/scenario-factory/BEL_Putte-2_1_I-1-1/BEL_Putte-2_1_I-1-1.tll.xml"/>
        <type-files value="/home/zen/commonroad-interactive-benchmarks/install/commonroad-map-tool/crmapconverter/sumo_map/templates/DEU.typ.xml"/>
    </input>

    <output>
        <output-file value="./converted_scenarios/scenario-factory/BEL_Putte-2_1_I-1-1/BEL_Putte-2_1_I-1-1.net.xml"/>
    </output>

    <processing>
        <geometry.remove.keep-edges.explicit value="true"/>
        <geometry.avoid-overlap value="true"/>
        <offset.disable-normalization value="true"/>
    </processing>

    <junctions>
        <no-turnarounds value="true"/>
        <junctions.internal-link-detail value="20"/>
    </junctions>

    <report>
        <aggregate-warnings value="5"/>
    </report>

    <random_number>
        <seed value="1234"/>
    </random_number>

</configuration>
--><net xmlns:xsi="http://www.w3.org/2001/XMLSchema-instance" version="1.6" junctionCornerDetail="5" junctionLinkDetail="20" limitTurnSpeed="5.50" xsi:noNamespaceSchemaLocation="http://sumo.dlr.de/xsd/net_file.xsd">

    <location netOffset="0.00,0.00" convBoundary="492.25,806.08,698.00,1050.97" origBoundary="492.25,806.08,698.00,1050.97" projParameter="!"/>

    <type id="highway.bridleway" priority="1" speed="2.78" allow="pedestrian" oneway="1" width="2.00"/>
    <type id="highway.bus_guideway" priority="1" speed="27.78" allow="bus" oneway="1"/>
    <type id="highway.cycleway" priority="1" speed="8.33" allow="bicycle" oneway="0" width="1.00"/>
    <type id="highway.footway" priority="1" speed="2.78" allow="pedestrian" oneway="1" width="2.00"/>
    <type id="highway.ford" priority="1" speed="2.78" allow="army" oneway="0"/>
    <type id="highway.living_street" priority="2" speed="2.78" disallow="tram rail_urban rail rail_electric rail_fast ship" oneway="0"/>
    <type id="highway.motorway" priority="14" speed="39.44" allow="private emergency authority army vip passenger hov taxi bus coach delivery truck trailer motorcycle evehicle custom1 custom2" oneway="1"/>
    <type id="highway.motorway_link" priority="9" speed="22.22" allow="private emergency authority army vip passenger hov taxi bus coach delivery truck trailer motorcycle evehicle custom1 custom2" oneway="1"/>
    <type id="highway.path" priority="1" speed="2.78" allow="pedestrian bicycle" oneway="0" width="2.00"/>
    <type id="highway.pedestrian" priority="1" speed="2.78" allow="pedestrian" oneway="1" width="2.00"/>
    <type id="highway.primary" priority="12" speed="27.78" disallow="pedestrian tram rail_urban rail rail_electric rail_fast ship" oneway="0"/>
    <type id="highway.primary_link" priority="7" speed="22.22" disallow="pedestrian tram rail_urban rail rail_electric rail_fast ship" oneway="0"/>
    <type id="highway.raceway" priority="15" speed="83.33" allow="vip" oneway="0"/>
    <type id="highway.residential" priority="3" speed="13.89" disallow="pedestrian tram rail_urban rail rail_electric rail_fast ship" oneway="0"/>
    <type id="highway.secondary" priority="11" speed="27.78" disallow="pedestrian tram rail_urban rail rail_electric rail_fast ship" oneway="0"/>
    <type id="highway.secondary_link" priority="6" speed="22.22" disallow="pedestrian tram rail_urban rail rail_electric rail_fast ship" oneway="0"/>
    <type id="highway.service" priority="1" speed="5.56" allow="pedestrian delivery bicycle" oneway="0"/>
    <type id="highway.stairs" priority="1" speed="1.39" allow="pedestrian" oneway="1" width="2.00"/>
    <type id="highway.step" priority="1" speed="1.39" allow="pedestrian" oneway="1" width="2.00"/>
    <type id="highway.steps" priority="1" speed="1.39" allow="pedestrian" oneway="1" width="2.00"/>
    <type id="highway.tertiary" priority="10" speed="22.22" disallow="pedestrian tram rail_urban rail rail_electric rail_fast ship" oneway="0"/>
    <type id="highway.tertiary_link" priority="5" speed="22.22" disallow="pedestrian tram rail_urban rail rail_electric rail_fast ship" oneway="0"/>
    <type id="highway.track" priority="1" speed="5.56" allow="pedestrian motorcycle moped bicycle" oneway="0"/>
    <type id="highway.trunk" priority="13" speed="27.78" disallow="pedestrian bicycle tram rail_urban rail rail_electric rail_fast ship" oneway="0"/>
    <type id="highway.trunk_link" priority="8" speed="22.22" disallow="pedestrian bicycle tram rail_urban rail rail_electric rail_fast ship" oneway="0"/>
    <type id="highway.unclassified" priority="4" speed="13.89" disallow="pedestrian tram rail_urban rail rail_electric rail_fast ship" oneway="0"/>
    <type id="highway.unsurfaced" priority="1" speed="8.33" disallow="tram rail_urban rail rail_electric rail_fast ship" oneway="0"/>
    <type id="railway.highspeed" priority="21" speed="69.44" allow="rail_fast" oneway="1"/>
    <type id="railway.light_rail" priority="19" speed="27.78" allow="rail_urban" oneway="1"/>
    <type id="railway.preserved" priority="16" speed="27.78" allow="rail" oneway="1"/>
    <type id="railway.rail" priority="20" speed="44.44" allow="rail" oneway="1"/>
    <type id="railway.subway" priority="18" speed="27.78" allow="rail_urban" oneway="1"/>
    <type id="railway.tram" priority="17" speed="13.89" allow="tram" oneway="1"/>

    <edge id=":26_0" function="internal">
        <lane id=":26_0_0" index="0" disallow="pedestrian tram rail_urban rail rail_electric rail_fast ship" speed="36.11" length="3.00" width="3.50" shape="656.41,990.93 658.12,993.39"/>
    </edge>
    <edge id=":28_0" function="internal">
        <lane id=":28_0_0" index="0" disallow="pedestrian tram rail_urban rail rail_electric rail_fast ship" speed="36.11" length="3.00" width="3.50" shape="655.26,995.40 653.54,992.94"/>
    </edge>
    <edge id=":31_0" function="internal">
        <lane id=":31_0_0" index="0" disallow="pedestrian tram rail_urban rail rail_electric rail_fast ship" speed="10.63" length="30.05" width="3.50" shape="572.89,882.93 572.07,882.03 570.34,880.33 568.51,878.83 566.53,877.55 565.54,877.05 564.50,876.63 563.45,876.31 562.38,876.10 561.31,876.01 560.24,876.05 559.17,876.21 558.12,876.49 557.09,876.88 556.08,877.37 555.10,877.95 554.17,878.59 552.34,880.12 550.68,881.83 548.35,884.69"/>
    </edge>
    <edge id=":31_1" function="internal">
        <lane id=":31_1_0" index="0" disallow="pedestrian tram rail_urban rail rail_electric rail_fast ship" speed="36.11" length="39.68" width="3.50" shape="572.89,882.93 572.20,882.16 566.46,876.14 557.49,867.40 544.43,855.30"/>
    </edge>
    <edge id=":31_2" function="internal">
        <lane id=":31_2_0" index="0" disallow="pedestrian tram rail_urban rail rail_electric rail_fast ship" speed="36.11" length="40.03" width="3.50" shape="546.79,852.72 559.94,864.90 568.98,873.71 574.79,879.81 575.50,880.60"/>
    </edge>
    <edge id=":31_3" function="internal">
        <lane id=":31_3_0" index="0" disallow="pedestrian tram rail_urban rail rail_electric rail_fast ship" speed="12.98" length="35.92" width="3.50" shape="546.79,852.71 548.64,854.53 550.31,856.47 551.79,858.56 553.02,860.80 553.95,863.19 554.53,865.68 554.75,868.23 554.60,870.79 554.12,873.31 553.36,875.75 552.37,878.11 550.53,881.49 548.35,884.69"/>
    </edge>
    <edge id=":31_4" function="internal">
        <lane id=":31_4_0" index="0" disallow="pedestrian tram rail_urban rail rail_electric rail_fast ship" speed="12.04" length="30.72" width="3.50" shape="545.54,882.61 547.47,879.77 549.10,876.79 549.96,874.76 550.62,872.68 551.04,870.55 551.18,868.42 551.02,866.31 550.55,864.24 549.78,862.25 548.75,860.35 547.50,858.57 546.05,856.89 544.43,855.30"/>
    </edge>
    <edge id=":31_5" function="internal">
        <lane id=":31_5_0" index="0" disallow="pedestrian tram rail_urban rail rail_electric rail_fast ship" speed="11.66" length="36.44" width="3.50" shape="545.54,882.61 548.21,879.33 550.17,877.33 552.32,875.53 553.47,874.73 554.68,874.02 555.94,873.41 557.25,872.92 558.60,872.57 559.99,872.37 561.39,872.33 562.78,872.45 564.16,872.72 565.50,873.13 566.79,873.66 568.04,874.29 570.39,875.82 572.55,877.60 574.55,879.56 575.50,880.60"/>
    </edge>
    <edge id=":32_0" function="internal">
        <lane id=":32_0_0" index="0" disallow="pedestrian tram rail_urban rail rail_electric rail_fast ship" speed="10.61" length="28.83" width="3.50" shape="638.65,971.77 637.95,970.80 636.42,968.92 634.78,967.22 632.96,965.73 632.03,965.12 631.04,964.58 630.03,964.13 628.99,963.79 627.92,963.56 626.85,963.45 625.76,963.46 624.66,963.58 623.58,963.80 622.53,964.11 620.38,965.03 618.35,966.22 616.42,967.62 614.58,969.18"/>
    </edge>
    <edge id=":32_1" function="internal">
        <lane id=":32_1_0" index="0" disallow="pedestrian tram rail_urban rail rail_electric rail_fast ship" speed="36.11" length="37.96" width="3.50" shape="638.65,971.77 633.93,965.05 616.63,940.85"/>
    </edge>
    <edge id=":32_2" function="internal">
        <lane id=":32_2_0" index="0" disallow="pedestrian tram rail_urban rail rail_electric rail_fast ship" speed="36.11" length="38.02" width="3.50" shape="619.46,938.79 636.79,963.03 641.52,969.76"/>
    </edge>
    <edge id=":32_3" function="internal">
        <lane id=":32_3_0" index="0" disallow="pedestrian tram rail_urban rail rail_electric rail_fast ship" speed="12.95" length="34.38" width="3.50" shape="619.47,938.79 620.19,939.84 621.48,941.98 622.57,944.28 623.40,946.72 623.91,949.27 624.05,951.88 623.79,954.48 623.16,957.01 622.21,959.40 621.00,961.64 619.58,963.74 617.20,966.59 614.58,969.18"/>
    </edge>
    <edge id=":32_4" function="internal">
        <lane id=":32_4_0" index="0" disallow="pedestrian tram rail_urban rail rail_electric rail_fast ship" speed="11.99" length="29.34" width="3.50" shape="612.14,966.68 614.54,964.32 616.62,961.83 617.84,960.04 618.88,958.14 619.70,956.14 620.24,954.04 620.48,951.89 620.38,949.73 619.98,947.60 619.29,945.55 618.37,943.59 617.25,941.74 616.63,940.85"/>
    </edge>
    <edge id=":32_5" function="internal">
        <lane id=":32_5_0" index="0" disallow="pedestrian tram rail_urban rail rail_electric rail_fast ship" speed="11.65" length="35.03" width="3.50" shape="612.14,966.68 614.35,964.79 616.61,963.15 619.02,961.74 621.59,960.64 622.93,960.25 624.30,959.97 625.68,959.82 627.08,959.81 628.47,959.96 629.83,960.25 631.16,960.68 632.44,961.24 633.66,961.92 634.83,962.68 636.99,964.45 638.93,966.46 640.69,968.63 641.52,969.76"/>
    </edge>
    <edge id=":33_0" function="internal">
        <lane id=":33_0_0" index="0" disallow="pedestrian tram rail_urban rail rail_electric rail_fast ship" speed="36.11" length="38.11" width="3.50" shape="599.61,917.35 598.99,916.46 590.53,904.77 583.00,894.98 576.49,887.07"/>
    </edge>
    <edge id=":33_1" function="internal">
        <lane id=":33_1_0" index="0" disallow="pedestrian tram rail_urban rail rail_electric rail_fast ship" speed="13.15" length="34.93" width="3.50" shape="599.61,917.35 598.22,915.20 597.06,912.99 596.12,910.69 595.46,908.29 595.10,905.83 595.06,903.34 595.36,900.86 595.98,898.45 596.86,896.12 597.98,893.90 600.01,890.76 602.36,887.86 604.06,886.04"/>
    </edge>
    <edge id=":33_2" function="internal">
        <lane id=":33_2_0" index="0" disallow="pedestrian tram rail_urban rail rail_electric rail_fast ship" speed="12.21" length="29.98" width="3.50" shape="606.56,888.49 605.05,890.11 602.95,892.68 601.16,895.44 600.19,897.34 599.42,899.32 598.89,901.35 598.62,903.42 598.63,905.50 598.92,907.56 599.47,909.59 600.26,911.56 601.26,913.46 602.45,915.29"/>
    </edge>
    <edge id=":33_3" function="internal">
        <lane id=":33_3_0" index="0" disallow="pedestrian tram rail_urban rail rail_electric rail_fast ship" speed="12.01" length="35.14" width="3.50" shape="606.56,888.49 604.66,890.29 602.61,891.95 600.38,893.42 597.98,894.61 596.66,895.10 595.32,895.47 593.94,895.72 592.53,895.84 591.12,895.82 589.72,895.67 588.34,895.38 587.01,894.97 585.70,894.45 583.34,893.17 581.15,891.63 579.15,889.88 576.49,887.07"/>
    </edge>
    <edge id=":33_4" function="internal">
        <lane id=":33_4_0" index="0" disallow="pedestrian tram rail_urban rail rail_electric rail_fast ship" speed="10.99" length="29.25" width="3.50" shape="579.13,884.77 581.45,887.23 583.15,888.71 584.98,890.01 586.96,891.08 588.00,891.50 589.08,891.83 590.18,892.07 591.29,892.19 592.42,892.21 593.54,892.12 594.65,891.92 595.73,891.62 596.79,891.24 598.80,890.24 600.68,889.00 602.43,887.59 604.06,886.04"/>
    </edge>
    <edge id=":33_5" function="internal">
        <lane id=":33_5_0" index="0" disallow="pedestrian tram rail_urban rail rail_electric rail_fast ship" speed="36.11" length="38.42" width="3.50" shape="579.13,884.77 585.73,892.79 593.32,902.66 601.84,914.43 602.45,915.29"/>
    </edge>

    <edge id="5626" from="33" to="3" priority="3" type="highway.residential" spreadType="center" length="70.01" shape="593.45,895.28 653.16,836.14">
        <lane id="5626_0" index="0" disallow="pedestrian tram rail_urban rail rail_electric rail_fast ship" speed="36.11" length="70.01" width="3.50" customShape="1" shape="604.06,886.04 653.16,836.14"/>
    </edge>
    <edge id="5627" from="12" to="33" priority="3" type="highway.residential" spreadType="center" length="70.01" shape="655.65,838.60 595.92,897.76">
        <lane id="5627_0" index="0" disallow="pedestrian tram rail_urban rail rail_electric rail_fast ship" speed="36.11" length="70.01" width="3.50" customShape="1" shape="655.65,838.60 606.55,888.50"/>
    </edge>
    <edge id="5659" from="31" to="17" priority="3" type="highway.residential" spreadType="center" length="70.00" shape="554.34,874.37 492.25,808.65">
        <lane id="5659_0" index="0" disallow="pedestrian tram rail_urban rail rail_electric rail_fast ship" speed="36.11" length="70.00" width="3.50" customShape="1" shape="544.43,855.30 526.54,839.03 499.97,815.74 492.25,808.65"/>
    </edge>
    <edge id="5660" from="25" to="31" priority="3" type="highway.residential" spreadType="center" length="70.00" shape="494.63,806.08 556.88,871.97">
        <lane id="5660_0" index="0" disallow="pedestrian tram rail_urban rail rail_electric rail_fast ship" speed="36.11" length="70.00" width="3.50" customShape="1" shape="494.63,806.08 502.36,813.18 528.90,836.44 546.81,852.73"/>
    </edge>
    <edge id="5665" from="32" to="21" priority="3" type="highway.residential" spreadType="center" length="70.00" shape="625.25,960.54 574.25,1026.23">
        <lane id="5665_0" index="0" disallow="pedestrian tram rail_urban rail rail_electric rail_fast ship" speed="36.11" length="70.00" width="3.50" customShape="1" shape="614.58,969.18 611.35,972.34 608.35,975.71 604.67,980.47 600.09,987.06 590.88,1001.40 574.25,1026.23"/>
    </edge>
    <edge id="5666" from="24" to="32" priority="3" type="highway.residential" spreadType="center" length="69.90" shape="571.80,1023.60 622.49,958.39">
        <lane id="5666_0" index="0" disallow="pedestrian tram rail_urban rail rail_electric rail_fast ship" speed="36.11" length="69.90" width="3.50" customShape="1" shape="571.80,1023.60 588.09,999.27 597.36,984.84 602.02,978.17 605.79,973.32 608.89,969.85 612.14,966.68"/>
    </edge>
    <edge id="5697" from="33" to="31" priority="3" type="highway.residential" spreadType="center" length="5.54" shape="593.87,898.03 554.69,874.64">
        <lane id="5697_0" index="0" disallow="pedestrian tram rail_urban rail rail_electric rail_fast ship" speed="36.11" length="5.54" width="3.50" customShape="1" shape="576.49,887.07 574.68,884.98 572.86,882.89"/>
    </edge>
    <edge id="5698" from="31" to="33" priority="3" type="highway.residential" spreadType="center" length="5.54" shape="556.48,871.64 595.66,895.03">
        <lane id="5698_0" index="0" disallow="pedestrian tram rail_urban rail rail_electric rail_fast ship" speed="36.11" length="5.54" width="3.50" customShape="1" shape="575.50,880.60 577.32,882.69 579.14,884.77"/>
    </edge>
    <edge id="5700" from="32" to="33" priority="3" type="highway.residential" spreadType="center" length="29.08" shape="622.26,960.23 593.10,897.19">
        <lane id="5700_0" index="0" disallow="pedestrian tram rail_urban rail rail_electric rail_fast ship" speed="36.11" length="29.08" width="3.50" customShape="1" shape="616.63,940.85 608.10,929.07 599.58,917.29"/>
    </edge>
    <edge id="5701" from="33" to="32" priority="3" type="highway.residential" spreadType="center" length="29.03" shape="596.28,895.72 625.43,958.76">
        <lane id="5701_0" index="0" disallow="pedestrian tram rail_urban rail rail_electric rail_fast ship" speed="36.11" length="29.03" width="3.50" customShape="1" shape="602.45,915.29 610.94,927.03 619.47,938.81"/>
    </edge>
    <edge id="5703" from="28" to="32" priority="3" type="highway.residential" spreadType="center" length="25.89" shape="654.41,994.16 622.53,960.65">
        <lane id="5703_0" index="0" disallow="pedestrian tram rail_urban rail rail_electric rail_fast ship" speed="36.11" length="25.89" width="3.50" customShape="1" shape="653.54,992.94 646.60,983.07 638.79,971.97 638.72,971.87 638.65,971.76"/>
    </edge>
    <edge id="5706" from="29" to="28" priority="3" type="highway.residential" spreadType="center" length="68.50">
        <lane id="5706_0" index="0" disallow="pedestrian tram rail_urban rail rail_electric rail_fast ship" speed="36.11" length="68.50" width="3.50" customShape="1" shape="695.13,1050.97 692.60,1047.22 688.98,1042.38 681.89,1034.54 679.40,1031.37 674.74,1024.79 663.00,1006.60 655.26,995.40"/>
    </edge>
    <edge id="5707" from="26" to="27" priority="3" type="highway.residential" spreadType="center" length="68.50">
        <lane id="5707_0" index="0" disallow="pedestrian tram rail_urban rail rail_electric rail_fast ship" speed="36.11" length="68.50" width="3.50" customShape="1" shape="658.12,993.39 665.89,1004.62 677.62,1022.81 682.23,1029.32 684.67,1032.40 691.77,1040.27 695.46,1045.20 698.00,1048.96"/>
    </edge>
    <edge id="5819" from="23" to="31" priority="3" type="highway.residential" spreadType="center" length="70.00" shape="510.85,943.16 554.11,872.20">
        <lane id="5819_0" index="0" disallow="pedestrian tram rail_urban rail rail_electric rail_fast ship" speed="36.11" length="70.00" width="3.50" customShape="1" shape="510.85,943.16 516.95,930.00 523.22,917.34 529.38,905.75 531.70,901.84 536.57,894.78 545.54,882.61"/>
    </edge>
    <edge id="5820" from="31" to="16" priority="3" type="highway.residential" spreadType="center" length="70.00" shape="557.10,874.02 513.73,945.28">
        <lane id="5820_0" index="0" disallow="pedestrian tram rail_urban rail rail_electric rail_fast ship" speed="36.11" length="70.00" width="3.50" customShape="1" shape="548.35,884.69 539.43,896.80 534.62,903.77 532.36,907.59 526.25,919.10 520.02,931.69 513.73,945.28"/>
    </edge>
    <edge id="5975" from="32" to="26" priority="3" type="highway.residential" spreadType="center" length="25.88" shape="625.07,958.24 657.27,992.15">
        <lane id="5975_0" index="0" disallow="pedestrian tram rail_urban rail rail_electric rail_fast ship" speed="36.11" length="25.88" width="3.50" customShape="1" shape="641.52,969.76 641.59,969.86 641.66,969.96 649.46,981.05 656.41,990.93"/>
    </edge>

    <junction id="12" type="dead_end" x="655.65" y="838.60" incLanes="" intLanes="" shape="654.40,837.37 656.89,839.83" rightOfWay="edgePriority"/>
    <junction id="16" type="dead_end" x="513.73" y="945.28" incLanes="5820_0" intLanes="" shape="515.32,946.01 512.14,944.54" rightOfWay="edgePriority"/>
    <junction id="17" type="dead_end" x="492.25" y="808.65" incLanes="5659_0" intLanes="" shape="491.07,809.94 493.44,807.36" rightOfWay="edgePriority"/>
    <junction id="21" type="dead_end" x="574.25" y="1026.23" incLanes="5665_0" intLanes="" shape="575.70,1027.20 572.79,1025.26" rightOfWay="edgePriority"/>
    <junction id="23" type="dead_end" x="510.85" y="943.16" incLanes="" intLanes="" shape="512.44,943.89 509.27,942.42" rightOfWay="edgePriority"/>
    <junction id="24" type="dead_end" x="571.80" y="1023.60" incLanes="" intLanes="" shape="573.25,1024.57 570.35,1022.62" rightOfWay="edgePriority"/>
    <junction id="25" type="dead_end" x="494.63" y="806.08" incLanes="" intLanes="" shape="493.45,807.37 495.81,804.79" rightOfWay="edgePriority"/>
    <junction id="26" type="priority" x="657.27" y="992.15" incLanes="5975_0" intLanes=":26_0_0" shape="656.68,994.38 659.56,992.39 657.84,989.92 654.98,991.94" rightOfWay="edgePriority">
        <request index="0" response="0" foes="0" cont="0"/>
    </junction>
    <junction id="27" type="dead_end" x="698.00" y="1048.96" incLanes="5707_0" intLanes="" shape="699.45,1047.98 696.55,1049.94" rightOfWay="edgePriority"/>
    <junction id="28" type="priority" x="654.41" y="994.16" incLanes="5706_0" intLanes=":28_0_0" shape="653.82,996.39 656.70,994.40 654.98,991.93 652.11,993.95" rightOfWay="edgePriority">
        <request index="0" response="0" foes="0" cont="0"/>
    </junction>
    <junction id="29" type="dead_end" x="695.13" y="1050.97" incLanes="" intLanes="" shape="696.58,1049.99 693.68,1051.95" rightOfWay="edgePriority"/>
    <junction id="3" type="dead_end" x="653.16" y="836.14" incLanes="5626_0" intLanes="" shape="651.91,834.92 654.40,837.37" rightOfWay="edgePriority"/>
    <junction id="31" type="priority" x="555.59" y="873.14" incLanes="5697_0 5660_0 5819_0" intLanes=":31_0_0 :31_1_0 :31_2_0 :31_3_0 :31_4_0 :31_5_0" shape="571.54,884.04 576.82,879.45 571.13,873.04 566.77,868.45 563.02,864.82 559.12,861.33 554.35,857.14 547.97,851.42 543.26,856.60 546.49,860.21 548.48,864.04 549.24,868.09 548.77,872.36 547.07,876.86 544.13,881.57 549.76,885.73 553.33,881.66 556.92,879.11 560.53,878.07 564.18,878.55 567.84,880.54">
        <request index="0" response="000000" foes="001000" cont="0"/>
        <request index="1" response="000000" foes="111000" cont="0"/>
        <request index="2" response="000000" foes="100000" cont="0"/>
        <request index="3" response="000011" foes="100011" cont="0"/>
        <request index="4" response="000010" foes="000010" cont="0"/>
        <request index="5" response="001110" foes="001110" cont="0"/>
    </junction>
    <junction id="32" type="priority" x="623.84" y="959.50" incLanes="5703_0 5701_0 5666_0" intLanes=":32_0_0 :32_1_0 :32_2_0 :32_3_0 :32_4_0 :32_5_0" shape="637.21,972.77 642.95,968.75 620.88,937.77 615.21,941.87 617.38,945.68 618.39,949.53 618.25,953.43 616.95,957.38 614.51,961.38 610.91,965.43 615.80,970.43 619.66,967.31 623.41,965.59 627.03,965.27 630.54,966.37 633.94,968.86">
        <request index="0" response="000000" foes="001000" cont="0"/>
        <request index="1" response="000000" foes="111000" cont="0"/>
        <request index="2" response="000000" foes="100000" cont="0"/>
        <request index="3" response="000011" foes="100011" cont="0"/>
        <request index="4" response="000010" foes="000010" cont="0"/>
        <request index="5" response="001110" foes="001110" cont="0"/>
    </junction>
    <junction id="33" type="priority" x="594.71" y="896.49" incLanes="5700_0 5627_0 5698_0" intLanes=":33_0_0 :33_1_0 :33_2_0 :33_3_0 :33_4_0 :33_5_0" shape="598.20,918.37 603.86,914.27 601.59,910.30 600.49,906.28 600.56,902.21 601.81,898.10 604.22,893.93 607.80,889.72 602.81,884.81 599.05,887.97 595.30,889.79 591.56,890.26 587.84,889.39 584.14,887.18 580.45,883.62 575.17,888.22 580.43,894.35 584.21,898.98 587.18,902.90 590.05,906.90 593.49,911.80">
        <request index="0" response="000000" foes="001000" cont="0"/>
        <request index="1" response="110000" foes="111000" cont="0"/>
        <request index="2" response="100000" foes="100000" cont="0"/>
        <request index="3" response="100011" foes="100011" cont="0"/>
        <request index="4" response="000000" foes="000010" cont="0"/>
        <request index="5" response="000000" foes="001110" cont="0"/>
    </junction>

    <connection from="5627" to="5701" fromLane="0" toLane="0" contPos="-4.00" shape="606.55,888.50 605.05,890.11 602.95,892.68 601.16,895.44 600.19,897.34 599.42,899.32 598.89,901.35 598.62,903.42 598.63,905.50 598.92,907.56 599.47,909.59 600.26,911.56 601.26,913.46 602.45,915.29" via=":33_2_0" dir="r" state="m"/>
    <connection from="5627" to="5697" fromLane="0" toLane="0" contPos="-4.00" shape="606.55,888.50 604.66,890.29 602.61,891.95 600.38,893.42 597.98,894.61 596.66,895.10 595.32,895.47 593.94,895.72 592.53,895.84 591.12,895.82 589.72,895.67 588.34,895.38 587.01,894.97 585.70,894.45 583.34,893.17 581.15,891.63 579.15,889.88 576.49,887.07" via=":33_3_0" dir="l" state="m"/>
    <connection from="5660" to="5698" fromLane="0" toLane="0" contPos="-4.00" shape="546.81,852.73 559.94,864.90 568.98,873.71 574.79,879.81 575.50,880.60" via=":31_2_0" dir="s" state="M"/>
    <connection from="5660" to="5820" fromLane="0" toLane="0" contPos="-4.00" shape="546.81,852.73 548.64,854.53 550.31,856.47 551.79,858.56 553.02,860.80 553.95,863.19 554.53,865.68 554.75,868.23 554.60,870.79 554.12,873.31 553.36,875.75 552.37,878.11 550.53,881.49 548.35,884.69" via=":31_3_0" dir="l" state="m"/>
    <connection from="5666" to="5700" fromLane="0" toLane="0" contPos="-4.00" shape="612.21,966.61 614.54,964.32 616.62,961.83 617.84,960.04 618.88,958.14 619.70,956.14 620.24,954.04 620.48,951.89 620.38,949.73 619.98,947.60 619.29,945.55 618.37,943.59 617.25,941.74 616.63,940.85" via=":32_4_0" dir="r" state="m"/>
    <connection from="5666" to="5975" fromLane="0" toLane="0" contPos="-4.00" shape="612.21,966.61 614.35,964.79 616.61,963.15 619.02,961.74 621.59,960.64 622.93,960.25 624.30,959.97 625.68,959.82 627.08,959.81 628.47,959.96 629.83,960.25 631.16,960.68 632.44,961.24 633.66,961.92 634.83,962.68 636.99,964.45 638.93,966.46 640.69,968.63 641.52,969.76" via=":32_5_0" dir="l" state="m"/>
    <connection from="5697" to="5820" fromLane="0" toLane="0" contPos="-4.00" shape="572.89,882.93 572.07,882.03 570.34,880.33 568.51,878.83 566.53,877.55 565.54,877.05 564.50,876.63 563.45,876.31 562.38,876.10 561.31,876.01 560.24,876.05 559.17,876.21 558.12,876.49 557.09,876.88 556.08,877.37 555.10,877.95 554.17,878.59 552.34,880.12 550.68,881.83 548.35,884.69" via=":31_0_0" dir="r" state="M"/>
    <connection from="5697" to="5659" fromLane="0" toLane="0" contPos="-4.00" shape="572.89,882.93 572.20,882.16 566.46,876.14 557.49,867.40 544.43,855.30" via=":31_1_0" dir="s" state="M"/>
    <connection from="5698" to="5626" fromLane="0" toLane="0" contPos="-4.00" shape="579.14,884.77 581.45,887.23 583.15,888.71 584.98,890.01 586.96,891.08 588.00,891.50 589.08,891.83 590.18,892.07 591.29,892.19 592.42,892.21 593.54,892.12 594.65,891.92 595.73,891.62 596.79,891.24 598.80,890.24 600.68,889.00 602.43,887.59 604.06,886.04" via=":33_4_0" dir="r" state="M"/>
    <connection from="5698" to="5701" fromLane="0" toLane="0" contPos="-4.00" shape="579.14,884.77 585.73,892.79 593.32,902.66 601.84,914.43 602.45,915.29" via=":33_5_0" dir="s" state="M"/>
    <connection from="5700" to="5697" fromLane="0" toLane="0" contPos="-4.00" shape="599.58,917.29 598.99,916.46 590.53,904.77 583.00,894.98 576.49,887.07" via=":33_0_0" dir="s" state="M"/>
    <connection from="5700" to="5626" fromLane="0" toLane="0" contPos="-4.00" shape="599.58,917.29 598.22,915.20 597.06,912.99 596.12,910.69 595.46,908.29 595.10,905.83 595.06,903.34 595.36,900.86 595.98,898.45 596.86,896.12 597.98,893.90 600.01,890.76 602.36,887.86 604.06,886.04" via=":33_1_0" dir="l" state="m"/>
    <connection from="5701" to="5975" fromLane="0" toLane="0" contPos="-4.00" shape="619.47,938.81 636.79,963.03 641.52,969.76" via=":32_2_0" dir="s" state="M"/>
    <connection from="5701" to="5665" fromLane="0" toLane="0" contPos="-4.00" shape="619.47,938.81 620.19,939.84 621.48,941.98 622.57,944.28 623.40,946.72 623.91,949.27 624.05,951.88 623.79,954.48 623.16,957.01 622.21,959.40 621.00,961.64 619.58,963.74 617.20,966.59 614.58,969.18" via=":32_3_0" dir="l" state="m"/>
    <connection from="5703" to="5665" fromLane="0" toLane="0" contPos="-4.00" shape="638.65,971.77 637.95,970.80 636.42,968.92 634.78,967.22 632.96,965.73 632.03,965.12 631.04,964.58 630.03,964.13 628.99,963.79 627.92,963.56 626.85,963.45 625.76,963.46 624.66,963.58 623.58,963.80 622.53,964.11 620.38,965.03 618.35,966.22 616.42,967.62 614.58,969.18" via=":32_0_0" dir="r" state="M"/>
    <connection from="5703" to="5700" fromLane="0" toLane="0" contPos="-4.00" shape="638.65,971.77 633.93,965.05 616.63,940.85" via=":32_1_0" dir="s" state="M"/>
    <connection from="5706" to="5703" fromLane="0" toLane="0" contPos="-4.00" via=":28_0_0" dir="s" state="M"/>
    <connection from="5819" to="5659" fromLane="0" toLane="0" contPos="-4.00" shape="545.54,882.61 547.47,879.77 549.10,876.79 549.96,874.76 550.62,872.68 551.04,870.55 551.18,868.42 551.02,866.31 550.55,864.24 549.78,862.25 548.75,860.35 547.50,858.57 546.05,856.89 544.43,855.30" via=":31_4_0" dir="r" state="m"/>
    <connection from="5819" to="5698" fromLane="0" toLane="0" contPos="-4.00" shape="545.54,882.61 548.21,879.33 550.17,877.33 552.32,875.53 553.47,874.73 554.68,874.02 555.94,873.41 557.25,872.92 558.60,872.57 559.99,872.37 561.39,872.33 562.78,872.45 564.16,872.72 565.50,873.13 566.79,873.66 568.04,874.29 570.39,875.82 572.55,877.60 574.55,879.56 575.50,880.60" via=":31_5_0" dir="l" state="m"/>
    <connection from="5975" to="5707" fromLane="0" toLane="0" contPos="-4.00" via=":26_0_0" dir="s" state="M"/>
