<routes>
	<vehicle depart="0.1" departLane="0" departPos="56.886134595905204" departSpeed="0.33859364" id="330" type="bicycle">
		<route edges="31742 31739"/>
	</vehicle>
	<vehicle depart="0.1" departLane="0" departPos="74.41463580434836" departSpeed="0.079147184" id="328" type="bus">
		<route edges="31742 31739"/>
	</vehicle>
	<vehicle depart="0.1" departLane="0" departPos="11.911159902737008" departSpeed="0.0043837435" id="32" type="passenger">
		<route edges="31241 31743"/>
	</vehicle>
	<vehicle depart="0.1" departLane="0" departPos="39.285301811334485" departSpeed="0.33984136" id="36" type="passenger">
		<route edges=":35_0 31241 31743"/>
	</vehicle>
	<vehicle depart="0.1" departLane="0" departPos="70.01173933719139" departSpeed="0.037003511" id="317" type="passenger">
		<route edges="31631 31743"/>
	</vehicle>
	<vehicle depart="0.1" departLane="0" departPos="22.826494556687223" departSpeed="12.169823" id="329" type="passenger">
		<route edges=":33_11 31240 31237"/>
	</vehicle>
	<vehicle depart="0.1" departLane="0" departPos="7.042455700433511" departSpeed="8.2014275" id="336" type="passenger">
		<route edges=":33_11 31240 32127"/>
	</vehicle>
	<vehicle depart="0.1" departLane="0" departPos="50.61978372899125" departSpeed="0.077449055" id="337" type="passenger">
		<route edges="31742 31739"/>
	</vehicle>
	<vehicle depart="0.1" departLane="0" departPos="48.89952335599859" departSpeed="7.357916" id="347" type="passenger">
		<route edges="31740 31743"/>
	</vehicle>
	<vehicle depart="0.1" departLane="0" departPos="57.57068133664917" departSpeed="0.01360578" id="332" type="motorcycle">
		<route edges="31742 31739"/>
	</vehicle>
</routes>
