<?xml version="1.0" encoding="UTF-8"?>

<!-- generated on Fri Dec 18 15:59:32 2020 by Eclipse SUMO netconvert Version 1.8.0
<configuration xmlns:xsi="http://www.w3.org/2001/XMLSchema-instance" xsi:noNamespaceSchemaLocation="http://sumo.dlr.de/xsd/netconvertConfiguration.xsd">

    <input>
        <node-files value="./converted_scenarios/NGSIM/Lankershim/USA_Lanker-2_23_I-1-1/nodes.net.xml"/>
        <edge-files value="./converted_scenarios/NGSIM/Lankershim/USA_Lanker-2_23_I-1-1/edges.net.xml"/>
        <connection-files value="./converted_scenarios/NGSIM/Lankershim/USA_Lanker-2_23_I-1-1/_connections.net.xml"/>
        <tllogic-files value="./converted_scenarios/NGSIM/Lankershim/USA_Lanker-2_23_I-1-1/_tll.net.xml"/>
    </input>

    <output>
        <output-file value="./converted_scenarios/NGSIM/Lankershim/USA_Lanker-2_23_I-1-1/USA_Lanker-2_23_I-1-1.net.xml"/>
    </output>

    <processing>
        <plain.extend-edge-shape value="true"/>
        <geometry.remove.keep-edges.explicit value="true"/>
        <geometry.avoid-overlap value="true"/>
        <offset.disable-normalization value="true"/>
    </processing>

    <junctions>
        <no-turnarounds value="true"/>
        <junctions.internal-link-detail value="20"/>
    </junctions>

    <report>
        <aggregate-warnings value="5"/>
    </report>

    <random_number>
        <seed value="1234"/>
    </random_number>

</configuration>
-->

<net version="1.6" junctionCornerDetail="5" junctionLinkDetail="20" limitTurnSpeed="5.50" xmlns:xsi="http://www.w3.org/2001/XMLSchema-instance" xsi:noNamespaceSchemaLocation="http://sumo.dlr.de/xsd/net_file.xsd">

    <location netOffset="0.00,0.00" convBoundary="-74.72,-125.48,43.92,61.08" origBoundary="-77.55,-127.66,43.92,63.70" projParameter="!"/>

    <edge id=":11_0" function="internal">
        <lane id=":11_0_0" index="0" disallow="rail_fast" speed="36.11" length="0.26" width="3.31" shape="-42.32,-37.52 -42.54,-37.41"/>
        <lane id=":11_0_1" index="1" disallow="rail_fast" speed="36.11" length="0.26" width="3.11" shape="-40.85,-34.66 -41.08,-34.54"/>
    </edge>
    <edge id=":12_0" function="internal">
        <lane id=":12_0_0" index="0" disallow="rail_fast" speed="36.11" length="3.06" width="3.50" shape="-23.17,-47.48 -20.43,-48.87"/>
        <lane id=":12_0_1" index="1" disallow="rail_fast" speed="36.11" length="3.06" width="3.31" shape="-21.66,-44.44 -18.93,-45.81"/>
    </edge>
    <edge id=":13_0" function="internal">
        <lane id=":13_0_0" index="0" disallow="bus truck rail_fast" speed="11.02" length="10.30" width="3.87" shape="-17.77,-57.84 -17.11,-57.68 -16.50,-57.53 -15.95,-57.41 -15.44,-57.31 -14.97,-57.23 -14.53,-57.18 -14.12,-57.15 -13.72,-57.14 -13.34,-57.16 -12.96,-57.20 -12.58,-57.27 -12.20,-57.37 -11.80,-57.49 -11.38,-57.64 -10.94,-57.82 -10.46,-58.03 -9.95,-58.27 -9.39,-58.53 -8.78,-58.83"/>
        <lane id=":13_0_1" index="1" disallow="bus truck rail_fast" speed="12.20" length="10.30" width="3.51" shape="-17.89,-54.29 -17.09,-54.10 -16.37,-53.94 -15.70,-53.80 -15.09,-53.69 -14.53,-53.60 -14.01,-53.54 -13.51,-53.50 -13.04,-53.50 -12.58,-53.52 -12.13,-53.57 -11.68,-53.65 -11.23,-53.76 -10.75,-53.91 -10.25,-54.09 -9.73,-54.30 -9.16,-54.55 -8.54,-54.83 -7.87,-55.15 -7.14,-55.51"/>
    </edge>
    <edge id=":13_2" function="internal">
        <lane id=":13_2_0" index="0" disallow="bus truck rail_fast" speed="36.11" length="11.23" width="3.51" shape="-17.10,-50.27 -7.14,-55.51"/>
        <lane id=":13_2_1" index="1" disallow="bus truck rail_fast" speed="36.11" length="11.23" width="3.38" shape="-15.36,-46.95 -14.68,-47.43 -14.06,-47.86 -13.50,-48.25 -12.98,-48.59 -12.51,-48.90 -12.07,-49.17 -11.65,-49.42 -11.25,-49.65 -10.86,-49.87 -10.46,-50.07 -10.06,-50.28 -9.65,-50.48 -9.21,-50.69 -8.74,-50.92 -8.22,-51.16 -7.66,-51.42 -7.05,-51.72 -6.37,-52.04 -5.61,-52.41"/>
    </edge>
    <edge id=":13_4" function="internal">
        <lane id=":13_4_0" index="0" disallow="rail_fast" speed="36.11" length="13.86" width="3.51" shape="-19.55,-49.32 -7.14,-55.51"/>
        <lane id=":13_4_1" index="1" disallow="rail_fast" speed="36.11" length="13.86" width="3.38" shape="-18.03,-46.26 -5.61,-52.41"/>
    </edge>
    <edge id=":15_0" function="internal">
        <lane id=":15_0_0" index="0" disallow="rail_fast" speed="36.11" length="19.07" width="2.82" shape="-42.00,-36.65 -50.45,-53.75"/>
        <lane id=":15_0_1" index="1" disallow="rail_fast" speed="36.11" length="19.07" width="2.97" shape="-39.23,-38.08 -47.62,-55.20"/>
        <lane id=":15_0_2" index="2" disallow="rail_fast" speed="36.11" length="19.07" width="2.96" shape="-36.53,-39.47 -44.93,-56.58"/>
    </edge>
    <edge id=":15_3" function="internal">
        <lane id=":15_3_0" index="0" disallow="bus truck rail_fast" speed="13.68" length="23.17" width="2.96" shape="-30.11,-39.70 -30.87,-39.86 -31.63,-40.11 -32.39,-40.43 -33.15,-40.83 -33.92,-41.32 -34.69,-41.88 -35.46,-42.53 -36.23,-43.26 -37.01,-44.06 -37.79,-44.95 -38.57,-45.92 -39.36,-46.97 -40.15,-48.10 -40.94,-49.31 -41.73,-50.60 -42.53,-51.98 -43.32,-53.43 -44.13,-54.97 -44.93,-56.58"/>
    </edge>
    <edge id=":15_4" function="internal">
        <lane id=":15_4_0" index="0" disallow="bus truck rail_fast" speed="36.11" length="4.30" width="2.82" shape="-48.57,-49.88 -50.45,-53.75"/>
    </edge>
    <edge id=":18_0" function="internal">
        <lane id=":18_0_0" index="0" disallow="rail_fast" speed="14.45" length="8.28" width="3.25" shape="5.65,-46.49 5.11,-46.22 4.62,-45.98 4.18,-45.76 3.78,-45.54 3.42,-45.34 3.09,-45.15 2.79,-44.95 2.51,-44.76 2.25,-44.56 2.00,-44.35 1.76,-44.12 1.52,-43.88 1.28,-43.61 1.03,-43.32 0.77,-42.99 0.49,-42.64 0.19,-42.24 -0.13,-41.80 -0.49,-41.31"/>
        <lane id=":18_0_1" index="1" disallow="rail_fast" speed="36.11" length="8.28" width="3.60" shape="5.65,-46.49 -1.58,-42.92"/>
        <lane id=":18_0_2" index="2" disallow="rail_fast" speed="36.11" length="8.28" width="3.67" shape="4.06,-49.76 -3.64,-45.96"/>
    </edge>
    <edge id=":19_0" function="internal">
        <lane id=":19_0_0" index="0" disallow="rail_fast" speed="9.74" length="3.41" width="3.19" shape="-1.83,-39.49 -1.99,-39.28 -2.14,-39.09 -2.29,-38.92 -2.42,-38.77 -2.56,-38.65 -2.68,-38.54 -2.81,-38.44 -2.94,-38.36 -3.07,-38.28 -3.20,-38.21 -3.34,-38.15 -3.48,-38.09 -3.64,-38.03 -3.81,-37.96 -3.98,-37.89 -4.18,-37.81 -4.39,-37.72 -4.61,-37.62 -4.86,-37.51"/>
        <lane id=":19_0_1" index="1" disallow="rail_fast" speed="36.11" length="3.41" width="3.52" shape="-3.30,-42.07 -6.34,-40.56"/>
        <lane id=":19_0_2" index="2" disallow="rail_fast" speed="36.11" length="3.41" width="3.68" shape="-5.11,-45.23 -7.91,-43.83"/>
    </edge>
    <edge id=":2_0" function="internal">
        <lane id=":2_0_0" index="0" disallow="bus truck rail_fast" speed="8.75" length="5.40" width="3.35" shape="34.73,40.26 34.34,40.27 33.98,40.28 33.65,40.30 33.36,40.32 33.08,40.35 32.83,40.39 32.59,40.43 32.37,40.48 32.16,40.55 31.96,40.62 31.76,40.71 31.56,40.82 31.35,40.95 31.14,41.09 30.92,41.25 30.69,41.44 30.44,41.64 30.16,41.87 29.87,42.13"/>
    </edge>
    <edge id=":20_0" function="internal">
        <lane id=":20_0_0" index="0" disallow="bus truck rail_fast" speed="14.27" length="3.68" width="2.93" shape="-7.48,-36.24 -7.73,-36.12 -7.95,-36.01 -8.16,-35.92 -8.34,-35.84 -8.51,-35.76 -8.67,-35.68 -8.82,-35.61 -8.95,-35.54 -9.08,-35.47 -9.21,-35.39 -9.33,-35.31 -9.46,-35.23 -9.58,-35.13 -9.71,-35.02 -9.85,-34.90 -10.00,-34.76 -10.16,-34.60 -10.33,-34.43 -10.52,-34.23"/>
    </edge>
    <edge id=":20_1" function="internal">
        <lane id=":20_1_0" index="0" disallow="rail_fast" speed="36.11" length="4.87" width="3.46" shape="-8.94,-39.27 -13.29,-37.12"/>
        <lane id=":20_1_1" index="1" disallow="rail_fast" speed="36.11" length="4.87" width="3.70" shape="-10.50,-42.54 -14.86,-40.35"/>
    </edge>
    <edge id=":20_3" function="internal">
        <lane id=":20_3_0" index="0" disallow="bus truck rail_fast" speed="36.11" length="4.93" width="3.01" shape="-10.50,-42.54 -10.83,-42.37 -11.13,-42.23 -11.40,-42.10 -11.64,-41.98 -11.87,-41.88 -12.08,-41.79 -12.28,-41.71 -12.47,-41.64 -12.65,-41.57 -12.84,-41.51 -13.03,-41.45 -13.22,-41.39 -13.43,-41.34 -13.65,-41.27 -13.89,-41.21 -14.15,-41.14 -14.44,-41.06 -14.77,-40.98 -15.12,-40.88"/>
    </edge>
    <edge id=":21_0" function="internal">
        <lane id=":21_0_0" index="0" disallow="rail_fast" speed="36.11" length="3.05" width="3.21" shape="-14.46,-36.54 -17.19,-35.19"/>
        <lane id=":21_0_1" index="1" disallow="rail_fast" speed="36.11" length="3.05" width="3.68" shape="-16.04,-39.76 -18.76,-38.39"/>
    </edge>
    <edge id=":22_0" function="internal">
        <lane id=":22_0_0" index="0" disallow="rail_fast" speed="36.11" length="10.83" width="3.17" shape="-28.71,-29.49 -38.42,-24.68"/>
        <lane id=":22_0_1" index="1" disallow="rail_fast" speed="36.11" length="10.83" width="3.68" shape="-30.28,-32.62 -39.96,-27.76"/>
    </edge>
    <edge id=":22_2" function="internal">
        <lane id=":22_2_0" index="0" disallow="bus truck rail_fast" speed="9.83" length="11.33" width="3.68" shape="-33.33,-36.39 -33.45,-35.78 -33.60,-35.19 -33.77,-34.62 -33.97,-34.06 -34.19,-33.52 -34.44,-33.00 -34.72,-32.49 -35.01,-32.00 -35.34,-31.53 -35.69,-31.08 -36.06,-30.64 -36.46,-30.22 -36.89,-29.82 -37.34,-29.43 -37.81,-29.06 -38.31,-28.71 -38.84,-28.38 -39.39,-28.06 -39.96,-27.76"/>
    </edge>
    <edge id=":23_0" function="internal">
        <lane id=":23_0_0" index="0" disallow="bus truck rail_fast" speed="36.11" length="4.83" width="5.13" shape="-52.58,-13.53 -47.91,-14.75"/>
    </edge>
    <edge id=":23_1" function="internal">
        <lane id=":23_1_0" index="0" disallow="rail_fast" speed="36.11" length="4.52" width="3.11" shape="-45.67,-21.13 -49.70,-19.06"/>
        <lane id=":23_1_1" index="1" disallow="rail_fast" speed="36.11" length="4.52" width="3.66" shape="-46.99,-24.28 -51.00,-22.20"/>
    </edge>
    <edge id=":25_0" function="internal">
        <lane id=":25_0_0" index="0" disallow="bus truck rail_fast" speed="36.11" length="2.87" width="5.36" shape="32.69,35.18 35.56,35.16"/>
    </edge>
    <edge id=":28_0" function="internal">
        <lane id=":28_0_0" index="0" disallow="rail_fast" speed="36.11" length="7.96" width="3.51" shape="-56.79,-122.89 -53.18,-115.55"/>
        <lane id=":28_0_1" index="1" disallow="rail_fast" speed="36.11" length="7.96" width="2.89" shape="-59.69,-121.30 -56.10,-114.11"/>
        <lane id=":28_0_2" index="2" disallow="rail_fast" speed="36.11" length="7.96" width="3.01" shape="-62.37,-119.84 -58.83,-112.77"/>
        <lane id=":28_0_3" index="3" disallow="rail_fast" speed="36.11" length="7.96" width="2.82" shape="-65.07,-118.37 -61.53,-111.43"/>
        <lane id=":28_0_4" index="4" disallow="bus rail_fast" speed="36.11" length="7.96" width="2.91" shape="-65.07,-118.37 -64.80,-117.85 -64.56,-117.38 -64.34,-116.95 -64.15,-116.56 -63.98,-116.20 -63.83,-115.86 -63.70,-115.55 -63.58,-115.24 -63.47,-114.95 -63.37,-114.65 -63.27,-114.35 -63.18,-114.04 -63.10,-113.70 -63.01,-113.35 -62.91,-112.96 -62.81,-112.54 -62.70,-112.07 -62.58,-111.55 -62.45,-110.98"/>
    </edge>
    <edge id=":29_0" function="internal">
        <lane id=":29_0_0" index="0" disallow="rail_fast" speed="36.11" length="3.88" width="3.35" shape="-48.40,-105.85 -46.70,-102.43"/>
        <lane id=":29_0_1" index="1" disallow="rail_fast" speed="36.11" length="3.88" width="2.89" shape="-51.26,-104.37 -49.53,-100.93"/>
        <lane id=":29_0_2" index="2" disallow="rail_fast" speed="36.11" length="3.88" width="3.08" shape="-53.95,-102.97 -52.21,-99.51"/>
        <lane id=":29_0_3" index="3" disallow="rail_fast" speed="36.11" length="3.88" width="2.82" shape="-56.61,-101.59 -54.86,-98.10"/>
        <lane id=":29_0_4" index="4" disallow="bus rail_fast" speed="36.11" length="3.88" width="3.05" shape="-59.00,-100.35 -58.90,-100.07 -58.81,-99.82 -58.73,-99.59 -58.66,-99.39 -58.59,-99.20 -58.53,-99.03 -58.47,-98.87 -58.41,-98.71 -58.36,-98.57 -58.30,-98.42 -58.24,-98.28 -58.18,-98.13 -58.11,-97.97 -58.03,-97.80 -57.95,-97.62 -57.86,-97.42 -57.75,-97.21 -57.64,-96.97 -57.51,-96.70"/>
    </edge>
    <edge id=":30_0" function="internal">
        <lane id=":30_0_0" index="0" disallow="bus truck rail_fast" speed="10.23" length="10.24" width="3.11" shape="-26.98,-63.50 -26.74,-63.10 -26.48,-62.71 -26.20,-62.33 -25.90,-61.97 -25.58,-61.62 -25.23,-61.28 -24.86,-60.95 -24.46,-60.64 -24.05,-60.34 -23.61,-60.05 -23.15,-59.78 -22.67,-59.52 -22.16,-59.27 -21.63,-59.04 -21.08,-58.82 -20.51,-58.61 -19.91,-58.41 -19.29,-58.23 -18.65,-58.06"/>
    </edge>
    <edge id=":30_1" function="internal">
        <lane id=":30_1_0" index="0" disallow="bus truck rail_fast" speed="11.58" length="11.05" width="3.13" shape="-30.03,-61.90 -29.67,-61.18 -29.33,-60.55 -29.00,-59.98 -28.68,-59.47 -28.36,-59.02 -28.05,-58.62 -27.72,-58.26 -27.39,-57.94 -27.05,-57.65 -26.68,-57.39 -26.29,-57.15 -25.88,-56.92 -25.43,-56.70 -24.94,-56.49 -24.41,-56.27 -23.83,-56.04 -23.21,-55.79 -22.52,-55.52 -21.78,-55.22"/>
    </edge>
    <edge id=":30_2" function="internal">
        <lane id=":30_2_0" index="0" disallow="rail_fast" speed="36.11" length="10.45" width="3.12" shape="-30.03,-61.90 -25.47,-52.34"/>
        <lane id=":30_2_1" index="1" disallow="rail_fast" speed="36.11" length="10.45" width="3.06" shape="-32.76,-60.46 -28.26,-51.02"/>
        <lane id=":30_2_2" index="2" disallow="rail_fast" speed="36.11" length="10.45" width="2.98" shape="-35.46,-59.04 -31.00,-49.73"/>
    </edge>
    <edge id=":30_5" function="internal">
        <lane id=":30_5_0" index="0" disallow="bus truck rail_fast" speed="36.11" length="10.20" width="2.87" shape="-38.15,-57.63 -37.81,-56.94 -37.50,-56.32 -37.22,-55.76 -36.97,-55.26 -36.74,-54.79 -36.53,-54.36 -36.33,-53.96 -36.15,-53.57 -35.97,-53.20 -35.80,-52.83 -35.64,-52.45 -35.48,-52.06 -35.31,-51.65 -35.14,-51.21 -34.96,-50.73 -34.77,-50.21 -34.56,-49.63 -34.33,-48.99 -34.09,-48.28"/>
    </edge>
    <edge id=":31_0" function="internal">
        <lane id=":31_0_0" index="0" disallow="rail_fast" speed="36.11" length="3.22" width="3.12" shape="-24.59,-50.48 -23.20,-47.58"/>
        <lane id=":31_0_1" index="1" disallow="rail_fast" speed="36.11" length="3.22" width="3.06" shape="-27.34,-49.08 -25.95,-46.17"/>
        <lane id=":31_0_2" index="2" disallow="rail_fast" speed="36.11" length="3.22" width="2.95" shape="-30.03,-47.71 -28.65,-44.80"/>
    </edge>
    <edge id=":32_0" function="internal">
        <lane id=":32_0_0" index="0" disallow="rail_fast" speed="36.11" length="2.64" width="3.14" shape="-17.15,-34.99 -16.00,-32.60"/>
        <lane id=":32_0_1" index="1" disallow="rail_fast" speed="36.11" length="2.64" width="3.10" shape="-19.96,-33.63 -18.82,-31.24"/>
        <lane id=":32_0_2" index="2" disallow="rail_fast" speed="36.11" length="2.64" width="2.93" shape="-22.68,-32.31 -21.55,-29.93"/>
    </edge>
    <edge id=":34_0" function="internal">
        <lane id=":34_0_0" index="0" disallow="rail_fast" speed="36.11" length="3.05" width="2.78" shape="-4.47,38.70 -5.83,35.97"/>
        <lane id=":34_0_1" index="1" disallow="rail_fast" speed="36.11" length="3.05" width="3.00" shape="-1.87,37.44 -3.22,34.70"/>
        <lane id=":34_0_2" index="2" disallow="bus rail_fast" speed="36.11" length="3.05" width="3.02" shape="0.85,36.12 -0.49,33.38"/>
        <lane id=":34_0_3" index="3" disallow="bus rail_fast" speed="36.11" length="3.05" width="2.96" shape="3.58,34.80 2.23,32.06"/>
        <lane id=":34_0_4" index="4" disallow="rail_fast" speed="36.11" length="3.05" width="3.03" shape="6.29,33.48 4.94,30.75"/>
    </edge>
    <edge id=":35_0" function="internal">
        <lane id=":35_0_0" index="0" disallow="rail_fast" speed="21.96" length="7.43" width="2.94" shape="-13.83,20.10 -14.08,19.60 -14.32,19.16 -14.54,18.76 -14.75,18.40 -14.95,18.08 -15.14,17.79 -15.34,17.53 -15.53,17.29 -15.73,17.06 -15.93,16.84 -16.14,16.62 -16.37,16.40 -16.62,16.18 -16.88,15.94 -17.16,15.69 -17.48,15.41 -17.82,15.10 -18.19,14.76 -18.60,14.38"/>
        <lane id=":35_0_1" index="1" disallow="rail_fast" speed="36.11" length="7.43" width="2.94" shape="-13.83,20.10 -17.13,13.54"/>
        <lane id=":35_0_2" index="2" disallow="rail_fast" speed="36.11" length="7.43" width="3.05" shape="-11.16,18.75 -14.49,12.04"/>
        <lane id=":35_0_3" index="3" disallow="rail_fast" speed="36.11" length="7.43" width="3.03" shape="-8.43,17.37 -11.83,10.54"/>
        <lane id=":35_0_4" index="4" disallow="rail_fast" speed="36.11" length="7.43" width="3.05" shape="-5.70,16.00 -9.17,9.03"/>
        <lane id=":35_0_5" index="5" disallow="rail_fast" speed="36.11" length="7.43" width="3.12" shape="-2.95,14.61 -5.94,8.55"/>
    </edge>
    <edge id=":36_0" function="internal">
        <lane id=":36_0_0" index="0" disallow="rail_fast" speed="15.71" length="3.50" width="3.22" shape="-18.99,14.02 -19.19,13.83 -19.38,13.67 -19.56,13.53 -19.73,13.40 -19.89,13.30 -20.04,13.20 -20.19,13.11 -20.32,13.03 -20.46,12.94 -20.58,12.86 -20.70,12.77 -20.82,12.67 -20.94,12.57 -21.06,12.44 -21.18,12.30 -21.30,12.14 -21.42,11.96 -21.54,11.75 -21.67,11.50"/>
        <lane id=":36_0_1" index="1" disallow="rail_fast" speed="36.11" length="3.50" width="2.87" shape="-17.33,13.16 -18.85,10.14"/>
        <lane id=":36_0_2" index="2" disallow="rail_fast" speed="36.11" length="3.50" width="3.00" shape="-14.63,11.77 -16.10,8.81"/>
        <lane id=":36_0_3" index="3" disallow="rail_fast" speed="36.11" length="3.50" width="3.02" shape="-11.91,10.37 -13.37,7.47"/>
        <lane id=":36_0_4" index="4" disallow="rail_fast" speed="36.11" length="3.50" width="3.02" shape="-9.22,8.94 -10.65,6.09"/>
        <lane id=":36_0_5" index="5" disallow="rail_fast" speed="36.11" length="3.50" width="3.03" shape="-6.03,8.37 -7.86,4.67"/>
    </edge>
    <edge id=":37_0" function="internal">
        <lane id=":37_0_0" index="0" disallow="bus truck rail_fast" speed="36.11" length="4.73" width="3.84" shape="-31.22,-7.46 -31.38,-7.77 -31.52,-8.06 -31.65,-8.32 -31.76,-8.55 -31.87,-8.77 -31.96,-8.97 -32.05,-9.16 -32.14,-9.33 -32.23,-9.50 -32.32,-9.66 -32.41,-9.83 -32.51,-10.00 -32.62,-10.17 -32.75,-10.35 -32.89,-10.54 -33.04,-10.75 -33.22,-10.98 -33.41,-11.23 -33.64,-11.50"/>
    </edge>
    <edge id=":37_1" function="internal">
        <lane id=":37_1_0" index="0" disallow="rail_fast" speed="36.11" length="5.10" width="2.87" shape="-28.25,-8.97 -30.56,-13.56"/>
        <lane id=":37_1_1" index="1" disallow="rail_fast" speed="36.11" length="5.10" width="3.02" shape="-25.60,-10.32 -27.90,-14.87"/>
        <lane id=":37_1_2" index="2" disallow="rail_fast" speed="36.11" length="5.10" width="3.12" shape="-22.87,-11.72 -25.12,-16.25"/>
    </edge>
    <edge id=":37_4" function="internal">
        <lane id=":37_4_0" index="0" disallow="bus truck rail_fast" speed="36.11" length="5.03" width="2.93" shape="-20.13,-13.12 -22.37,-17.62"/>
    </edge>
    <edge id=":37_5" function="internal">
        <lane id=":37_5_0" index="0" disallow="bus truck rail_fast" speed="36.11" length="4.99" width="3.03" shape="-17.41,-14.50 -19.64,-18.97"/>
    </edge>
    <edge id=":38_0" function="internal">
        <lane id=":38_0_0" index="0" disallow="rail_fast" speed="36.11" length="3.02" width="3.06" shape="-35.14,-22.80 -36.48,-25.51"/>
        <lane id=":38_0_1" index="1" disallow="rail_fast" speed="36.11" length="3.02" width="2.99" shape="-32.42,-24.14 -33.75,-26.85"/>
        <lane id=":38_0_2" index="2" disallow="rail_fast" speed="36.11" length="3.02" width="3.06" shape="-29.66,-25.49 -31.00,-28.20"/>
    </edge>
    <edge id=":39_0" function="internal">
        <lane id=":39_0_0" index="0" disallow="rail_fast" speed="36.11" length="1.22" width="3.29" shape="-42.46,-37.56 -41.92,-36.47"/>
        <lane id=":39_0_1" index="1" disallow="rail_fast" speed="36.11" length="1.22" width="2.97" shape="-39.67,-38.99 -39.14,-37.90"/>
        <lane id=":39_0_2" index="2" disallow="rail_fast" speed="36.11" length="1.22" width="3.01" shape="-36.98,-40.38 -36.45,-39.29"/>
    </edge>
    <edge id=":5_0" function="internal">
        <lane id=":5_0_0" index="0" disallow="bus truck rail_fast" speed="8.72" length="16.70" width="3.23" shape="-54.79,-31.08 -53.55,-31.72 -52.39,-32.35 -51.32,-32.99 -50.32,-33.62 -49.41,-34.25 -48.58,-34.88 -47.84,-35.50 -47.18,-36.13 -46.59,-36.75 -46.10,-37.37 -45.68,-37.99 -45.35,-38.61 -45.09,-39.23 -44.92,-39.84 -44.84,-40.46 -44.83,-41.07 -44.91,-41.68 -45.07,-42.29 -45.31,-42.90"/>
    </edge>
    <edge id=":5_1" function="internal">
        <lane id=":5_1_0" index="0" disallow="rail_fast" speed="36.11" length="13.86" width="3.23" shape="-54.79,-31.08 -42.49,-37.43"/>
        <lane id=":5_1_1" index="1" disallow="rail_fast" speed="36.11" length="13.86" width="3.03" shape="-53.40,-28.28 -41.03,-34.57"/>
    </edge>
    <edge id=":5_3" function="internal">
        <lane id=":5_3_0" index="0" disallow="bus truck rail_fast" speed="36.11" length="1.56" width="2.92" shape="-52.05,-25.55 -53.45,-24.86"/>
    </edge>
    <edge id=":6_0" function="internal">
        <lane id=":6_0_0" index="0" disallow="bus truck rail_fast" speed="9.12" length="13.80" width="3.05" shape="-11.08,-33.64 -11.44,-33.21 -11.77,-32.76 -12.04,-32.27 -12.27,-31.76 -12.46,-31.22 -12.60,-30.65 -12.69,-30.06 -12.74,-29.43 -12.74,-28.78 -12.70,-28.10 -12.61,-27.39 -12.48,-26.65 -12.30,-25.88 -12.08,-25.09 -11.81,-24.26 -11.49,-23.41 -11.13,-22.53 -10.72,-21.62 -10.27,-20.69"/>
    </edge>
    <edge id=":6_1" function="internal">
        <lane id=":6_1_0" index="0" disallow="rail_fast" speed="36.11" length="13.06" width="3.05" shape="-15.91,-32.42 -10.27,-20.69"/>
        <lane id=":6_1_1" index="1" disallow="rail_fast" speed="36.11" length="13.06" width="2.91" shape="-18.73,-31.06 -13.09,-19.28"/>
        <lane id=":6_1_2" index="2" disallow="rail_fast" speed="36.11" length="13.06" width="2.89" shape="-21.46,-29.75 -15.79,-17.93"/>
    </edge>
    <edge id=":6_4" function="internal">
        <lane id=":6_4_0" index="0" disallow="bus truck rail_fast" speed="36.11" length="13.55" width="2.89" shape="-22.31,-29.80 -15.79,-17.93"/>
    </edge>
    <edge id=":7_0" function="internal">
        <lane id=":7_0_0" index="0" disallow="rail_fast" speed="36.11" length="0.24" width="3.05" shape="0.06,0.57 0.16,0.78"/>
        <lane id=":7_0_1" index="1" disallow="rail_fast" speed="36.11" length="0.24" width="2.91" shape="-2.61,1.90 -2.50,2.12"/>
        <lane id=":7_0_2" index="2" disallow="rail_fast" speed="36.11" length="0.24" width="2.89" shape="-5.20,3.20 -5.09,3.43"/>
    </edge>
    <edge id=":8_0" function="internal">
        <lane id=":8_0_0" index="0" disallow="rail_fast" speed="36.11" length="3.05" width="3.03" shape="3.28,6.85 4.65,9.58"/>
        <lane id=":8_0_1" index="1" disallow="rail_fast" speed="36.11" length="3.05" width="3.00" shape="0.56,8.21 1.92,10.94"/>
        <lane id=":8_0_2" index="2" disallow="rail_fast" speed="36.11" length="3.05" width="2.94" shape="-2.08,9.53 -0.74,12.26"/>
    </edge>
    <edge id=":9_0" function="internal">
        <lane id=":9_0_0" index="0" disallow="bus truck rail_fast" speed="10.11" length="13.46" width="3.16" shape="12.91,26.11 13.35,26.95 13.79,27.75 14.24,28.50 14.70,29.22 15.17,29.89 15.64,30.51 16.12,31.10 16.61,31.64 17.11,32.14 17.61,32.59 18.12,33.01 18.64,33.38 19.16,33.70 19.69,33.99 20.23,34.23 20.77,34.43 21.33,34.59 21.89,34.70 22.45,34.77"/>
    </edge>
    <edge id=":9_1" function="internal">
        <lane id=":9_1_0" index="0" disallow="rail_fast" speed="36.11" length="13.11" width="3.16" shape="12.91,26.11 18.71,37.87"/>
        <lane id=":9_1_1" index="1" disallow="bus rail_fast" speed="36.11" length="13.11" width="2.93" shape="10.13,27.46 15.95,39.21"/>
        <lane id=":9_1_2" index="2" disallow="rail_fast" speed="36.11" length="13.11" width="3.07" shape="7.38,28.80 13.21,40.54"/>
    </edge>

    <edge id="3426" from="34" to="35" priority="1" spreadType="center" length="21.90">
        <lane id="3426_0" index="0" disallow="rail_fast" speed="36.11" length="21.90" width="2.78" customShape="1" shape="-5.83,35.97 -10.30,27.07 -13.83,20.10"/>
        <lane id="3426_1" index="1" disallow="rail_fast" speed="36.11" length="21.90" width="3.00" customShape="1" shape="-3.22,34.70 -7.65,25.82 -11.16,18.75"/>
        <lane id="3426_2" index="2" disallow="rail_fast" speed="36.11" length="21.90" width="3.02" customShape="1" shape="-0.49,33.38 -4.96,24.39 -8.43,17.37"/>
        <lane id="3426_3" index="3" disallow="rail_fast" speed="36.11" length="21.90" width="2.96" customShape="1" shape="2.23,32.06 -2.28,22.93 -5.70,16.00"/>
        <lane id="3426_4" index="4" disallow="rail_fast" speed="36.11" length="21.90" width="3.03" customShape="1" shape="4.94,30.75 0.45,21.55 -2.95,14.61"/>
    </edge>
    <edge id="3438" from="35" to="36" priority="1" spreadType="center" length="8.44">
        <lane id="3438_0" index="0" disallow="rail_fast" speed="36.11" length="8.44" width="2.94" customShape="1" shape="-18.60,14.38 -18.99,14.02"/>
        <lane id="3438_1" index="1" disallow="rail_fast" speed="36.11" length="8.44" width="2.94" customShape="1" shape="-17.13,13.54 -17.33,13.16"/>
        <lane id="3438_2" index="2" disallow="rail_fast" speed="36.11" length="8.44" width="3.05" customShape="1" shape="-14.49,12.04 -14.63,11.77"/>
        <lane id="3438_3" index="3" disallow="rail_fast" speed="36.11" length="8.44" width="3.03" customShape="1" shape="-11.83,10.54 -11.91,10.37"/>
        <lane id="3438_4" index="4" disallow="rail_fast" speed="36.11" length="8.44" width="3.05" customShape="1" shape="-9.17,9.03 -9.22,8.94"/>
        <lane id="3438_5" index="5" disallow="rail_fast" speed="36.11" length="8.44" width="3.12" customShape="1" shape="-5.94,8.55 -6.03,8.37"/>
    </edge>
    <edge id="3450" from="36" to="37" priority="1" spreadType="center" length="24.49">
        <lane id="3450_0" index="0" disallow="rail_fast" speed="36.11" length="24.49" width="3.22" customShape="1" shape="-21.67,11.50 -24.85,5.24 -28.64,-2.45 -31.22,-7.46"/>
        <lane id="3450_1" index="1" disallow="rail_fast" speed="36.11" length="24.49" width="2.87" customShape="1" shape="-18.85,10.14 -21.85,4.09 -25.68,-3.86 -28.25,-8.97"/>
        <lane id="3450_2" index="2" disallow="rail_fast" speed="36.11" length="24.49" width="3.00" customShape="1" shape="-16.10,8.81 -19.12,2.76 -22.97,-5.19 -25.60,-10.32"/>
        <lane id="3450_3" index="3" disallow="rail_fast" speed="36.11" length="24.49" width="3.02" customShape="1" shape="-13.37,7.47 -16.45,1.31 -20.34,-6.64 -22.87,-11.72"/>
        <lane id="3450_4" index="4" disallow="rail_fast" speed="36.11" length="24.49" width="3.02" customShape="1" shape="-10.65,6.09 -13.77,-0.15 -17.65,-8.10 -20.13,-13.12"/>
        <lane id="3450_5" index="5" disallow="rail_fast" speed="36.11" length="24.49" width="3.03" customShape="1" shape="-7.86,4.67 -11.07,-1.65 -14.96,-9.60 -17.41,-14.50"/>
    </edge>
    <edge id="3456" from="6" to="7" priority="1" spreadType="center" length="24.71">
        <lane id="3456_0" index="0" disallow="rail_fast" speed="36.11" length="24.71" width="3.05" customShape="1" shape="-10.27,-20.69 -7.11,-14.35 -3.25,-6.44 0.06,0.57"/>
        <lane id="3456_1" index="1" disallow="rail_fast" speed="36.11" length="24.71" width="2.91" customShape="1" shape="-13.09,-19.28 -9.67,-12.59 -5.99,-5.02 -2.61,1.90"/>
        <lane id="3456_2" index="2" disallow="rail_fast" speed="36.11" length="24.71" width="2.89" customShape="1" shape="-15.79,-17.93 -12.30,-11.03 -8.51,-3.32 -5.20,3.20"/>
    </edge>
    <edge id="3462" from="7" to="8" priority="1" spreadType="center" length="8.47">
        <lane id="3462_0" index="0" disallow="rail_fast" speed="36.11" length="8.47" width="3.05" customShape="1" shape="0.16,0.78 3.28,6.85"/>
        <lane id="3462_1" index="1" disallow="rail_fast" speed="36.11" length="8.47" width="2.91" customShape="1" shape="-2.50,2.12 0.56,8.21"/>
        <lane id="3462_2" index="2" disallow="rail_fast" speed="36.11" length="8.47" width="2.89" customShape="1" shape="-5.09,3.43 -2.08,9.53"/>
    </edge>
    <edge id="3468" from="8" to="9" priority="1" spreadType="center" length="22.24">
        <lane id="3468_0" index="0" disallow="rail_fast" speed="36.11" length="22.24" width="3.03" customShape="1" shape="4.65,9.58 8.59,17.53 12.91,26.11"/>
        <lane id="3468_1" index="1" disallow="rail_fast" speed="36.11" length="22.24" width="3.00" customShape="1" shape="1.92,10.94 5.91,18.94 10.13,27.46"/>
        <lane id="3468_2" index="2" disallow="rail_fast" speed="36.11" length="22.24" width="2.94" customShape="1" shape="-0.74,12.26 3.22,20.32 7.38,28.80"/>
    </edge>
    <edge id="3498" from="1" to="2" priority="1" spreadType="center" length="9.59">
        <lane id="3498_0" index="0" disallow="rail_fast" speed="36.11" length="9.59" width="4.77" customShape="1" shape="43.92,39.95 34.73,40.26"/>
    </edge>
    <edge id="3500" from="25" to="26" priority="1" spreadType="center" length="9.59">
        <lane id="3500_0" index="0" disallow="rail_fast" speed="36.11" length="9.59" width="5.36" customShape="1" shape="35.56,35.16 43.70,34.89"/>
    </edge>
    <edge id="3509" from="4" to="5" priority="1" spreadType="center" length="15.63">
        <lane id="3509_0" index="0" disallow="rail_fast" speed="36.11" length="15.63" width="3.23" customShape="1" shape="-66.88,-25.07 -62.48,-27.25 -54.79,-31.08"/>
        <lane id="3509_1" index="1" disallow="rail_fast" speed="36.11" length="15.63" width="3.02" customShape="1" shape="-65.49,-22.27 -61.05,-24.47 -53.40,-28.28"/>
        <lane id="3509_2" index="2" disallow="rail_fast" speed="36.11" length="15.63" width="3.06" customShape="1" shape="-64.14,-19.55 -59.64,-21.77 -52.05,-25.55"/>
    </edge>
    <edge id="3517" from="23" to="24" priority="1" spreadType="center" length="14.50">