<routes>
	<vehicle depart="0.1" departLane="1" departPos="120.65944372006355" departSpeed="4.0005241" id="1" type="passenger">
		<route edges="26 28 24"/>
	</vehicle>
	<vehicle depart="0.1" departLane="0" departPos="0" departSpeed="12.42214" id="2" type="passenger">
		<route edges="26 27 24"/>
	</vehicle>
	<vehicle depart="0.1" departLane="0" departPos="86.56159189762656" departSpeed="15.297115" id="3" type="passenger">
		<route edges="26 27 24"/>
	</vehicle>
</routes>
