<!-- generated on Tue Feb  9 22:04:17 2021 by Eclipse SUMO netconvert Version 1.8.0
<configuration xmlns:xsi="http://www.w3.org/2001/XMLSchema-instance" xsi:noNamespaceSchemaLocation="http://sumo.dlr.de/xsd/netconvertConfiguration.xsd">

    <input>
        <node-files value="./converted_scenarios/scenario-factory/DEU_Guetersloh-6_1_I-1-1/DEU_Guetersloh-6_1_I-1-1.nod.xml"/>
        <edge-files value="./converted_scenarios/scenario-factory/DEU_Guetersloh-6_1_I-1-1/DEU_Guetersloh-6_1_I-1-1.edg.xml"/>
        <connection-files value="./converted_scenarios/scenario-factory/DEU_Guetersloh-6_1_I-1-1/DEU_Guetersloh-6_1_I-1-1.con.xml"/>
        <tllogic-files value="./converted_scenarios/scenario-factory/DEU_Guetersloh-6_1_I-1-1/DEU_Guetersloh-6_1_I-1-1.tll.xml"/>
        <type-files value="/home/zen/commonroad-interactive-benchmarks/install/commonroad-map-tool/crmapconverter/sumo_map/templates/DEU.typ.xml"/>
    </input>

    <output>
        <output-file value="./converted_scenarios/scenario-factory/DEU_Guetersloh-6_1_I-1-1/DEU_Guetersloh-6_1_I-1-1.net.xml"/>
    </output>

    <processing>
        <geometry.remove.keep-edges.explicit value="true"/>
        <geometry.avoid-overlap value="true"/>
        <offset.disable-normalization value="true"/>
    </processing>

    <junctions>
        <no-turnarounds value="true"/>
        <junctions.internal-link-detail value="20"/>
    </junctions>

    <report>
        <aggregate-warnings value="5"/>
    </report>

    <random_number>
        <seed value="1234"/>
    </random_number>

</configuration>
--><net xmlns:xsi="http://www.w3.org/2001/XMLSchema-instance" version="1.6" junctionCornerDetail="5" junctionLinkDetail="20" limitTurnSpeed="5.50" xsi:noNamespaceSchemaLocation="http://sumo.dlr.de/xsd/net_file.xsd">

    <location netOffset="0.00,0.00" convBoundary="289.09,357.24,502.93,587.00" origBoundary="289.09,357.24,502.93,587.00" projParameter="!"/>

    <type id="highway.bridleway" priority="1" speed="2.78" allow="pedestrian" oneway="1" width="2.00"/>
    <type id="highway.bus_guideway" priority="1" speed="27.78" allow="bus" oneway="1"/>
    <type id="highway.cycleway" priority="1" speed="8.33" allow="bicycle" oneway="0" width="1.00"/>
    <type id="highway.footway" priority="1" speed="2.78" allow="pedestrian" oneway="1" width="2.00"/>
    <type id="highway.ford" priority="1" speed="2.78" allow="army" oneway="0"/>
    <type id="highway.living_street" priority="2" speed="2.78" disallow="tram rail_urban rail rail_electric rail_fast ship" oneway="0"/>
    <type id="highway.motorway" priority="14" speed="39.44" allow="private emergency authority army vip passenger hov taxi bus coach delivery truck trailer motorcycle evehicle custom1 custom2" oneway="1"/>
    <type id="highway.motorway_link" priority="9" speed="22.22" allow="private emergency authority army vip passenger hov taxi bus coach delivery truck trailer motorcycle evehicle custom1 custom2" oneway="1"/>
    <type id="highway.path" priority="1" speed="2.78" allow="pedestrian bicycle" oneway="0" width="2.00"/>
    <type id="highway.pedestrian" priority="1" speed="2.78" allow="pedestrian" oneway="1" width="2.00"/>
    <type id="highway.primary" priority="12" speed="27.78" disallow="pedestrian tram rail_urban rail rail_electric rail_fast ship" oneway="0"/>
    <type id="highway.primary_link" priority="7" speed="22.22" disallow="pedestrian tram rail_urban rail rail_electric rail_fast ship" oneway="0"/>
    <type id="highway.raceway" priority="15" speed="83.33" allow="vip" oneway="0"/>
    <type id="highway.residential" priority="3" speed="13.89" disallow="pedestrian tram rail_urban rail rail_electric rail_fast ship" oneway="0"/>
    <type id="highway.secondary" priority="11" speed="27.78" disallow="pedestrian tram rail_urban rail rail_electric rail_fast ship" oneway="0"/>
    <type id="highway.secondary_link" priority="6" speed="22.22" disallow="pedestrian tram rail_urban rail rail_electric rail_fast ship" oneway="0"/>
    <type id="highway.service" priority="1" speed="5.56" allow="pedestrian delivery bicycle" oneway="0"/>
    <type id="highway.stairs" priority="1" speed="1.39" allow="pedestrian" oneway="1" width="2.00"/>
    <type id="highway.step" priority="1" speed="1.39" allow="pedestrian" oneway="1" width="2.00"/>
    <type id="highway.steps" priority="1" speed="1.39" allow="pedestrian" oneway="1" width="2.00"/>
    <type id="highway.tertiary" priority="10" speed="22.22" disallow="pedestrian tram rail_urban rail rail_electric rail_fast ship" oneway="0"/>
    <type id="highway.tertiary_link" priority="5" speed="22.22" disallow="pedestrian tram rail_urban rail rail_electric rail_fast ship" oneway="0"/>
    <type id="highway.track" priority="1" speed="5.56" allow="pedestrian motorcycle moped bicycle" oneway="0"/>
    <type id="highway.trunk" priority="13" speed="27.78" disallow="pedestrian bicycle tram rail_urban rail rail_electric rail_fast ship" oneway="0"/>
    <type id="highway.trunk_link" priority="8" speed="22.22" disallow="pedestrian bicycle tram rail_urban rail rail_electric rail_fast ship" oneway="0"/>
    <type id="highway.unclassified" priority="4" speed="13.89" disallow="pedestrian tram rail_urban rail rail_electric rail_fast ship" oneway="0"/>
    <type id="highway.unsurfaced" priority="1" speed="8.33" disallow="tram rail_urban rail rail_electric rail_fast ship" oneway="0"/>
    <type id="railway.highspeed" priority="21" speed="69.44" allow="rail_fast" oneway="1"/>
    <type id="railway.light_rail" priority="19" speed="27.78" allow="rail_urban" oneway="1"/>
    <type id="railway.preserved" priority="16" speed="27.78" allow="rail" oneway="1"/>
    <type id="railway.rail" priority="20" speed="44.44" allow="rail" oneway="1"/>
    <type id="railway.subway" priority="18" speed="27.78" allow="rail_urban" oneway="1"/>
    <type id="railway.tram" priority="17" speed="13.89" allow="tram" oneway="1"/>

    <edge id=":16_0" function="internal">
        <lane id=":16_0_0" index="0" disallow="pedestrian tram rail_urban rail rail_electric rail_fast ship" speed="36.11" length="0.30" width="3.50" shape="315.64,490.38 315.37,490.52"/>
    </edge>
    <edge id=":20_0" function="internal">
        <lane id=":20_0_0" index="0" disallow="pedestrian tram rail_urban rail rail_electric rail_fast ship" speed="36.11" length="3.00" width="3.50" shape="312.62,487.97 315.31,486.65"/>
    </edge>
    <edge id=":31_0" function="internal">
        <lane id=":31_0_0" index="0" disallow="pedestrian tram rail_urban rail rail_electric rail_fast ship" speed="10.96" length="29.84" width="3.50" shape="409.41,466.19 408.99,465.07 408.02,462.89 406.87,460.87 405.50,459.00 404.76,458.20 403.94,457.45 403.07,456.78 402.15,456.20 401.18,455.73 400.17,455.35 399.11,455.08 398.03,454.91 396.92,454.84 395.82,454.85 393.51,455.13 391.24,455.68 389.01,456.44 385.67,457.92"/>
    </edge>
    <edge id=":31_1" function="internal">
        <lane id=":31_1_0" index="0" disallow="pedestrian tram rail_urban rail rail_electric rail_fast ship" speed="14.06" length="40.57" width="3.50" shape="409.41,466.19 408.22,462.41 407.37,458.56 406.97,455.21 406.92,452.39 407.17,449.58 407.76,446.83 408.69,444.17 409.96,441.66 411.55,439.34 413.41,437.22 415.49,435.32 418.20,433.30 421.09,431.56"/>
    </edge>
    <edge id=":31_2" function="internal">
        <lane id=":31_2_0" index="0" disallow="pedestrian tram rail_urban rail rail_electric rail_fast ship" speed="12.72" length="33.01" width="3.50" shape="424.47,437.69 421.05,439.77 418.34,441.84 416.28,443.80 414.47,445.99 413.26,447.92 412.29,449.98 411.61,452.14 411.21,454.38 411.09,456.65 411.30,459.49 411.86,462.28 412.70,465.00"/>
    </edge>
    <edge id=":31_3" function="internal">
        <lane id=":31_3_0" index="0" disallow="pedestrian tram rail_urban rail rail_electric rail_fast ship" speed="36.11" length="43.83" width="3.50" shape="422.77,434.63 417.12,437.93 409.95,442.61 397.46,451.10 391.46,454.80 386.15,457.68 385.67,457.92"/>
    </edge>
    <edge id=":31_4" function="internal">
        <lane id=":31_4_0" index="0" disallow="pedestrian tram rail_urban rail rail_electric rail_fast ship" speed="8.08" length="16.64" width="3.50" shape="405.23,434.40 406.82,434.92 408.67,435.18 410.54,435.17 413.01,434.79 416.00,433.90 418.87,432.69 421.09,431.56"/>
    </edge>
    <edge id=":31_5" function="internal">
        <lane id=":31_5_0" index="0" disallow="pedestrian tram rail_urban rail rail_electric rail_fast ship" speed="36.11" length="31.54" width="3.50" shape="401.39,435.56 404.09,442.77 411.30,461.18 412.70,465.00"/>
    </edge>
    <edge id=":31_6" function="internal">
        <lane id=":31_6_0" index="0" disallow="pedestrian tram rail_urban rail rail_electric rail_fast ship" speed="11.70" length="27.41" width="3.50" shape="399.50,436.13 399.42,438.98 399.03,441.74 398.31,444.43 397.25,447.01 395.86,449.43 394.16,451.63 392.19,453.61 390.00,455.34 387.18,457.13 385.67,457.92"/>
    </edge>
    <edge id=":31_7" function="internal">
        <lane id=":31_7_0" index="0" disallow="pedestrian tram rail_urban rail rail_electric rail_fast ship" speed="36.11" length="43.46" width="3.50" shape="382.56,451.65 401.49,442.02 419.77,432.28 421.09,431.56"/>
    </edge>
    <edge id=":31_8" function="internal">
        <lane id=":31_8_0" index="0" disallow="pedestrian tram rail_urban rail rail_electric rail_fast ship" speed="11.98" length="35.87" width="3.50" shape="384.11,454.78 387.92,453.10 390.53,452.22 393.21,451.58 395.95,451.26 397.33,451.25 398.70,451.35 400.06,451.57 401.39,451.92 402.68,452.41 403.92,453.02 405.08,453.76 406.17,454.60 407.18,455.54 408.11,456.56 409.74,458.78 411.09,461.19 412.21,463.70 412.70,465.00"/>
    </edge>
    <edge id=":32_0" function="internal">
        <lane id=":32_0_0" index="0" disallow="pedestrian tram rail_urban rail rail_electric rail_fast ship" speed="36.11" length="38.48" width="3.50" shape="457.95,547.88 453.05,542.44 447.80,536.01 442.20,528.54 435.66,519.18 434.49,517.43"/>
    </edge>
    <edge id=":32_1" function="internal">
        <lane id=":32_1_0" index="0" disallow="pedestrian tram rail_urban rail rail_electric rail_fast ship" speed="36.11" length="37.78" width="3.50" shape="437.41,515.50 438.55,517.20 445.01,526.45 450.53,533.81 455.68,540.14 460.43,545.40"/>
    </edge>
    <edge id=":32_2" function="internal">
        <lane id=":32_2_0" index="0" disallow="pedestrian tram rail_urban rail rail_electric rail_fast ship" speed="12.41" length="33.92" width="3.50" shape="437.41,515.50 439.43,518.87 440.56,521.22 441.46,523.67 442.08,526.20 442.35,528.79 442.35,530.09 442.24,531.39 442.02,532.68 441.69,533.94 441.27,535.18 440.13,537.52 438.68,539.69 436.98,541.66 435.09,543.46 433.06,545.10"/>
    </edge>
    <edge id=":32_3" function="internal">
        <lane id=":32_3_0" index="0" disallow="pedestrian tram rail_urban rail rail_electric rail_fast ship" speed="11.42" length="28.56" width="3.50" shape="430.95,542.30 432.73,540.88 434.35,539.33 435.78,537.66 436.99,535.86 437.92,533.90 438.25,532.93 438.51,531.91 438.69,530.87 438.77,529.81 438.78,528.78 438.54,526.61 438.01,524.49 437.24,522.41 436.27,520.39 434.49,517.43"/>
    </edge>
    <edge id=":33_0" function="internal">
        <lane id=":33_0_0" index="0" disallow="pedestrian tram rail_urban rail rail_electric rail_fast ship" speed="36.11" length="8.00" width="3.50" shape="346.78,469.45 349.56,467.97 349.67,467.91 349.78,467.86 353.91,465.82"/>
        <lane id=":33_0_1" index="1" disallow="pedestrian tram rail_urban rail rail_electric rail_fast ship" speed="36.11" length="8.01" width="3.50" shape="346.78,469.45 349.56,467.97 349.67,467.91 349.78,467.86 352.62,466.61 354.05,466.11"/>
    </edge>
    <edge id=":34_0" function="internal">
        <lane id=":34_0_0" index="0" disallow="pedestrian tram rail_urban rail rail_electric rail_fast ship" speed="36.11" length="2.98" width="3.50" shape="353.23,470.16 351.29,471.01 351.20,471.06 350.53,471.42"/>
    </edge>
    <edge id=":35_0" function="internal">
        <lane id=":35_0_0" index="0" disallow="pedestrian tram rail_urban rail rail_electric rail_fast ship" speed="36.11" length="3.03" width="3.50" shape="461.18,417.57 458.55,419.07"/>
    </edge>
    <edge id=":35_1" function="internal">
        <lane id=":35_1_0" index="0" disallow="pedestrian tram rail_urban rail rail_electric rail_fast ship" speed="36.11" length="3.02" width="3.50" shape="459.51,414.55 456.86,416.00"/>
    </edge>

    <edge id="60449" from="28" to="32" priority="3" type="highway.residential" spreadType="center" length="70.01" shape="374.88,584.20 441.35,534.18">
        <lane id="60449_0" index="0" disallow="pedestrian tram rail_urban rail rail_electric rail_fast ship" speed="36.11" length="70.01" width="3.50" customShape="1" shape="374.88,584.20 430.96,542.29"/>
    </edge>
    <edge id="60450" from="32" to="24" priority="3" type="highway.residential" spreadType="center" length="70.00" shape="443.46,536.97 376.98,587.00">
        <lane id="60450_0" index="0" disallow="pedestrian tram rail_urban rail rail_electric rail_fast ship" speed="36.11" length="70.00" width="3.50" customShape="1" shape="433.06,545.10 376.98,587.00"/>
    </edge>
    <edge id="60461" from="34" to="16" priority="3" type="highway.residential" spreadType="center" length="39.68">
        <lane id="60461_0" index="0" disallow="pedestrian tram rail_urban rail rail_electric rail_fast ship" speed="36.11" length="39.68" width="3.50" customShape="1" shape="351.29,472.96 322.39,487.09 315.64,490.38"/>
    </edge>
    <edge id="60462" from="20" to="33" priority="3" type="highway.residential" spreadType="center" length="35.82">
        <lane id="60462_0" index="0" disallow="pedestrian tram rail_urban rail rail_electric rail_fast ship" speed="36.11" length="35.82" width="3.50" customShape="1" shape="315.31,486.65 320.85,483.94 347.49,470.92"/>
    </edge>
    <edge id="60518" from="32" to="31" priority="3" type="highway.residential" spreadType="center" length="57.33" shape="440.78,536.31 403.03,448.21">
        <lane id="60518_0" index="0" disallow="pedestrian tram rail_urban rail rail_electric rail_fast ship" speed="36.11" length="57.33" width="3.50" customShape="1" shape="434.49,517.43 433.11,515.33 424.88,502.52 421.58,496.80 418.87,491.35 416.50,485.74 409.41,466.17"/>
    </edge>
    <edge id="60519" from="31" to="32" priority="3" type="highway.residential" spreadType="center" length="56.50" shape="406.25,446.83 444.00,534.94">
        <lane id="60519_0" index="0" disallow="pedestrian tram rail_urban rail rail_electric rail_fast ship" speed="36.11" length="56.50" width="3.50" customShape="1" shape="412.70,465.00 419.72,484.37 422.03,489.85 424.67,495.16 427.90,500.75 436.04,513.42 437.42,515.51"/>
    </edge>
    <edge id="60521" from="27" to="32" priority="3" type="highway.residential" spreadType="center" length="54.85" shape="501.42,580.79 441.31,536.98">
        <lane id="60521_0" index="0" disallow="pedestrian tram rail_urban rail rail_electric rail_fast ship" speed="36.11" length="54.85" width="3.50" customShape="1" shape="501.42,580.79 499.13,579.69 494.61,577.26 488.93,573.78 482.60,569.40 476.87,565.08 470.61,559.78 463.00,552.90 457.91,547.84"/>
    </edge>
    <edge id="60522" from="32" to="22" priority="3" type="highway.residential" spreadType="center" length="53.60" shape="443.37,534.16 502.93,577.64">
        <lane id="60522_0" index="0" disallow="pedestrian tram rail_urban rail rail_electric rail_fast ship" speed="36.11" length="53.60" width="3.50" customShape="1" shape="460.43,545.40 465.41,550.37 472.87,557.11 479.01,562.30 484.60,566.53 490.78,570.80 496.31,574.20 500.69,576.56 502.93,577.64"/>
    </edge>
    <edge id="60821" from="31" to="10" priority="3" type="highway.residential" spreadType="center" length="40.35" shape="403.66,446.07 456.50,412.21">
        <lane id="60821_0" index="0" disallow="pedestrian tram rail_urban rail rail_electric rail_fast ship" speed="36.11" length="40.35" width="3.50" customShape="1" shape="421.09,431.56 438.80,421.88 456.50,412.21"/>
    </edge>
    <edge id="60823" from="35" to="31" priority="3" type="highway.residential" spreadType="center" length="38.85" shape="459.02,416.82 406.36,450.56">
        <lane id="60823_0" index="0" disallow="pedestrian tram rail_urban rail rail_electric rail_fast ship" speed="36.11" length="38.86" width="3.50" acceleration="1" customShape="1" shape="458.55,419.07 442.16,428.03 424.45,437.70"/>
        <lane id="60823_1" index="1" disallow="pedestrian tram rail_urban rail rail_electric rail_fast ship" speed="36.11" length="38.85" width="3.50" customShape="1" shape="456.86,416.00 440.48,424.95 422.77,434.63"/>
    </edge>
    <edge id="60918" from="31" to="34" priority="3" type="highway.residential" spreadType="center" length="34.49" shape="405.42,449.09 353.00,473.05">
        <lane id="60918_0" index="0" disallow="pedestrian tram rail_urban rail rail_electric rail_fast ship" speed="36.11" length="34.49" width="3.50" customShape="1" shape="385.67,457.92 381.21,460.14 354.79,473.28"/>
    </edge>
    <edge id="60920" from="33" to="31" priority="3" type="highway.residential" spreadType="center" length="31.98" shape="351.06,469.12 403.33,444.27">
        <lane id="60920_0" index="0" disallow="pedestrian tram rail_urban rail rail_electric rail_fast ship" speed="36.11" length="32.00" width="3.50" customShape="1" shape="353.94,465.89 378.09,453.87 382.59,451.64"/>
        <lane id="60920_1" index="1" disallow="pedestrian tram rail_urban rail rail_electric rail_fast ship" speed="36.11" length="31.98" width="3.50" customShape="1" shape="355.49,469.02 379.65,457.00 384.13,454.78"/>
    </edge>
    <edge id="61041" from="14" to="31" priority="3" type="highway.residential" spreadType="center" length="82.07">
        <lane id="61041_0" index="0" disallow="pedestrian tram rail_urban rail rail_electric rail_fast ship" speed="36.11" length="82.07" width="3.50" customShape="1" shape="376.87,357.24 377.63,359.55 385.33,384.09 400.99,435.68"/>
    </edge>
    <edge id="61874" from="36" to="35" priority="3" type="highway.residential" spreadType="center" length="26.17">
        <lane id="61874_0" index="0" disallow="pedestrian tram rail_urban rail rail_electric rail_fast ship" speed="36.11" length="26.17" width="3.50" customShape="1" shape="481.59,401.25 478.25,403.64 473.94,407.28 467.42,413.07 463.77,415.90 461.18,417.57"/>
    </edge>
    <edge id="61875" from="36" to="35" priority="3" type="highway.residential" spreadType="center" length="25.78">
        <lane id="61875_0" index="0" disallow="pedestrian tram rail_urban rail rail_electric rail_fast ship" speed="36.11" length="25.78" width="3.50" customShape="1" shape="481.59,401.25 471.75,407.45 461.72,413.32 459.51,414.55"/>
    </edge>
    <edge id="61971" from="16" to="18" priority="3" type="highway.residential" spreadType="center" length="27.56">
        <lane id="61971_0" index="0" disallow="pedestrian tram rail_urban rail rail_electric rail_fast ship" speed="36.11" length="27.56" width="3.50" customShape="1" shape="315.37,490.52 292.59,501.81 290.69,502.78"/>
    </edge>
    <edge id="62016" from="19" to="20" priority="3" type="highway.residential" spreadType="center" length="26.28">
        <lane id="62016_0" index="0" disallow="pedestrian tram rail_urban rail rail_electric rail_fast ship" speed="36.11" length="26.28" width="3.50" customShape="1" shape="289.09,499.67 291.00,498.69 312.62,487.97"/>
    </edge>

    <junction id="10" type="dead_end" x="456.50" y="412.21" incLanes="60821_0" intLanes="" shape="455.66,410.67 457.34,413.75" rightOfWay="edgePriority"/>
    <junction id="14" type="dead_end" x="376.87" y="357.24" incLanes="" intLanes="" shape="375.21,357.79 378.53,356.69" rightOfWay="edgePriority"/>
    <junction id="16" type="priority" x="315.50" y="490.45" incLanes="60461_0" intLanes=":16_0_0" shape="316.41,491.96 314.87,488.81 314.59,488.95 316.15,492.08" rightOfWay="edgePriority">
        <request index="0" response="0" foes="0" cont="0"/>
    </junction>
    <junction id="18" type="dead_end" x="290.69" y="502.78" incLanes="61971_0" intLanes="" shape="291.49,504.34 289.89,501.22" rightOfWay="edgePriority"/>
    <junction id="19" type="dead_end" x="289.09" y="499.67" incLanes="" intLanes="" shape="289.89,501.23 288.29,498.11" rightOfWay="edgePriority"/>
    <junction id="20" type="priority" x="313.96" y="487.31" incLanes="62016_0" intLanes=":20_0_0" shape="316.08,488.22 314.54,485.08 311.84,486.41 313.40,489.54" rightOfWay="edgePriority">
        <request index="0" response="0" foes="0" cont="0"/>
    </junction>
    <junction id="22" type="dead_end" x="502.93" y="577.64" incLanes="60522_0" intLanes="" shape="503.68,576.06 502.17,579.21" rightOfWay="edgePriority"/>
    <junction id="24" type="dead_end" x="376.98" y="587.00" incLanes="60450_0" intLanes="" shape="378.03,588.40 375.94,585.60" rightOfWay="edgePriority"/>
    <junction id="27" type="dead_end" x="501.42" y="580.79" incLanes="" intLanes="" shape="502.18,579.22 500.66,582.37" rightOfWay="edgePriority"/>
    <junction id="28" type="dead_end" x="374.88" y="584.20" incLanes="" intLanes="" shape="375.93,585.60 373.83,582.80" rightOfWay="edgePriority"/>
    <junction id="31" type="priority" x="404.64" y="447.52" incLanes="60518_0 60823_0 60823_1 61041_0 60920_0 60920_1" intLanes=":31_0_0 :31_1_0 :31_2_0 :31_3_0 :31_4_0 :31_5_0 :31_6_0 :31_7_0 :31_8_0" shape="407.77,466.79 414.35,464.41 413.04,459.26 412.99,454.49 414.18,450.10 416.63,446.10 420.33,442.48 425.29,439.24 420.25,430.02 415.20,432.66 411.00,434.59 407.64,435.80 405.14,436.30 403.48,436.09 402.67,435.17 399.32,436.19 397.98,439.73 395.62,441.91 392.13,444.36 387.52,447.09 381.78,450.08 386.45,459.48 391.44,457.50 395.85,456.80 399.69,457.38 402.96,459.23 405.65,462.37">
        <request index="0" response="000001000" foes="001001000" cont="0"/>
        <request index="1" response="110111000" foes="110111000" cont="0"/>
        <request index="2" response="000000000" foes="100100000" cont="0"/>
        <request index="3" response="000000000" foes="101100011" cont="0"/>
        <request index="4" response="010000000" foes="010000010" cont="0"/>
        <request index="5" response="110001100" foes="110001110" cont="0"/>
        <request index="6" response="110001001" foes="110001001" cont="0"/>
        <request index="7" response="000000000" foes="001110010" cont="0"/>
        <request index="8" response="000001100" foes="001101110" cont="0"/>
    </junction>
    <junction id="32" type="priority" x="442.38" y="535.60" incLanes="60521_0 60519_0 60449_0" intLanes=":32_0_0 :32_1_0 :32_2_0 :32_3_0" shape="456.72,549.12 461.66,544.16 456.09,538.47 452.16,534.08 449.16,530.25 446.42,526.21 443.22,521.22 438.87,514.53 433.03,518.39 435.42,522.77 436.65,526.89 436.72,530.77 435.61,534.39 433.35,537.77 429.91,540.89 434.10,546.50 437.90,544.20 441.69,543.00 445.47,542.89 449.23,543.87 452.98,545.95">
        <request index="0" response="0000" foes="1100" cont="0"/>
        <request index="1" response="0000" foes="0000" cont="0"/>
        <request index="2" response="0001" foes="0001" cont="0"/>
        <request index="3" response="0001" foes="0001" cont="0"/>
    </junction>
    <junction id="33" type="priority" x="351.06" y="469.12" incLanes="60462_0" intLanes=":33_0_0 :33_0_1" shape="356.26,470.59 353.16,464.32 350.68,466.03 349.95,466.84 349.21,467.65 348.22,468.48 346.72,469.35 348.26,472.49 351.16,471.60 352.27,471.55 353.37,471.50 354.65,471.24">
        <request index="0" response="00" foes="00" cont="0"/>
        <request index="1" response="00" foes="00" cont="0"/>
    </junction>
    <junction id="34" type="priority" x="353.00" y="473.05" incLanes="60918_0" intLanes=":34_0_0" shape="355.56,474.84 354.01,471.71 350.52,471.39 352.05,474.53">
        <request index="0" response="0" foes="0" cont="0"/>
    </junction>
    <junction id="35" type="priority" x="459.02" y="416.82" incLanes="61874_0 61875_0" intLanes=":35_0_0 :35_1_0" shape="462.03,419.10 458.66,413.01 456.02,414.46 459.39,420.60">
        <request index="0" response="00" foes="00" cont="0"/>
        <request index="1" response="00" foes="00" cont="0"/>
    </junction>
    <junction id="36" type="dead_end" x="481.59" y="401.25" incLanes="" intLanes="" shape="480.56,399.82 482.61,402.67 480.65,399.77 482.52,402.72"/>

    <connection from="60449" to="60518" fromLane="0" toLane="0" contPos="-4.00" shape="430.95,542.30 432.73,540.88 434.35,539.33 435.78,537.66 436.99,535.86 437.92,533.90 438.25,532.93 438.51,531.91 438.69,530.87 438.77,529.81 438.78,528.78 438.54,526.61 438.01,524.49 437.24,522.41 436.27,520.39 434.49,517.43" via=":32_3_0" dir="r" state="m"/>
    <connection from="60461" to="61971" fromLane="0" toLane="0" contPos="-4.00" via=":16_0_0" dir="s" state="M"/>
    <connection from="60462" to="60920" fromLane="0" toLane="0" contPos="-4.00" shape="327.74,480.58 332.37,478.10 344.92,470.44 349.56,467.97 349.67,467.91 349.78,467.86 361.70,461.98 373.62,456.10" via=":33_0_0" dir="s" state="M"/>
    <connection from="60462" to="60920" fromLane="0" toLane="1" contPos="-4.00" shape="327.74,480.58 332.37,478.10 344.92,470.44 349.56,467.97 349.67,467.91 349.78,467.86 352.62,466.61 356.52,465.24 368.45,461.89 372.34,460.50 375.16,459.24" via=":33_0_1" dir="s" state="M"/>
    <connection from="60518" to="60918" fromLane="0" toLane="0" contPos="-4.00" shape="409.41,466.17 408.99,465.07 408.02,462.89 406.87,460.87 405.50,459.00 404.76,458.20 403.94,457.45 403.07,456.78 402.15,456.20 401.18,455.73 400.17,455.35 399.11,455.08 398.03,454.91 396.92,454.84 395.82,454.85 393.51,455.13 391.24,455.68 389.01,456.44 385.67,457.92" via=":31_0_0" dir="r" state="m"/>
    <connection from="60518" to="60821" fromLane="0" toLane="0" contPos="-4.00" shape="409.41,466.17 408.22,462.41 407.37,458.56 406.97,455.21 406.92,452.39 407.17,449.58 407.76,446.83 408.69,444.17 409.96,441.66 411.55,439.34 413.41,437.22 415.49,435.32 418.20,433.30 421.09,431.56" via=":31_1_0" dir="l" state="m"/>
    <connection from="60519" to="60522" fromLane="0" toLane="0" contPos="-4.00" shape="437.42,515.51 438.55,517.20 445.01,526.45 450.53,533.81 455.68,540.14 460.43,545.40" via=":32_1_0" dir="s" state="M"/>
    <connection from="60519" to="60450" fromLane="0" toLane="0" contPos="-4.00" shape="437.42,515.51 439.43,518.87 440.56,521.22 441.46,523.67 442.08,526.20 442.35,528.79 442.35,530.09 442.24,531.39 442.02,532.68 441.69,533.94 441.27,535.18 440.13,537.52 438.68,539.69 436.98,541.66 435.09,543.46 433.06,545.10" via=":32_2_0" dir="l" state="m"/>
    <connection from="60521" to="60518" fromLane="0" toLane="0" contPos="-4.00" shape="457.91,547.84 453.05,542.44 447.80,536.01 442.20,528.54 435.66,519.18 434.49,517.43" via=":32_0_0" dir="s" state="M"/>
    <connection from="60823" to="60519" fromLane="0" toLane="0" contPos="-4.00" shape="424.47,437.69 421.05,439.77 418.34,441.84 416.28,443.80 414.47,445.99 413.26,447.92 412.29,449.98 411.61,452.14 411.21,454.38 411.09,456.65 411.30,459.49 411.86,462.28 412.70,465.00" via=":31_2_0" dir="r" state="M"/>
    <connection from="60823" to="60918" fromLane="1" toLane="0" contPos="-4.00" shape="422.77,434.63 417.12,437.93 409.95,442.61 397.46,451.10 391.46,454.80 386.15,457.68 385.67,457.92" via=":31_3_0" dir="s" state="M"/>
    <connection from="60918" to="60461" fromLane="0" toLane="0" contPos="-4.00" shape="376.70,462.38 373.77,463.69 369.76,465.12 357.81,468.48 354.03,469.81 351.29,471.01 351.20,471.06 351.12,471.10 346.56,473.53 334.00,481.19 329.29,483.71" via=":34_0_0" dir="s" state="M"/>
    <connection from="60920" to="60821" fromLane="0" toLane="0" contPos="-4.00" shape="382.59,451.64 401.49,442.02 419.77,432.28 421.09,431.56" via=":31_7_0" dir="s" state="M"/>
    <connection from="60920" to="60519" fromLane="1" toLane="0" contPos="-4.00" shape="384.13,454.78 387.92,453.10 390.53,452.22 393.21,451.58 395.95,451.26 397.33,451.25 398.70,451.35 400.06,451.57 401.39,451.92 402.68,452.41 403.92,453.02 405.08,453.76 406.17,454.60 407.18,455.54 408.11,456.56 409.74,458.78 411.09,461.19 412.21,463.70 412.70,465.00" via=":31_8_0" dir="l" state="m"/>
    <connection from="61041" to="60821" fromLane="0" toLane="0" contPos="-4.00" shape="397.49,424.13 398.55,427.06 399.68,429.29 400.72,430.84 401.96,432.25 403.41,433.43 405.04,434.33 406.82,434.92 408.67,435.18 410.54,435.17 413.01,434.79 416.00,433.90 418.87,432.69 421.09,431.56" via=":31_4_0" dir="r" state="m"/>
    <connection from="61041" to="60519" fromLane="0" toLane="0" contPos="-4.00" shape="397.49,424.13 400.18,432.32 404.09,442.77 411.30,461.18 412.70,465.00" via=":31_5_0" dir="s" state="m"/>
    <connection from="61041" to="60918" fromLane="0" toLane="0" contPos="-4.00" shape="397.49,424.13 398.61,428.45 399.27,432.30 399.52,435.63 399.42,438.98 399.03,441.74 398.31,444.43 397.25,447.01 395.86,449.43 394.16,451.63 392.19,453.61 390.00,455.34 387.18,457.13 385.67,457.92" via=":31_6_0" dir="l" state="m"/>
    <connection from="61874" to="60823" fromLane="0" toLane="0" contPos="-4.00" via=":35_0_0" dir="s" state="M"/>
    <connection from="61875" to="60823" fromLane="0" toLane="1" contPos="-4.00" via=":35_1_0" dir="s" state="M"/>
    <connection from="62016" to="60462" fromLane="0" toLane="0" contPos="-4.00" via=":20_0_0" dir="s" state="M"/>

    <connection from=":16_0" to="61971" fromLane="0" toLane="0" dir="s" state="M"/>
    <connection from=":20_0" to="60462" fromLane="0" toLane="0" dir="s" state="M"/>
    <connection from=":31_0" to="60918" fromLane="0" toLane="0" dir="r" state="M"/>
    <connection from=":31_1" to="60821" fromLane="0" toLane="0" dir="l" state="M"/>
    <connection from=":31_2" to="60519" fromLane="0" toLane="0" dir="r" state="M"/>
    <connection from=":31_3" to="60918" fromLane="0" toLane="0" dir="s" state="M"/>
    <connection from=":31_4" to="60821" fromLane="0" toLane="0" dir="r" state="M"/>