<!-- generated on 2020-12-18 15:54:35.267853 by ipykernel_launcher.py v1_2_0+5214-53edc58fcd
-->
<nodes>
	<node id="1" type="from" x="-51.70016666666666" y="34.16306666666667"/>
	<node id="2" type="to" x="80.17212500000001" y="-81.30340833333332"/>
	<node id="3" type="to" x="97.54671" y="-94.20187"/>
	<node id="4" type="to" x="90.4468" y="-102.53569999999999"/>
</nodes>
