<routes>
	<vehicle depart="0.1" departLane="0" departPos="19.778679655866927" departSpeed="0.63804936" id="37" type="bicycle">
		<route edges=":46_3 15731"/>
	</vehicle>
	<vehicle depart="0.1" departLane="0" departPos="15.725611642730183" departSpeed="0.31037271" id="39" type="bicycle">
		<route edges=":46_3 15731"/>
	</vehicle>
	<vehicle depart="0.1" departLane="0" departPos="18.073332192456572" departSpeed="0.0059333094" id="31" type="passenger">
		<route edges=":43_1 15676"/>
	</vehicle>
	<vehicle depart="0.1" departLane="0" departPos="21.39435543085406" departSpeed="1.5008492" id="32" type="passenger">
		<route edges=":44_4 15700 15677"/>
	</vehicle>
	<vehicle depart="0.1" departLane="0" departPos="21.67831194855689" departSpeed="2.8220624" id="312" type="passenger">
		<route edges=":46_5 15724"/>
	</vehicle>
	<vehicle depart="0.1" departLane="0" departPos="19.224954911512825" departSpeed="3.946981" id="318" type="passenger">
		<route edges=":43_3 15631"/>
	</vehicle>
	<vehicle depart="0.1" departLane="0" departPos="2.5" departSpeed="1.1695914" id="321" type="passenger">
		<route edges=":43_3 15631"/>
	</vehicle>
	<vehicle depart="0.1" departLane="0" departPos="69.17430470182255" departSpeed="0.0" id="329" type="passenger">
		<route edges="15632 15698"/>
	</vehicle>
	<vehicle depart="0.1" departLane="0" departPos="61.586226152182014" departSpeed="0.098251391" id="334" type="passenger">
		<route edges="15632 15698"/>
	</vehicle>
	<vehicle depart="0.1" departLane="0" departPos="53.930901077437625" departSpeed="0.15416195" id="338" type="passenger">
		<route edges="15632 15698"/>
	</vehicle>
</routes>
