<!-- generated on Tue Feb  9 22:15:26 2021 by Eclipse SUMO netconvert Version 1.8.0
<configuration xmlns:xsi="http://www.w3.org/2001/XMLSchema-instance" xsi:noNamespaceSchemaLocation="http://sumo.dlr.de/xsd/netconvertConfiguration.xsd">

    <input>
        <node-files value="./converted_scenarios/scenario-factory/HRV_Pula-23_1_I-1-1/HRV_Pula-23_1_I-1-1.nod.xml"/>
        <edge-files value="./converted_scenarios/scenario-factory/HRV_Pula-23_1_I-1-1/HRV_Pula-23_1_I-1-1.edg.xml"/>
        <connection-files value="./converted_scenarios/scenario-factory/HRV_Pula-23_1_I-1-1/HRV_Pula-23_1_I-1-1.con.xml"/>
        <tllogic-files value="./converted_scenarios/scenario-factory/HRV_Pula-23_1_I-1-1/HRV_Pula-23_1_I-1-1.tll.xml"/>
        <type-files value="/home/zen/commonroad-interactive-benchmarks/install/commonroad-map-tool/crmapconverter/sumo_map/templates/DEU.typ.xml"/>
    </input>

    <output>
        <output-file value="./converted_scenarios/scenario-factory/HRV_Pula-23_1_I-1-1/HRV_Pula-23_1_I-1-1.net.xml"/>
    </output>

    <processing>
        <geometry.remove.keep-edges.explicit value="true"/>
        <geometry.avoid-overlap value="true"/>
        <offset.disable-normalization value="true"/>
    </processing>

    <junctions>
        <no-turnarounds value="true"/>
        <junctions.internal-link-detail value="20"/>
    </junctions>

    <report>
        <aggregate-warnings value="5"/>
    </report>

    <random_number>
        <seed value="1234"/>
    </random_number>

</configuration>
--><net xmlns:xsi="http://www.w3.org/2001/XMLSchema-instance" version="1.6" junctionCornerDetail="5" junctionLinkDetail="20" limitTurnSpeed="5.50" xsi:noNamespaceSchemaLocation="http://sumo.dlr.de/xsd/net_file.xsd">

    <location netOffset="0.00,0.00" convBoundary="378.77,-556.57,565.99,-256.87" origBoundary="378.77,-556.57,565.99,-256.87" projParameter="!"/>

    <type id="highway.bridleway" priority="1" speed="2.78" allow="pedestrian" oneway="1" width="2.00"/>
    <type id="highway.bus_guideway" priority="1" speed="27.78" allow="bus" oneway="1"/>
    <type id="highway.cycleway" priority="1" speed="8.33" allow="bicycle" oneway="0" width="1.00"/>
    <type id="highway.footway" priority="1" speed="2.78" allow="pedestrian" oneway="1" width="2.00"/>
    <type id="highway.ford" priority="1" speed="2.78" allow="army" oneway="0"/>
    <type id="highway.living_street" priority="2" speed="2.78" disallow="tram rail_urban rail rail_electric rail_fast ship" oneway="0"/>
    <type id="highway.motorway" priority="14" speed="39.44" allow="private emergency authority army vip passenger hov taxi bus coach delivery truck trailer motorcycle evehicle custom1 custom2" oneway="1"/>
    <type id="highway.motorway_link" priority="9" speed="22.22" allow="private emergency authority army vip passenger hov taxi bus coach delivery truck trailer motorcycle evehicle custom1 custom2" oneway="1"/>
    <type id="highway.path" priority="1" speed="2.78" allow="pedestrian bicycle" oneway="0" width="2.00"/>
    <type id="highway.pedestrian" priority="1" speed="2.78" allow="pedestrian" oneway="1" width="2.00"/>
    <type id="highway.primary" priority="12" speed="27.78" disallow="pedestrian tram rail_urban rail rail_electric rail_fast ship" oneway="0"/>
    <type id="highway.primary_link" priority="7" speed="22.22" disallow="pedestrian tram rail_urban rail rail_electric rail_fast ship" oneway="0"/>
    <type id="highway.raceway" priority="15" speed="83.33" allow="vip" oneway="0"/>
    <type id="highway.residential" priority="3" speed="13.89" disallow="pedestrian tram rail_urban rail rail_electric rail_fast ship" oneway="0"/>
    <type id="highway.secondary" priority="11" speed="27.78" disallow="pedestrian tram rail_urban rail rail_electric rail_fast ship" oneway="0"/>
    <type id="highway.secondary_link" priority="6" speed="22.22" disallow="pedestrian tram rail_urban rail rail_electric rail_fast ship" oneway="0"/>
    <type id="highway.service" priority="1" speed="5.56" allow="pedestrian delivery bicycle" oneway="0"/>
    <type id="highway.stairs" priority="1" speed="1.39" allow="pedestrian" oneway="1" width="2.00"/>
    <type id="highway.step" priority="1" speed="1.39" allow="pedestrian" oneway="1" width="2.00"/>
    <type id="highway.steps" priority="1" speed="1.39" allow="pedestrian" oneway="1" width="2.00"/>
    <type id="highway.tertiary" priority="10" speed="22.22" disallow="pedestrian tram rail_urban rail rail_electric rail_fast ship" oneway="0"/>
    <type id="highway.tertiary_link" priority="5" speed="22.22" disallow="pedestrian tram rail_urban rail rail_electric rail_fast ship" oneway="0"/>
    <type id="highway.track" priority="1" speed="5.56" allow="pedestrian motorcycle moped bicycle" oneway="0"/>
    <type id="highway.trunk" priority="13" speed="27.78" disallow="pedestrian bicycle tram rail_urban rail rail_electric rail_fast ship" oneway="0"/>
    <type id="highway.trunk_link" priority="8" speed="22.22" disallow="pedestrian bicycle tram rail_urban rail rail_electric rail_fast ship" oneway="0"/>
    <type id="highway.unclassified" priority="4" speed="13.89" disallow="pedestrian tram rail_urban rail rail_electric rail_fast ship" oneway="0"/>
    <type id="highway.unsurfaced" priority="1" speed="8.33" disallow="tram rail_urban rail rail_electric rail_fast ship" oneway="0"/>
    <type id="railway.highspeed" priority="21" speed="69.44" allow="rail_fast" oneway="1"/>
    <type id="railway.light_rail" priority="19" speed="27.78" allow="rail_urban" oneway="1"/>
    <type id="railway.preserved" priority="16" speed="27.78" allow="rail" oneway="1"/>
    <type id="railway.rail" priority="20" speed="44.44" allow="rail" oneway="1"/>
    <type id="railway.subway" priority="18" speed="27.78" allow="rail_urban" oneway="1"/>
    <type id="railway.tram" priority="17" speed="13.89" allow="tram" oneway="1"/>

    <edge id=":38_0" function="internal">
        <lane id=":38_0_0" index="0" disallow="pedestrian tram rail_urban rail rail_electric rail_fast ship" speed="36.11" length="2.97" width="3.50" shape="398.10,-326.82 397.42,-323.93"/>
    </edge>
    <edge id=":40_0" function="internal">
        <lane id=":40_0_0" index="0" disallow="pedestrian tram rail_urban rail rail_electric rail_fast ship" speed="36.11" length="2.97" width="3.50" shape="394.00,-324.69 394.69,-327.58"/>
    </edge>
    <edge id=":43_0" function="internal">
        <lane id=":43_0_0" index="0" disallow="pedestrian tram rail_urban rail rail_electric rail_fast ship" speed="9.64" length="21.37" width="3.50" shape="446.87,-438.53 447.02,-439.66 446.93,-440.72 446.60,-441.73 446.06,-442.65 445.37,-443.46 444.58,-444.17 443.71,-444.79 442.80,-445.34 440.88,-446.27 438.89,-447.03 435.83,-447.96 432.72,-448.70 430.64,-449.12"/>
    </edge>
    <edge id=":43_1" function="internal">
        <lane id=":43_1_0" index="0" disallow="pedestrian tram rail_urban rail rail_electric rail_fast ship" speed="21.28" length="23.16" width="3.50" shape="446.86,-438.53 447.53,-440.71 448.88,-443.71 450.56,-446.55 453.12,-450.12 456.66,-454.32 459.68,-457.52"/>
    </edge>
    <edge id=":43_2" function="internal">
        <lane id=":43_2_0" index="0" disallow="pedestrian tram rail_urban rail rail_electric rail_fast ship" speed="19.43" length="21.17" width="3.50" shape="462.18,-455.07 459.34,-452.06 456.00,-448.13 453.61,-444.83 452.07,-442.27 450.84,-439.60 450.29,-437.81"/>
    </edge>
    <edge id=":43_3" function="internal">
        <lane id=":43_3_0" index="0" disallow="pedestrian tram rail_urban rail rail_electric rail_fast ship" speed="15.97" length="33.42" width="3.50" shape="462.18,-455.07 461.30,-454.23 459.47,-452.74 457.46,-451.46 455.35,-450.40 453.14,-449.55 449.78,-448.67 446.36,-448.16 442.94,-447.96 439.53,-448.02 435.05,-448.43 430.64,-449.12"/>
    </edge>
    <edge id=":43_4" function="internal">
        <lane id=":43_4_0" index="0" disallow="pedestrian tram rail_urban rail rail_electric rail_fast ship" speed="15.11" length="29.98" width="3.50" shape="431.29,-452.56 435.36,-451.91 439.48,-451.53 442.58,-451.45 445.68,-451.60 448.76,-452.03 451.77,-452.79 453.71,-453.50 455.57,-454.41 457.32,-455.51 458.93,-456.80 459.68,-457.52"/>
    </edge>
    <edge id=":43_5" function="internal">
        <lane id=":43_5_0" index="0" disallow="pedestrian tram rail_urban rail rail_electric rail_fast ship" speed="10.85" length="26.89" width="3.50" shape="431.29,-452.56 433.70,-452.07 437.32,-451.17 440.90,-450.00 443.27,-448.98 445.54,-447.71 446.66,-446.91 447.71,-446.00 448.66,-444.94 449.48,-443.72 450.09,-442.35 450.44,-440.86 450.50,-439.33 450.29,-437.81"/>
    </edge>
    <edge id=":44_0" function="internal">
        <lane id=":44_0_0" index="0" disallow="pedestrian tram rail_urban rail rail_electric rail_fast ship" speed="18.74" length="30.66" width="3.50" shape="505.12,-429.51 500.24,-431.45 495.42,-433.09 491.49,-434.15 488.50,-434.77 485.48,-435.17 482.43,-435.29 480.40,-435.18 478.39,-434.87 476.43,-434.33 475.50,-433.97"/>
    </edge>
    <edge id=":44_1" function="internal">
        <lane id=":44_1_0" index="0" disallow="pedestrian tram rail_urban rail rail_electric rail_fast ship" speed="27.88" length="36.78" width="3.50" shape="505.12,-429.51 503.03,-430.51 501.20,-431.64 499.49,-432.96 497.16,-435.20 495.10,-437.69 492.67,-441.24 486.65,-451.45 484.27,-455.04 482.30,-457.60"/>
    </edge>
    <edge id=":44_2" function="internal">
        <lane id=":44_2_0" index="0" disallow="pedestrian tram rail_urban rail rail_electric rail_fast ship" speed="27.25" length="34.98" width="3.50" shape="484.99,-459.83 486.99,-457.23 489.37,-453.61 495.18,-443.59 497.45,-440.21 499.33,-437.90 501.45,-435.83 502.97,-434.65 504.60,-433.63 506.33,-432.78"/>
    </edge>
    <edge id=":44_3" function="internal">
        <lane id=":44_3_0" index="0" disallow="pedestrian tram rail_urban rail rail_electric rail_fast ship" speed="10.99" length="33.94" width="3.50" shape="484.99,-459.83 486.63,-457.67 488.06,-455.32 488.67,-454.00 489.16,-452.63 489.51,-451.20 489.70,-449.71 489.68,-448.19 489.44,-446.68 489.00,-445.22 488.38,-443.85 487.60,-442.59 486.72,-441.44 485.73,-440.37 483.65,-438.57 481.41,-437.02 479.07,-435.67 475.50,-433.97"/>
    </edge>
    <edge id=":44_4" function="internal">
        <lane id=":44_4_0" index="0" disallow="pedestrian tram rail_urban rail rail_electric rail_fast ship" speed="9.90" length="27.22" width="3.50" shape="474.12,-437.18 477.17,-438.64 479.15,-439.76 481.03,-441.03 482.76,-442.50 483.55,-443.32 484.26,-444.20 484.88,-445.15 485.38,-446.17 485.75,-447.24 485.96,-448.36 486.01,-449.49 485.91,-450.62 485.66,-451.73 485.29,-452.80 484.83,-453.84 483.67,-455.79 482.30,-457.60"/>
    </edge>
    <edge id=":44_5" function="internal">
        <lane id=":44_5_0" index="0" disallow="pedestrian tram rail_urban rail rail_electric rail_fast ship" speed="19.58" length="33.32" width="3.50" shape="474.12,-437.18 475.22,-437.61 477.44,-438.24 479.72,-438.62 482.02,-438.77 485.37,-438.68 488.69,-438.27 491.94,-437.64 496.16,-436.51 501.31,-434.79 506.33,-432.78"/>
    </edge>
    <edge id=":45_0" function="internal">
        <lane id=":45_0_0" index="0" disallow="pedestrian tram rail_urban rail rail_electric rail_fast ship" speed="10.12" length="29.83" width="3.50" shape="432.90,-345.01 431.87,-347.14 430.66,-349.20 429.23,-351.11 428.41,-351.98 427.51,-352.77 426.53,-353.45 425.48,-354.01 424.36,-354.42 423.19,-354.66 422.00,-354.73 420.81,-354.65 419.64,-354.41 418.50,-354.06 417.39,-353.61 415.29,-352.48 413.31,-351.13 411.46,-349.63 409.69,-348.02"/>
    </edge>
    <edge id=":45_1" function="internal">
        <lane id=":45_1_0" index="0" disallow="pedestrian tram rail_urban rail rail_electric rail_fast ship" speed="16.32" length="33.96" width="3.50" shape="432.90,-345.01 430.84,-350.06 429.41,-354.24 428.25,-358.51 427.62,-361.81 427.26,-365.19 427.27,-368.61 427.54,-370.94 428.08,-373.24 428.92,-375.48 430.07,-377.57"/>
    </edge>
    <edge id=":45_2" function="internal">
        <lane id=":45_2_0" index="0" disallow="pedestrian tram rail_urban rail rail_electric rail_fast ship" speed="15.48" length="30.51" width="3.50" shape="433.01,-375.66 432.03,-373.88 431.34,-371.97 430.91,-369.98 430.72,-367.95 430.77,-364.90 431.14,-361.87 431.75,-358.87 432.84,-354.95 434.18,-351.11 436.10,-346.41"/>
    </edge>
    <edge id=":45_3" function="internal">
        <lane id=":45_3_0" index="0" disallow="pedestrian tram rail_urban rail rail_electric rail_fast ship" speed="36.11" length="36.23" width="3.50" shape="433.01,-375.66 428.73,-369.55 424.15,-363.66 419.31,-357.99 414.22,-352.53 409.69,-348.02"/>
    </edge>
    <edge id=":45_4" function="internal">
        <lane id=":45_4_0" index="0" disallow="pedestrian tram rail_urban rail rail_electric rail_fast ship" speed="36.11" length="35.43" width="3.50" shape="407.27,-350.54 411.70,-354.96 416.69,-360.31 421.43,-365.86 425.91,-371.63 430.07,-377.57"/>
    </edge>
    <edge id=":45_5" function="internal">
        <lane id=":45_5_0" index="0" disallow="pedestrian tram rail_urban rail rail_electric rail_fast ship" speed="11.21" length="36.85" width="3.50" shape="407.27,-350.54 409.32,-352.42 411.51,-354.18 413.86,-355.78 416.40,-357.12 417.81,-357.68 419.25,-358.11 420.77,-358.39 422.33,-358.49 423.91,-358.37 425.46,-358.02 426.94,-357.46 428.32,-356.71 429.57,-355.81 430.70,-354.80 431.73,-353.70 433.45,-351.39 434.89,-348.93 436.10,-346.41"/>
    </edge>
    <edge id=":46_0" function="internal">
        <lane id=":46_0_0" index="0" disallow="pedestrian tram rail_urban rail rail_electric rail_fast ship" speed="14.31" length="32.00" width="3.50" shape="468.33,-431.00 467.29,-430.58 463.39,-428.81 460.62,-427.29 457.98,-425.58 455.53,-423.66 453.33,-421.49 452.06,-419.93 450.95,-418.26 450.02,-416.48 449.30,-414.62 448.79,-412.69 448.50,-410.71 448.41,-408.64"/>
    </edge>
    <edge id=":46_1" function="internal">
        <lane id=":46_1_0" index="0" disallow="pedestrian tram rail_urban rail rail_electric rail_fast ship" speed="9.66" length="31.02" width="3.49" shape="468.33,-431.00 463.65,-429.30 460.53,-428.37 457.34,-427.66 455.73,-427.42 454.10,-427.30 452.47,-427.33 450.86,-427.58 449.32,-428.13 448.00,-429.06 447.03,-430.37 446.48,-431.90 446.27,-433.51 446.30,-435.14 446.50,-436.76 446.82,-438.33"/>
    </edge>
    <edge id=":46_2" function="internal">
        <lane id=":46_2_0" index="0" disallow="pedestrian tram rail_urban rail rail_electric rail_fast ship" speed="8.35" length="22.87" width="3.50" shape="450.23,-437.58 449.99,-436.35 449.85,-435.17 449.85,-434.08 450.00,-433.12 450.38,-432.28 451.04,-431.66 451.92,-431.26 452.97,-431.04 454.12,-430.97 455.36,-431.02 456.63,-431.16 457.90,-431.38 460.52,-432.02 463.11,-432.81 466.99,-434.23"/>
    </edge>
    <edge id=":46_3" function="internal">
        <lane id=":46_3_0" index="0" disallow="pedestrian tram rail_urban rail rail_electric rail_fast ship" speed="36.11" length="29.04" width="3.50" shape="450.23,-437.58 449.50,-433.48 448.96,-428.34 448.57,-421.11 448.41,-410.76 448.41,-408.64"/>
    </edge>
    <edge id=":46_4" function="internal">
        <lane id=":46_4_0" index="0" disallow="pedestrian tram rail_urban rail rail_electric rail_fast ship" speed="36.11" length="29.76" width="3.49" shape="444.91,-408.68 444.91,-410.79 445.08,-421.34 445.49,-428.75 446.05,-434.08 446.82,-438.33"/>
    </edge>
    <edge id=":46_5" function="internal">
        <lane id=":46_5_0" index="0" disallow="pedestrian tram rail_urban rail rail_electric rail_fast ship" speed="15.17" length="36.09" width="3.50" shape="444.91,-408.68 445.01,-411.00 445.34,-413.30 445.91,-415.56 446.73,-417.74 447.78,-419.82 449.04,-421.77 450.49,-423.59 452.95,-426.07 455.68,-428.25 458.60,-430.17 461.66,-431.85 465.90,-433.79 466.99,-434.23"/>
    </edge>
    <edge id=":47_0" function="internal">
        <lane id=":47_0_0" index="0" disallow="pedestrian tram rail_urban rail rail_electric rail_fast ship" speed="9.77" length="23.39" width="3.50" shape="482.16,-457.76 480.56,-459.45 479.73,-460.14 478.85,-460.76 477.92,-461.27 476.96,-461.67 475.97,-461.94 474.95,-462.08 473.92,-462.09 472.88,-461.97 471.84,-461.73 470.80,-461.38 469.78,-460.93 468.80,-460.42 466.83,-459.15 464.98,-457.71 462.35,-455.25"/>
    </edge>
    <edge id=":47_1" function="internal">
        <lane id=":47_1_0" index="0" disallow="pedestrian tram rail_urban rail rail_electric rail_fast ship" speed="20.18" length="31.71" width="3.50" shape="482.16,-457.76 479.36,-461.37 477.49,-464.19 475.81,-467.14 474.35,-470.20 473.14,-473.37 472.19,-476.63 471.52,-479.96 471.14,-483.33 471.05,-486.72"/>
    </edge>
    <edge id=":47_2" function="internal">
        <lane id=":47_2_0" index="0" disallow="pedestrian tram rail_urban rail rail_electric rail_fast ship" speed="19.31" length="29.23" width="3.50" shape="474.55,-486.70 474.63,-483.56 474.99,-480.47 475.60,-477.43 476.47,-474.44 477.59,-471.53 478.94,-468.71 480.49,-465.98 482.23,-463.37 484.83,-460.02"/>
    </edge>
    <edge id=":47_3" function="internal">
        <lane id=":47_3_0" index="0" disallow="pedestrian tram rail_urban rail rail_electric rail_fast ship" speed="19.59" length="34.60" width="3.50" shape="474.55,-486.70 474.48,-484.45 474.09,-480.05 473.32,-475.69 472.48,-472.44 471.40,-469.27 470.06,-466.19 468.48,-463.22 466.66,-460.40 464.61,-457.74 462.35,-455.25"/>
    </edge>
    <edge id=":47_4" function="internal">
        <lane id=":47_4_0" index="0" disallow="pedestrian tram rail_urban rail rail_electric rail_fast ship" speed="18.68" length="31.93" width="3.50" shape="459.84,-457.68 461.93,-459.99 463.81,-462.44 465.48,-465.03 466.93,-467.76 468.15,-470.59 469.15,-473.52 469.92,-476.51 470.62,-480.56 470.98,-484.66 471.05,-486.72"/>
    </edge>
    <edge id=":47_5" function="internal">
        <lane id=":47_5_0" index="0" disallow="pedestrian tram rail_urban rail rail_electric rail_fast ship" speed="10.93" length="29.35" width="3.50" shape="459.83,-457.68 462.92,-460.55 465.13,-462.26 467.49,-463.75 468.73,-464.37 470.02,-464.91 471.36,-465.32 472.72,-465.60 474.11,-465.72 475.51,-465.67 476.88,-465.44 478.22,-465.04 479.49,-464.48 480.70,-463.78 481.83,-462.97 482.90,-462.06 484.83,-460.02"/>
    </edge>

    <edge id="15604" from="32" to="44" priority="3" type="highway.residential" spreadType="center" length="69.84" shape="564.49,-395.40 487.13,-440.32">
        <lane id="15604_0" index="0" disallow="pedestrian tram rail_urban rail rail_electric rail_fast ship" speed="36.11" length="69.84" width="3.50" customShape="1" shape="564.49,-395.40 558.38,-401.22 551.97,-406.82 545.31,-412.12 538.42,-417.11 532.15,-421.23 529.48,-422.61 526.21,-423.87 522.36,-424.97 512.59,-427.15 508.24,-428.34 505.12,-429.51"/>
    </edge>
    <edge id="15605" from="44" to="21" priority="3" type="highway.residential" spreadType="center" length="69.99" shape="488.88,-443.35 565.99,-398.81">
        <lane id="15605_0" index="0" disallow="pedestrian tram rail_urban rail rail_electric rail_fast ship" speed="36.11" length="69.99" width="3.50" customShape="1" shape="506.33,-432.78 509.48,-431.62 513.75,-430.47 523.60,-428.27 527.59,-427.10 531.02,-425.75 533.87,-424.28 540.29,-420.07 547.29,-415.01 554.06,-409.63 560.57,-403.96 565.99,-398.81"/>
    </edge>
    <edge id="15607" from="36" to="47" priority="3" type="highway.residential" spreadType="center" length="70.00" shape="477.55,-556.54 474.21,-467.26">
        <lane id="15607_0" index="0" disallow="pedestrian tram rail_urban rail rail_electric rail_fast ship" speed="36.11" length="70.00" width="3.50" customShape="1" shape="477.55,-556.54 476.64,-550.53 475.67,-541.60 475.04,-532.13 474.68,-520.64 474.55,-486.69"/>
    </edge>
    <edge id="15608" from="47" to="30" priority="3" type="highway.residential" spreadType="center" length="70.00" shape="470.72,-467.39 474.02,-556.57">
        <lane id="15608_0" index="0" disallow="pedestrian tram rail_urban rail rail_electric rail_fast ship" speed="36.11" length="70.00" width="3.50" customShape="1" shape="471.05,-486.72 471.18,-520.89 471.55,-532.50 472.20,-542.08 473.19,-551.15 474.02,-556.57"/>
    </edge>
    <edge id="15631" from="43" to="19" priority="3" type="highway.residential" spreadType="center" length="70.00" shape="445.89,-446.97 378.77,-491.67">
        <lane id="15631_0" index="0" disallow="pedestrian tram rail_urban rail rail_electric rail_fast ship" speed="36.11" length="70.00" width="3.50" customShape="1" shape="430.64,-449.12 426.70,-449.93 422.33,-451.10 417.59,-452.74 412.96,-454.66 409.36,-456.46 406.35,-458.26 403.49,-460.30 401.19,-462.24 399.07,-464.38 396.86,-467.10 394.63,-470.45 391.19,-476.57 388.99,-480.52 387.12,-483.49 385.32,-485.90 383.30,-488.13 381.03,-490.11 378.77,-491.67"/>
    </edge>
    <edge id="15632" from="31" to="43" priority="3" type="highway.residential" spreadType="center" length="70.07" shape="379.46,-495.31 447.82,-449.88">
        <lane id="15632_0" index="0" disallow="pedestrian tram rail_urban rail rail_electric rail_fast ship" speed="36.11" length="70.07" width="3.50" customShape="1" shape="379.46,-495.31 381.92,-493.75 384.46,-491.76 386.76,-489.51 388.81,-487.04 390.92,-484.01 393.29,-480.01 396.72,-473.83 398.79,-470.50 400.80,-467.79 402.71,-465.67 404.83,-463.74 407.53,-461.69 410.41,-459.89 413.88,-458.09 418.44,-456.17 423.10,-454.52 427.39,-453.37 431.35,-452.54"/>
    </edge>
    <edge id="15646" from="41" to="40" priority="3" type="highway.residential" spreadType="center" length="68.52">
        <lane id="15646_0" index="0" disallow="pedestrian tram rail_urban rail rail_electric rail_fast ship" speed="36.11" length="68.52" width="3.50" customShape="1" shape="380.13,-257.63 380.98,-264.32 382.66,-274.30 385.11,-286.19 391.01,-311.32 394.00,-324.69"/>
    </edge>
    <edge id="15647" from="38" to="39" priority="3" type="highway.residential" spreadType="center" length="68.52">
        <lane id="15647_0" index="0" disallow="pedestrian tram rail_urban rail rail_electric rail_fast ship" speed="36.11" length="68.52" width="3.50" customShape="1" shape="397.42,-323.93 394.45,-310.65 388.58,-285.66 386.14,-273.88 384.47,-264.02 383.56,-256.87"/>
    </edge>
    <edge id="15676" from="43" to="47" priority="3" type="highway.residential" spreadType="center" length="0.25" shape="445.79,-449.85 471.51,-468.82">
        <lane id="15676_0" index="0" disallow="pedestrian tram rail_urban rail rail_electric rail_fast ship" speed="36.11" length="0.25" width="3.50" customShape="1" shape="459.68,-457.52 459.77,-457.61 459.86,-457.70"/>
    </edge>
    <edge id="15677" from="47" to="43" priority="3" type="highway.residential" spreadType="center" length="0.26" shape="473.58,-466.01 447.86,-447.04">
        <lane id="15677_0" index="0" disallow="pedestrian tram rail_urban rail rail_electric rail_fast ship" speed="36.11" length="0.26" width="3.50" customShape="1" shape="462.35,-455.25 462.27,-455.16 462.17,-455.06"/>
    </edge>
    <edge id="15697" from="46" to="43" priority="3" type="highway.residential" spreadType="center" length="0.29" shape="452.66,-425.72 445.17,-447.89">
        <lane id="15697_0" index="0" disallow="pedestrian tram rail_urban rail rail_electric rail_fast ship" speed="36.11" length="0.29" width="3.49" customShape="1" shape="446.82,-438.33 446.85,-438.48 446.88,-438.61"/>
    </edge>
    <edge id="15698" from="43" to="46" priority="3" type="highway.residential" spreadType="center" length="0.28" shape="448.48,-449.01 455.97,-426.84">
        <lane id="15698_0" index="0" disallow="pedestrian tram rail_urban rail rail_electric rail_fast ship" speed="36.11" length="0.28" width="3.50" customShape="1" shape="450.29,-437.81 450.26,-437.68 450.23,-437.54"/>
    </edge>
    <edge id="15700" from="44" to="47" priority="3" type="highway.residential" spreadType="center" length="0.24" shape="486.54,-440.91 470.92,-466.53">
        <lane id="15700_0" index="0" disallow="pedestrian tram rail_urban rail rail_electric rail_fast ship" speed="36.11" length="0.24" width="3.50" customShape="1" shape="482.30,-457.60 482.14,-457.78"/>
    </edge>
    <edge id="15701" from="47" to="44" priority="3" type="highway.residential" spreadType="center" length="0.28" shape="473.90,-468.35 489.53,-442.73">
        <lane id="15701_0" index="0" disallow="pedestrian tram rail_urban rail rail_electric rail_fast ship" speed="36.11" length="0.28" width="3.50" customShape="1" shape="484.83,-460.02 485.01,-459.81"/>
    </edge>
    <edge id="15724" from="46" to="44" priority="3" type="highway.residential" spreadType="center" length="7.76" shape="453.47,-427.96 487.31,-443.41">
        <lane id="15724_0" index="0" disallow="pedestrian tram rail_urban rail rail_electric rail_fast ship" speed="36.11" length="7.76" width="3.50" customShape="1" shape="466.99,-434.23 470.53,-435.70 474.16,-437.20"/>
    </edge>
    <edge id="15725" from="44" to="46" priority="3" type="highway.residential" spreadType="center" length="7.82" shape="488.76,-440.22 454.92,-424.78">
        <lane id="15725_0" index="0" disallow="pedestrian tram rail_urban rail rail_electric rail_fast ship" speed="36.11" length="7.82" width="3.50" customShape="1" shape="475.50,-433.97 471.87,-432.47 468.27,-430.98"/>
    </edge>
    <edge id="15730" from="45" to="46" priority="3" type="highway.residential" spreadType="center" length="35.38" shape="423.23,-357.89 452.68,-427.13">
        <lane id="15730_0" index="0" disallow="pedestrian tram rail_urban rail rail_electric rail_fast ship" speed="36.11" length="35.38" width="3.50" customShape="1" shape="430.07,-377.57 436.36,-387.15 439.94,-391.92 441.66,-394.35 442.87,-396.52 443.58,-398.37 444.30,-401.26 444.77,-404.70 444.91,-408.76"/>
    </edge>
    <edge id="15731" from="46" to="45" priority="3" type="highway.residential" spreadType="center" length="37.29" shape="455.90,-425.76 426.45,-356.52">
        <lane id="15731_0" index="0" disallow="pedestrian tram rail_urban rail rail_electric rail_fast ship" speed="36.11" length="37.29" width="3.50" customShape="1" shape="448.41,-408.64 448.26,-404.45 447.76,-400.73 446.99,-397.57 446.22,-395.45 444.93,-392.98 443.11,-390.32 439.44,-385.45 433.00,-375.65"/>
    </edge>
    <edge id="15733" from="40" to="45" priority="3" type="highway.residential" spreadType="center" length="26.60" shape="394.33,-326.14 423.59,-358.43">
        <lane id="15733_0" index="0" disallow="pedestrian tram rail_urban rail rail_electric rail_fast ship" speed="36.11" length="26.60" width="3.50" customShape="1" shape="394.69,-327.58 395.40,-330.46 396.82,-334.67 398.12,-337.74 399.64,-340.71 401.39,-343.55 403.35,-346.25 405.52,-348.78 407.08,-350.37 407.17,-350.45 407.29,-350.56"/>
    </edge>
    <edge id="15748" from="45" to="35" priority="3" type="highway.residential" spreadType="center" length="55.27" shape="426.48,-357.81 448.70,-292.77">
        <lane id="15748_0" index="0" disallow="pedestrian tram rail_urban rail rail_electric rail_fast ship" speed="36.11" length="55.27" width="3.50" customShape="1" shape="436.10,-346.41 437.69,-342.62 439.94,-336.35 441.83,-329.98 443.64,-322.51 445.40,-313.47 448.70,-292.77"/>
    </edge>
    <edge id="15749" from="37" to="45" priority="3" type="highway.residential" spreadType="center" length="54.47" shape="445.24,-292.19 423.17,-356.68">
        <lane id="15749_0" index="0" disallow="pedestrian tram rail_urban rail rail_electric rail_fast ship" speed="36.11" length="54.47" width="3.50" customShape="1" shape="445.24,-292.19 441.98,-312.72 440.25,-321.63 438.49,-328.95 436.64,-335.19 434.44,-341.31 432.88,-345.07"/>
    </edge>
    <edge id="15951" from="45" to="38" priority="3" type="highway.residential" spreadType="center" length="24.53" shape="426.17,-356.07 397.75,-325.38">
        <lane id="15951_0" index="0" disallow="pedestrian tram rail_urban rail rail_electric rail_fast ship" speed="36.11" length="24.53" width="3.50" customShape="1" shape="409.70,-348.03 409.60,-347.93 408.08,-346.40 406.08,-344.06 404.28,-341.58 402.67,-338.95 401.27,-336.21 400.07,-333.38 398.75,-329.45 398.10,-326.82"/>
    </edge>

    <junction id="19" type="dead_end" x="378.77" y="-491.67" incLanes="15631_0" intLanes="" shape="377.77,-490.23 379.76,-493.11" rightOfWay="edgePriority"/>
    <junction id="21" type="dead_end" x="565.99" y="-398.81" incLanes="15605_0" intLanes="" shape="567.20,-400.08 564.79,-397.54" rightOfWay="edgePriority"/>
    <junction id="30" type="dead_end" x="474.02" y="-556.57" incLanes="15608_0" intLanes="" shape="472.29,-556.84 475.75,-556.31" rightOfWay="edgePriority"/>
    <junction id="31" type="dead_end" x="379.46" y="-495.31" incLanes="" intLanes="" shape="378.53,-493.83 380.40,-496.79" rightOfWay="edgePriority"/>
    <junction id="32" type="dead_end" x="564.49" y="-395.40" incLanes="" intLanes="" shape="565.70,-396.67 563.29,-394.14" rightOfWay="edgePriority"/>
    <junction id="35" type="dead_end" x="448.70" y="-292.77" incLanes="15748_0" intLanes="" shape="450.42,-293.05 446.97,-292.50" rightOfWay="edgePriority"/>
    <junction id="36" type="dead_end" x="477.55" y="-556.54" incLanes="" intLanes="" shape="475.82,-556.81 479.28,-556.28" rightOfWay="edgePriority"/>
    <junction id="37" type="dead_end" x="445.24" y="-292.19" incLanes="" intLanes="" shape="446.97,-292.47 443.52,-291.92" rightOfWay="edgePriority"/>
    <junction id="38" type="priority" x="397.75" y="-325.38" incLanes="15951_0" intLanes=":38_0_0" shape="399.80,-326.40 396.40,-327.24 395.71,-324.31 399.13,-323.55" rightOfWay="edgePriority">
        <request index="0" response="0" foes="0" cont="0"/>
    </junction>
    <junction id="39" type="dead_end" x="383.56" y="-256.87" incLanes="15647_0" intLanes="" shape="385.30,-256.65 381.83,-257.09" rightOfWay="edgePriority"/>
    <junction id="40" type="priority" x="394.33" y="-326.14" incLanes="15646_0" intLanes=":40_0_0" shape="396.39,-327.16 392.99,-328.00 392.30,-325.07 395.71,-324.31" rightOfWay="edgePriority">