<routes>
	<vehicle depart="0.1" departLane="0" departPos="20.765965281932527" departSpeed="1.8323443" id="310" type="bicycle">
		<route edges="51400 51474"/>
	</vehicle>
	<vehicle depart="0.1" departLane="0" departPos="10.762303278501697" departSpeed="0.26800349" id="334" type="bus">
		<route edges=":40_4 51399"/>
	</vehicle>
	<vehicle depart="0.1" departLane="0" departPos="14.294617480510084" departSpeed="1.0788604" id="311" type="passenger">
		<route edges=":40_0 51478"/>
	</vehicle>
	<vehicle depart="0.1" departLane="0" departPos="2.5" departSpeed="3.7906348" id="312" type="passenger">
		<route edges=":40_2 51474"/>
	</vehicle>
	<vehicle depart="0.1" departLane="0" departPos="8.27939886636422" departSpeed="1.9400046" id="320" type="passenger">
		<route edges=":39_3 51475"/>
	</vehicle>
	<vehicle depart="0.1" departLane="0" departPos="19.895536699011256" departSpeed="2.6922694" id="322" type="passenger">
		<route edges="51400 51474"/>
	</vehicle>
	<vehicle depart="0.1" departLane="0" departPos="29.203010723221517" departSpeed="0.41725109" id="341" type="passenger">
		<route edges="51477 51474"/>
	</vehicle>
	<vehicle depart="0.1" departLane="0" departPos="4.860543010975203" departSpeed="1.8982988" id="34" type="motorcycle">
		<route edges=":41_0 51517"/>
	</vehicle>
	<vehicle depart="0.1" departLane="0" departPos="33.223310342404034" departSpeed="1.2816137" id="338" type="motorcycle">
		<route edges="51477 51474"/>
	</vehicle>
	<vehicle depart="0.1" departLane="0" departPos="21.041786734094156" departSpeed="6.6311116" id="327" type="truck">
		<route edges=":40_5 51474 51471"/>
	</vehicle>
</routes>
