<routes>
	<vehicle depart="0.1" departLane="0" departPos="2.5" departSpeed="4.2822217" id="321" type="passenger">
		<route edges=":128_1 3385"/>
	</vehicle>
	<vehicle depart="0.1" departLane="0" departPos="2.5" departSpeed="1.1729532" id="325" type="passenger">
		<route edges=":128_6 3643"/>
	</vehicle>
	<vehicle depart="0.1" departLane="0" departPos="19.85807448996185" departSpeed="2.7428143" id="335" type="passenger">
		<route edges="3388 3647"/>
	</vehicle>
	<vehicle depart="0.1" departLane="0" departPos="11.759676403134993" departSpeed="1.0972128" id="376" type="passenger">
		<route edges=":128_6 3643"/>
	</vehicle>
	<vehicle depart="0.1" departLane="0" departPos="6.919150759651647" departSpeed="0.38539656" id="377" type="passenger">
		<route edges="3385 3551"/>
	</vehicle>
	<vehicle depart="0.1" departLane="0" departPos="4.558263180213765" departSpeed="0.58566987" id="389" type="passenger">
		<route edges="3388 3647"/>
	</vehicle>
	<vehicle depart="0.1" departLane="0" departPos="10.935580119796105" departSpeed="0.85273171" id="343" type="motorcycle">
		<route edges="3388 3647"/>
	</vehicle>
	<vehicle depart="0.1" departLane="0" departPos="16.380486135474747" departSpeed="0.42358129" id="370" type="motorcycle">
		<route edges="3385 3551"/>
	</vehicle>
	<vehicle depart="0.1" departLane="0" departPos="26.858918372856806" departSpeed="1.4562111" id="329" type="truck">
		<route edges="3386 3643"/>
	</vehicle>
</routes>
