<!-- generated on Tue Feb  9 22:06:36 2021 by Eclipse SUMO netconvert Version 1.8.0
<configuration xmlns:xsi="http://www.w3.org/2001/XMLSchema-instance" xsi:noNamespaceSchemaLocation="http://sumo.dlr.de/xsd/netconvertConfiguration.xsd">

    <input>
        <node-files value="./converted_scenarios/scenario-factory/ARG_Carcarana-3_2_I-1-1/ARG_Carcarana-3_2_I-1-1.nod.xml"/>
        <edge-files value="./converted_scenarios/scenario-factory/ARG_Carcarana-3_2_I-1-1/ARG_Carcarana-3_2_I-1-1.edg.xml"/>
        <connection-files value="./converted_scenarios/scenario-factory/ARG_Carcarana-3_2_I-1-1/ARG_Carcarana-3_2_I-1-1.con.xml"/>
        <tllogic-files value="./converted_scenarios/scenario-factory/ARG_Carcarana-3_2_I-1-1/ARG_Carcarana-3_2_I-1-1.tll.xml"/>
        <type-files value="/home/zen/commonroad-interactive-benchmarks/install/commonroad-map-tool/crmapconverter/sumo_map/templates/DEU.typ.xml"/>
    </input>

    <output>
        <output-file value="./converted_scenarios/scenario-factory/ARG_Carcarana-3_2_I-1-1/ARG_Carcarana-3_2_I-1-1.net.xml"/>
    </output>

    <processing>
        <geometry.remove.keep-edges.explicit value="true"/>
        <geometry.avoid-overlap value="true"/>
        <offset.disable-normalization value="true"/>
    </processing>

    <junctions>
        <no-turnarounds value="true"/>
        <junctions.internal-link-detail value="20"/>
    </junctions>

    <report>
        <aggregate-warnings value="5"/>
    </report>

    <random_number>
        <seed value="1234"/>
    </random_number>

</configuration>
--><net xmlns:xsi="http://www.w3.org/2001/XMLSchema-instance" version="1.6" junctionCornerDetail="5" junctionLinkDetail="20" limitTurnSpeed="5.50" xsi:noNamespaceSchemaLocation="http://sumo.dlr.de/xsd/net_file.xsd">

    <location netOffset="0.00,0.00" convBoundary="89.63,-414.62,562.62,-16.99" origBoundary="89.63,-414.62,562.62,-16.99" projParameter="!"/>

    <type id="highway.bridleway" priority="1" speed="2.78" allow="pedestrian" oneway="1" width="2.00"/>
    <type id="highway.bus_guideway" priority="1" speed="27.78" allow="bus" oneway="1"/>
    <type id="highway.cycleway" priority="1" speed="8.33" allow="bicycle" oneway="0" width="1.00"/>
    <type id="highway.footway" priority="1" speed="2.78" allow="pedestrian" oneway="1" width="2.00"/>
    <type id="highway.ford" priority="1" speed="2.78" allow="army" oneway="0"/>
    <type id="highway.living_street" priority="2" speed="2.78" disallow="tram rail_urban rail rail_electric rail_fast ship" oneway="0"/>
    <type id="highway.motorway" priority="14" speed="39.44" allow="private emergency authority army vip passenger hov taxi bus coach delivery truck trailer motorcycle evehicle custom1 custom2" oneway="1"/>
    <type id="highway.motorway_link" priority="9" speed="22.22" allow="private emergency authority army vip passenger hov taxi bus coach delivery truck trailer motorcycle evehicle custom1 custom2" oneway="1"/>
    <type id="highway.path" priority="1" speed="2.78" allow="pedestrian bicycle" oneway="0" width="2.00"/>
    <type id="highway.pedestrian" priority="1" speed="2.78" allow="pedestrian" oneway="1" width="2.00"/>
    <type id="highway.primary" priority="12" speed="27.78" disallow="pedestrian tram rail_urban rail rail_electric rail_fast ship" oneway="0"/>
    <type id="highway.primary_link" priority="7" speed="22.22" disallow="pedestrian tram rail_urban rail rail_electric rail_fast ship" oneway="0"/>
    <type id="highway.raceway" priority="15" speed="83.33" allow="vip" oneway="0"/>
    <type id="highway.residential" priority="3" speed="13.89" disallow="pedestrian tram rail_urban rail rail_electric rail_fast ship" oneway="0"/>
    <type id="highway.secondary" priority="11" speed="27.78" disallow="pedestrian tram rail_urban rail rail_electric rail_fast ship" oneway="0"/>
    <type id="highway.secondary_link" priority="6" speed="22.22" disallow="pedestrian tram rail_urban rail rail_electric rail_fast ship" oneway="0"/>
    <type id="highway.service" priority="1" speed="5.56" allow="pedestrian delivery bicycle" oneway="0"/>
    <type id="highway.stairs" priority="1" speed="1.39" allow="pedestrian" oneway="1" width="2.00"/>
    <type id="highway.step" priority="1" speed="1.39" allow="pedestrian" oneway="1" width="2.00"/>
    <type id="highway.steps" priority="1" speed="1.39" allow="pedestrian" oneway="1" width="2.00"/>
    <type id="highway.tertiary" priority="10" speed="22.22" disallow="pedestrian tram rail_urban rail rail_electric rail_fast ship" oneway="0"/>
    <type id="highway.tertiary_link" priority="5" speed="22.22" disallow="pedestrian tram rail_urban rail rail_electric rail_fast ship" oneway="0"/>
    <type id="highway.track" priority="1" speed="5.56" allow="pedestrian motorcycle moped bicycle" oneway="0"/>
    <type id="highway.trunk" priority="13" speed="27.78" disallow="pedestrian bicycle tram rail_urban rail rail_electric rail_fast ship" oneway="0"/>
    <type id="highway.trunk_link" priority="8" speed="22.22" disallow="pedestrian bicycle tram rail_urban rail rail_electric rail_fast ship" oneway="0"/>
    <type id="highway.unclassified" priority="4" speed="13.89" disallow="pedestrian tram rail_urban rail rail_electric rail_fast ship" oneway="0"/>
    <type id="highway.unsurfaced" priority="1" speed="8.33" disallow="tram rail_urban rail rail_electric rail_fast ship" oneway="0"/>
    <type id="railway.highspeed" priority="21" speed="69.44" allow="rail_fast" oneway="1"/>
    <type id="railway.light_rail" priority="19" speed="27.78" allow="rail_urban" oneway="1"/>
    <type id="railway.preserved" priority="16" speed="27.78" allow="rail" oneway="1"/>
    <type id="railway.rail" priority="20" speed="44.44" allow="rail" oneway="1"/>
    <type id="railway.subway" priority="18" speed="27.78" allow="rail_urban" oneway="1"/>
    <type id="railway.tram" priority="17" speed="13.89" allow="tram" oneway="1"/>

    <edge id=":125_0" function="internal">
        <lane id=":125_0_0" index="0" disallow="pedestrian tram rail_urban rail rail_electric rail_fast ship" speed="11.13" length="28.38" width="3.50" shape="337.92,-148.21 337.09,-151.36 336.32,-153.40 335.34,-155.36 334.13,-157.17 333.43,-158.01 332.66,-158.79 331.84,-159.50 330.95,-160.14 330.01,-160.69 329.02,-161.16 328.00,-161.55 325.88,-162.08 323.71,-162.32 321.53,-162.31 319.35,-162.09 317.20,-161.72"/>
    </edge>
    <edge id=":125_1" function="internal">
        <lane id=":125_1_0" index="0" disallow="pedestrian tram rail_urban rail rail_electric rail_fast ship" speed="36.11" length="38.77" width="3.50" shape="337.92,-148.21 333.96,-167.16 329.99,-186.16"/>
    </edge>
    <edge id=":125_2" function="internal">
        <lane id=":125_2_0" index="0" disallow="pedestrian tram rail_urban rail rail_electric rail_fast ship" speed="12.19" length="34.18" width="3.50" shape="337.92,-148.21 337.35,-151.96 337.22,-154.56 337.37,-157.18 337.84,-159.76 338.24,-161.08 338.73,-162.34 339.33,-163.56 340.04,-164.73 340.85,-165.82 341.75,-166.84 342.72,-167.78 343.78,-168.65 345.97,-170.09 348.31,-171.25 350.74,-172.16 354.42,-173.14"/>
    </edge>
    <edge id=":125_3" function="internal">
        <lane id=":125_3_0" index="0" disallow="pedestrian tram rail_urban rail rail_electric rail_fast ship" speed="11.19" length="28.60" width="3.50" shape="355.15,-169.71 351.95,-168.87 349.89,-168.09 347.92,-167.12 346.08,-165.91 345.22,-165.21 344.43,-164.45 343.70,-163.62 343.05,-162.74 342.48,-161.80 341.99,-160.81 341.59,-159.79 341.27,-158.73 340.86,-156.57 340.74,-154.37 340.85,-152.17 341.34,-148.93"/>
    </edge>
    <edge id=":125_4" function="internal">
        <lane id=":125_4_0" index="0" disallow="pedestrian tram rail_urban rail rail_electric rail_fast ship" speed="36.11" length="38.78" width="3.50" shape="355.15,-169.71 336.17,-165.71 317.20,-161.72"/>
    </edge>
    <edge id=":125_5" function="internal">
        <lane id=":125_5_0" index="0" disallow="pedestrian tram rail_urban rail rail_electric rail_fast ship" speed="12.23" length="34.50" width="3.50" shape="355.15,-169.71 351.22,-169.09 348.57,-168.95 345.92,-169.08 343.31,-169.54 342.03,-169.91 340.79,-170.38 339.60,-170.95 338.46,-171.63 337.38,-172.40 336.37,-173.27 335.44,-174.21 333.82,-176.31 332.50,-178.61 331.45,-181.04 330.62,-183.56 329.99,-186.16"/>
    </edge>
    <edge id=":125_6" function="internal">
        <lane id=":125_6_0" index="0" disallow="pedestrian tram rail_urban rail rail_electric rail_fast ship" speed="11.23" length="28.91" width="3.50" shape="333.41,-186.88 333.97,-184.61 334.67,-182.44 335.57,-180.37 336.67,-178.45 338.02,-176.70 338.76,-175.96 339.56,-175.27 340.43,-174.64 341.34,-174.10 342.30,-173.64 343.31,-173.26 344.32,-172.97 346.51,-172.58 348.74,-172.47 351.00,-172.60 354.42,-173.14"/>
    </edge>
    <edge id=":125_7" function="internal">
        <lane id=":125_7_0" index="0" disallow="pedestrian tram rail_urban rail rail_electric rail_fast ship" speed="36.11" length="38.77" width="3.50" shape="333.41,-186.88 337.38,-167.88 341.34,-148.93"/>
    </edge>
    <edge id=":125_8" function="internal">
        <lane id=":125_8_0" index="0" disallow="pedestrian tram rail_urban rail rail_electric rail_fast ship" speed="12.22" length="34.33" width="3.50" shape="333.41,-186.88 334.03,-182.94 334.17,-180.31 334.05,-177.67 333.61,-175.07 333.25,-173.80 332.79,-172.57 332.24,-171.37 331.58,-170.23 330.82,-169.15 329.97,-168.14 329.04,-167.20 326.96,-165.57 324.69,-164.24 322.27,-163.18 319.77,-162.35 317.20,-161.72"/>
    </edge>
    <edge id=":125_9" function="internal">
        <lane id=":125_9_0" index="0" disallow="pedestrian tram rail_urban rail rail_electric rail_fast ship" speed="11.21" length="28.75" width="3.50" shape="316.48,-165.14 318.71,-165.69 320.86,-166.40 322.91,-167.30 324.81,-168.41 326.53,-169.77 327.26,-170.50 327.94,-171.32 328.55,-172.18 329.08,-173.10 329.52,-174.06 329.89,-175.06 330.18,-176.07 330.55,-178.26 330.65,-180.48 330.53,-182.73 329.99,-186.16"/>
    </edge>
    <edge id=":125_10" function="internal">
        <lane id=":125_10_0" index="0" disallow="pedestrian tram rail_urban rail rail_electric rail_fast ship" speed="36.11" length="38.77" width="3.50" shape="316.48,-165.14 335.45,-169.14 354.42,-173.14"/>
    </edge>
    <edge id=":125_11" function="internal">
        <lane id=":125_11_0" index="0" disallow="pedestrian tram rail_urban rail rail_electric rail_fast ship" speed="12.14" length="33.96" width="3.50" shape="316.48,-165.14 318.97,-165.58 321.51,-165.83 324.09,-165.84 326.70,-165.55 329.25,-164.92 330.53,-164.43 331.75,-163.85 332.92,-163.16 334.02,-162.37 335.05,-161.49 335.99,-160.53 336.86,-159.48 338.31,-157.31 339.47,-154.98 340.38,-152.56 341.34,-148.93"/>
    </edge>
    <edge id=":126_0" function="internal">
        <lane id=":126_0_0" index="0" disallow="pedestrian tram rail_urban rail rail_electric rail_fast ship" speed="11.17" length="28.57" width="3.50" shape="323.03,-219.44 322.19,-222.63 321.41,-224.69 320.41,-226.65 319.18,-228.47 318.46,-229.30 317.68,-230.08 316.84,-230.79 315.94,-231.42 314.99,-231.97 313.99,-232.43 312.96,-232.81 310.82,-233.32 308.63,-233.55 306.43,-233.53 304.24,-233.31 302.10,-232.93"/>
    </edge>
    <edge id=":126_1" function="internal">
        <lane id=":126_1_0" index="0" disallow="pedestrian tram rail_urban rail rail_electric rail_fast ship" speed="36.11" length="38.78" width="3.50" shape="323.03,-219.44 319.07,-238.42 315.10,-257.40"/>
    </edge>
    <edge id=":126_2" function="internal">
        <lane id=":126_2_0" index="0" disallow="pedestrian tram rail_urban rail rail_electric rail_fast ship" speed="12.18" length="34.12" width="3.50" shape="323.03,-219.44 322.43,-223.33 322.29,-225.95 322.42,-228.57 322.88,-231.15 323.25,-232.41 323.72,-233.63 324.29,-234.82 324.95,-235.94 325.72,-237.01 326.57,-238.00 327.51,-238.92 329.58,-240.53 331.85,-241.84 334.26,-242.89 336.75,-243.71 339.32,-244.34"/>
    </edge>
    <edge id=":126_3" function="internal">
        <lane id=":126_3_0" index="0" disallow="pedestrian tram rail_urban rail rail_electric rail_fast ship" speed="11.17" length="28.54" width="3.50" shape="340.04,-240.91 337.80,-240.36 335.66,-239.66 333.62,-238.78 331.72,-237.69 330.00,-236.35 329.27,-235.62 328.58,-234.83 327.97,-233.97 327.44,-233.07 326.98,-232.12 326.60,-231.13 326.31,-230.13 325.92,-227.97 325.81,-225.77 325.93,-223.54 326.46,-220.16"/>
    </edge>
    <edge id=":126_4" function="internal">
        <lane id=":126_4_0" index="0" disallow="pedestrian tram rail_urban rail rail_electric rail_fast ship" speed="36.11" length="38.77" width="3.50" shape="340.04,-240.91 321.05,-236.92 302.10,-232.93"/>
    </edge>
    <edge id=":126_5" function="internal">
        <lane id=":126_5_0" index="0" disallow="pedestrian tram rail_urban rail rail_electric rail_fast ship" speed="12.20" length="34.31" width="3.50" shape="340.04,-240.91 336.11,-240.30 333.48,-240.16 330.84,-240.31 328.25,-240.78 326.99,-241.16 325.76,-241.64 324.57,-242.22 323.45,-242.91 322.38,-243.69 321.39,-244.56 320.48,-245.51 318.88,-247.61 317.58,-249.90 316.54,-252.32 315.73,-254.83 315.10,-257.40"/>
    </edge>
    <edge id=":126_6" function="internal">
        <lane id=":126_6_0" index="0" disallow="pedestrian tram rail_urban rail rail_electric rail_fast ship" speed="11.20" length="28.72" width="3.50" shape="318.53,-258.11 319.07,-255.88 319.77,-253.72 320.65,-251.65 321.74,-249.74 323.07,-247.99 323.79,-247.24 324.58,-246.54 325.43,-245.91 326.34,-245.37 327.29,-244.90 328.28,-244.51 329.28,-244.21 331.45,-243.81 333.66,-243.69 335.90,-243.80 339.32,-244.34"/>
    </edge>
    <edge id=":126_7" function="internal">
        <lane id=":126_7_0" index="0" disallow="pedestrian tram rail_urban rail rail_electric rail_fast ship" speed="36.11" length="38.77" width="3.50" shape="318.53,-258.11 322.49,-239.13 326.46,-220.16"/>
    </edge>
    <edge id=":126_8" function="internal">
        <lane id=":126_8_0" index="0" disallow="pedestrian tram rail_urban rail rail_electric rail_fast ship" speed="12.22" length="34.38" width="3.50" shape="318.53,-258.11 318.96,-255.59 319.21,-253.02 319.22,-250.40 318.93,-247.76 318.28,-245.19 317.79,-243.88 317.20,-242.65 316.50,-241.47 315.70,-240.36 314.81,-239.32 313.84,-238.37 312.78,-237.48 310.58,-236.02 308.22,-234.83 305.78,-233.91 302.10,-232.93"/>
    </edge>
    <edge id=":126_9" function="internal">
        <lane id=":126_9_0" index="0" disallow="pedestrian tram rail_urban rail rail_electric rail_fast ship" speed="11.22" length="28.82" width="3.50" shape="301.37,-236.35 304.57,-237.20 306.64,-237.99 308.63,-238.98 310.47,-240.21 311.32,-240.92 312.11,-241.70 312.83,-242.54 313.48,-243.44 314.05,-244.40 314.53,-245.40 314.92,-246.43 315.46,-248.58 315.70,-250.79 315.69,-253.00 315.48,-255.21 315.10,-257.40"/>
    </edge>
    <edge id=":126_10" function="internal">
        <lane id=":126_10_0" index="0" disallow="pedestrian tram rail_urban rail rail_electric rail_fast ship" speed="36.11" length="38.78" width="3.50" shape="301.37,-236.35 320.33,-240.34 339.32,-244.34"/>
    </edge>
    <edge id=":126_11" function="internal">
        <lane id=":126_11_0" index="0" disallow="pedestrian tram rail_urban rail rail_electric rail_fast ship" speed="12.18" length="34.17" width="3.50" shape="301.37,-236.35 303.86,-236.79 306.41,-237.04 309.00,-237.07 311.62,-236.79 314.18,-236.18 315.48,-235.70 316.71,-235.13 317.89,-234.45 319.01,-233.67 320.05,-232.79 321.01,-231.83 321.90,-230.78 323.37,-228.61 324.56,-226.27 325.48,-223.84 326.46,-220.16"/>
    </edge>
    <edge id=":127_0" function="internal">
        <lane id=":127_0_0" index="0" disallow="pedestrian tram rail_urban rail rail_electric rail_fast ship" speed="11.22" length="28.74" width="3.50" shape="462.16,-174.13 461.60,-176.36 460.89,-178.52 460.00,-180.58 458.90,-182.50 457.55,-184.24 456.83,-184.98 456.03,-185.68 455.17,-186.31 454.27,-186.85 453.31,-187.32 452.32,-187.71 451.32,-188.01 449.14,-188.41 446.93,-188.52 444.69,-188.41 441.28,-187.88"/>
    </edge>
    <edge id=":127_1" function="internal">
        <lane id=":127_1_0" index="0" disallow="pedestrian tram rail_urban rail rail_electric rail_fast ship" speed="36.11" length="38.79" width="3.50" shape="462.16,-174.13 458.08,-193.10 453.99,-212.05"/>
    </edge>
    <edge id=":127_2" function="internal">
        <lane id=":127_2_0" index="0" disallow="pedestrian tram rail_urban rail rail_electric rail_fast ship" speed="12.19" length="34.32" width="3.50" shape="462.16,-174.13 461.71,-176.65 461.45,-179.21 461.42,-181.82 461.70,-184.46 462.33,-187.03 462.82,-188.34 463.40,-189.57 464.10,-190.75 464.89,-191.87 465.78,-192.91 466.75,-193.86 467.81,-194.75 470.00,-196.21 472.35,-197.39 474.79,-198.31 478.46,-199.29"/>
    </edge>
    <edge id=":127_3" function="internal">
        <lane id=":127_3_0" index="0" disallow="pedestrian tram rail_urban rail rail_electric rail_fast ship" speed="11.18" length="28.73" width="3.50" shape="479.19,-195.87 476.00,-195.02 473.93,-194.24 471.96,-193.25 470.12,-192.02 469.27,-191.31 468.48,-190.53 467.77,-189.69 467.12,-188.79 466.56,-187.84 466.09,-186.84 465.70,-185.80 465.17,-183.66 464.94,-181.46 464.96,-179.25 465.19,-177.05 465.58,-174.87"/>
    </edge>
    <edge id=":127_4" function="internal">
        <lane id=":127_4_0" index="0" disallow="pedestrian tram rail_urban rail rail_electric rail_fast ship" speed="36.11" length="38.74" width="3.50" shape="479.19,-195.87 460.25,-191.87 441.28,-187.88"/>
    </edge>
    <edge id=":127_5" function="internal">
        <lane id=":127_5_0" index="0" disallow="pedestrian tram rail_urban rail rail_electric rail_fast ship" speed="12.21" length="34.22" width="3.50" shape="479.19,-195.87 476.70,-195.43 474.14,-195.17 471.54,-195.15 468.91,-195.43 466.34,-196.05 465.04,-196.53 463.81,-197.10 462.63,-197.78 461.51,-198.57 460.47,-199.44 459.50,-200.40 458.61,-201.45 457.13,-203.62 455.93,-205.96 454.99,-208.39 453.99,-212.05"/>
    </edge>
    <edge id=":127_6" function="internal">
        <lane id=":127_6_0" index="0" disallow="pedestrian tram rail_urban rail rail_electric rail_fast ship" speed="11.21" length="28.65" width="3.50" shape="457.41,-212.80 458.28,-209.62 459.07,-207.56 460.08,-205.59 461.32,-203.77 462.04,-202.93 462.83,-202.16 463.67,-201.45 464.58,-200.81 465.53,-200.27 466.53,-199.80 467.57,-199.42 469.71,-198.90 471.91,-198.67 474.12,-198.69 476.31,-198.91 478.46,-199.29"/>
    </edge>
    <edge id=":127_7" function="internal">
        <lane id=":127_7_0" index="0" disallow="pedestrian tram rail_urban rail rail_electric rail_fast ship" speed="36.11" length="38.80" width="3.50" shape="457.41,-212.80 461.50,-193.84 465.58,-174.87"/>
    </edge>
    <edge id=":127_8" function="internal">
        <lane id=":127_8_0" index="0" disallow="pedestrian tram rail_urban rail rail_electric rail_fast ship" speed="12.13" length="33.99" width="3.50" shape="457.41,-212.80 457.86,-210.32 458.12,-207.78 458.15,-205.20 457.87,-202.59 457.25,-200.04 456.77,-198.75 456.20,-197.53 455.51,-196.36 454.73,-195.25 453.85,-194.22 452.90,-193.27 451.85,-192.39 449.68,-190.94 447.36,-189.77 444.94,-188.85 441.28,-187.88"/>
    </edge>
    <edge id=":127_9" function="internal">
        <lane id=":127_9_0" index="0" disallow="pedestrian tram rail_urban rail rail_electric rail_fast ship" speed="11.12" length="28.38" width="3.50" shape="440.56,-191.30 443.73,-192.14 445.77,-192.92 447.72,-193.90 449.54,-195.12 450.37,-195.82 451.15,-196.59 451.85,-197.43 452.49,-198.32 453.04,-199.26 453.50,-200.25 453.88,-201.27 454.40,-203.39 454.63,-205.57 454.60,-207.75 454.38,-209.92 453.99,-212.05"/>
    </edge>
    <edge id=":127_10" function="internal">
        <lane id=":127_10_0" index="0" disallow="pedestrian tram rail_urban rail rail_electric rail_fast ship" speed="36.11" length="38.73" width="3.50" shape="440.56,-191.30 459.52,-195.30 478.46,-199.29"/>
    </edge>
    <edge id=":127_11" function="internal">
        <lane id=":127_11_0" index="0" disallow="pedestrian tram rail_urban rail rail_electric rail_fast ship" speed="12.22" length="34.31" width="3.50" shape="440.56,-191.30 444.47,-191.91 447.11,-192.05 449.74,-191.91 452.34,-191.43 453.60,-191.06 454.83,-190.58 456.02,-190.00 457.15,-189.32 458.22,-188.54 459.21,-187.68 460.13,-186.73 461.74,-184.64 463.06,-182.35 464.11,-179.93 464.94,-177.43 465.58,-174.87"/>
    </edge>
    <edge id=":128_0" function="internal">
        <lane id=":128_0_0" index="0" disallow="pedestrian tram rail_urban rail rail_electric rail_fast ship" speed="11.13" length="28.40" width="3.50" shape="352.40,-78.91 351.57,-82.08 350.80,-84.12 349.82,-86.07 348.61,-87.89 347.91,-88.73 347.14,-89.51 346.31,-90.22 345.42,-90.85 344.48,-91.41 343.50,-91.88 342.48,-92.27 340.36,-92.80 338.19,-93.03 336.00,-93.02 333.83,-92.80 331.67,-92.42"/>
    </edge>
    <edge id=":128_1" function="internal">
        <lane id=":128_1_0" index="0" disallow="pedestrian tram rail_urban rail rail_electric rail_fast ship" speed="36.11" length="38.76" width="3.50" shape="352.40,-78.91 348.44,-97.88 344.47,-116.85"/>
    </edge>
    <edge id=":128_2" function="internal">
        <lane id=":128_2_0" index="0" disallow="pedestrian tram rail_urban rail rail_electric rail_fast ship" speed="12.22" length="34.31" width="3.50" shape="352.40,-78.91 351.80,-82.82 351.67,-85.46 351.82,-88.09 352.30,-90.69 352.68,-91.95 353.16,-93.18 353.75,-94.36 354.43,-95.49 355.22,-96.56 356.09,-97.55 357.04,-98.46 359.14,-100.06 361.43,-101.37 363.86,-102.41 366.37,-103.23 368.93,-103.86"/>
    </edge>
    <edge id=":128_3" function="internal">
        <lane id=":128_3_0" index="0" disallow="pedestrian tram rail_urban rail rail_electric rail_fast ship" speed="11.21" length="28.74" width="3.50" shape="369.65,-100.44 367.42,-99.89 365.25,-99.18 363.19,-98.30 361.27,-97.21 359.52,-95.87 358.77,-95.15 358.07,-94.35 357.44,-93.50 356.89,-92.60 356.42,-91.65 356.03,-90.66 355.72,-89.66 355.32,-87.48 355.19,-85.27 355.30,-83.03 355.83,-79.62"/>
    </edge>
    <edge id=":128_4" function="internal">
        <lane id=":128_4_0" index="0" disallow="pedestrian tram rail_urban rail rail_electric rail_fast ship" speed="36.11" length="38.82" width="3.50" shape="369.65,-100.44 350.66,-96.43 331.67,-92.42"/>
    </edge>
    <edge id=":128_5" function="internal">
        <lane id=":128_5_0" index="0" disallow="pedestrian tram rail_urban rail rail_electric rail_fast ship" speed="12.21" length="34.40" width="3.50" shape="369.65,-100.44 367.13,-99.99 364.56,-99.74 361.95,-99.73 359.31,-100.01 356.73,-100.65 355.43,-101.14 354.19,-101.73 353.01,-102.43 351.90,-103.23 350.86,-104.12 349.90,-105.09 349.02,-106.15 347.55,-108.34 346.38,-110.70 345.45,-113.15 344.47,-116.85"/>
    </edge>
    <edge id=":128_6" function="internal">
        <lane id=":128_6_0" index="0" disallow="pedestrian tram rail_urban rail rail_electric rail_fast ship" speed="11.21" length="28.81" width="3.50" shape="347.90,-117.57 348.75,-114.35 349.53,-112.28 350.52,-110.30 351.75,-108.45 352.46,-107.60 353.24,-106.81 354.08,-106.09 354.98,-105.45 355.94,-104.89 356.94,-104.41 357.97,-104.02 360.12,-103.48 362.33,-103.24 364.54,-103.26 366.75,-103.48 368.93,-103.86"/>
    </edge>
    <edge id=":128_7" function="internal">
        <lane id=":128_7_0" index="0" disallow="pedestrian tram rail_urban rail rail_electric rail_fast ship" speed="36.11" length="38.77" width="3.50" shape="347.90,-117.57 351.86,-98.60 355.83,-79.62"/>
    </edge>
    <edge id=":128_8" function="internal">
        <lane id=":128_8_0" index="0" disallow="pedestrian tram rail_urban rail rail_electric rail_fast ship" speed="12.21" length="34.32" width="3.50" shape="347.90,-117.57 348.51,-113.66 348.65,-111.02 348.53,-108.38 348.09,-105.78 347.73,-104.51 347.27,-103.27 346.71,-102.08 346.05,-100.94 345.29,-99.86 344.44,-98.85 343.51,-97.91 341.44,-96.28 339.16,-94.95 336.74,-93.89 334.24,-93.06 331.67,-92.42"/>
    </edge>
    <edge id=":128_9" function="internal">
        <lane id=":128_9_0" index="0" disallow="pedestrian tram rail_urban rail rail_electric rail_fast ship" speed="11.21" length="28.74" width="3.50" shape="330.95,-95.85 333.18,-96.40 335.34,-97.11 337.39,-98.01 339.28,-99.12 341.01,-100.48 341.73,-101.21 342.42,-102.03 343.02,-102.89 343.55,-103.81 344.00,-104.77 344.37,-105.77 344.66,-106.78 345.03,-108.97 345.13,-111.19 345.01,-113.44 344.47,-116.85"/>
    </edge>
    <edge id=":128_10" function="internal">
        <lane id=":128_10_0" index="0" disallow="pedestrian tram rail_urban rail rail_electric rail_fast ship" speed="36.11" length="38.82" width="3.50" shape="330.95,-95.85 349.94,-99.86 368.93,-103.86"/>
    </edge>
    <edge id=":128_11" function="internal">
        <lane id=":128_11_0" index="0" disallow="pedestrian tram rail_urban rail rail_electric rail_fast ship" speed="12.14" length="33.99" width="3.50" shape="330.95,-95.85 333.44,-96.29 335.98,-96.53 338.57,-96.55 341.17,-96.26 343.72,-95.63 345.01,-95.14 346.23,-94.56 347.39,-93.87 348.49,-93.08 349.52,-92.20 350.46,-91.25 351.34,-90.20 352.79,-88.03 353.95,-85.70 354.86,-83.28 355.83,-79.62"/>
    </edge>
    <edge id=":129_0" function="internal">
        <lane id=":129_0_0" index="0" disallow="pedestrian tram rail_urban rail rail_electric rail_fast ship" speed="11.15" length="28.52" width="3.50" shape="207.64,-120.72 207.10,-122.96 206.40,-125.11 205.52,-127.15 204.44,-129.04 203.10,-130.76 202.38,-131.49 201.58,-132.18 200.73,-132.79 199.83,-133.33 198.88,-133.78 197.89,-134.16 196.89,-134.45 194.73,-134.83 192.53,-134.93 190.31,-134.81 186.92,-134.28"/>
    </edge>
    <edge id=":129_1" function="internal">
        <lane id=":129_1_0" index="0" disallow="pedestrian tram rail_urban rail rail_electric rail_fast ship" speed="36.11" length="38.79" width="3.50" shape="207.64,-120.72 203.69,-139.74 199.74,-158.70"/>
    </edge>
    <edge id=":129_2" function="internal">
        <lane id=":129_2_0" index="0" disallow="pedestrian tram rail_urban rail rail_electric rail_fast ship" speed="12.22" length="34.34" width="3.50" shape="207.64,-120.72 207.04,-124.66 206.91,-127.30 207.06,-129.93 207.54,-132.53 207.92,-133.79 208.40,-135.02 208.99,-136.20 209.67,-137.33 210.45,-138.40 211.32,-139.39 212.27,-140.30 214.37,-141.90 216.67,-143.21 219.09,-144.25 221.60,-145.07 224.16,-145.70"/>
    </edge>
    <edge id=":129_3" function="internal">
        <lane id=":129_3_0" index="0" disallow="pedestrian tram rail_urban rail rail_electric rail_fast ship" speed="11.22" length="28.77" width="3.50" shape="224.89,-142.28 222.65,-141.73 220.49,-141.03 218.42,-140.14 216.50,-139.05 214.75,-137.71 214.01,-136.99 213.30,-136.19 212.68,-135.34 212.13,-134.44 211.66,-133.49 211.27,-132.50 210.96,-131.50 210.55,-129.32 210.43,-127.11 210.54,-124.87 211.07,-121.44"/>
    </edge>
    <edge id=":129_4" function="internal">
        <lane id=":129_4_0" index="0" disallow="pedestrian tram rail_urban rail rail_electric rail_fast ship" speed="36.11" length="38.80" width="3.50" shape="224.89,-142.28 205.90,-138.28 186.92,-134.28"/>
    </edge>
    <edge id=":129_5" function="internal">
        <lane id=":129_5_0" index="0" disallow="pedestrian tram rail_urban rail rail_electric rail_fast ship" speed="12.21" length="34.38" width="3.50" shape="224.89,-142.28 222.36,-141.84 219.79,-141.58 217.18,-141.57 214.54,-141.86 211.97,-142.51 210.66,-143.00 209.43,-143.59 208.25,-144.29 207.14,-145.09 206.10,-145.98 205.15,-146.95 204.26,-148.02 202.80,-150.22 201.63,-152.57 200.71,-155.02 199.74,-158.70"/>
    </edge>
    <edge id=":129_6" function="internal">
        <lane id=":129_6_0" index="0" disallow="pedestrian tram rail_urban rail rail_electric rail_fast ship" speed="11.20" length="28.78" width="3.50" shape="203.17,-159.42 204.01,-156.22 204.79,-154.15 205.77,-152.16 207.00,-150.32 207.71,-149.47 208.48,-148.68 209.32,-147.95 210.22,-147.31 211.18,-146.74 212.17,-146.26 213.21,-145.87 215.36,-145.33 217.56,-145.09 219.78,-145.10 221.98,-145.32 224.16,-145.70"/>
    </edge>
    <edge id=":129_7" function="internal">
        <lane id=":129_7_0" index="0" disallow="pedestrian tram rail_urban rail rail_electric rail_fast ship" speed="36.11" length="38.79" width="3.50" shape="203.17,-159.42 207.11,-140.45 211.07,-121.44"/>
    </edge>
    <edge id=":129_8" function="internal">
        <lane id=":129_8_0" index="0" disallow="pedestrian tram rail_urban rail rail_electric rail_fast ship" speed="12.20" length="34.22" width="3.50" shape="203.17,-159.42 203.60,-156.93 203.85,-154.37 203.86,-151.77 203.58,-149.15 202.96,-146.59 202.48,-145.29 201.91,-144.05 201.23,-142.87 200.44,-141.75 199.57,-140.71 198.61,-139.75 197.56,-138.86 195.38,-137.38 193.04,-136.19 190.61,-135.27 186.92,-134.28"/>
    </edge>
    <edge id=":129_9" function="internal">
        <lane id=":129_9_0" index="0" disallow="pedestrian tram rail_urban rail rail_electric rail_fast ship" speed="11.20" length="28.64" width="3.50" shape="186.20,-137.70 189.39,-138.56 191.45,-139.34 193.42,-140.34 195.24,-141.58 196.08,-142.30 196.86,-143.08 197.57,-143.92 198.20,-144.83 198.75,-145.78 199.21,-146.78 199.60,-147.82 200.12,-149.96 200.34,-152.15 200.33,-154.36 200.11,-156.55 199.74,-158.70"/>
    </edge>
    <edge id=":129_10" function="internal">
        <lane id=":129_10_0" index="0" disallow="pedestrian tram rail_urban rail rail_electric rail_fast ship" speed="36.11" length="38.79" width="3.50" shape="186.20,-137.70 205.18,-141.70 224.16,-145.70"/>
    </edge>
    <edge id=":129_11" function="internal">
        <lane id=":129_11_0" index="0" disallow="pedestrian tram rail_urban rail rail_electric rail_fast ship" speed="12.16" length="34.11" width="3.50" shape="186.20,-137.70 190.09,-138.31 192.70,-138.46 195.32,-138.33 197.91,-137.88 199.16,-137.51 200.39,-137.04 201.57,-136.48 202.70,-135.81 203.77,-135.04 204.76,-134.19 205.68,-133.25 207.28,-131.18 208.59,-128.91 209.63,-126.50 210.44,-124.01 211.07,-121.44"/>
    </edge>
    <edge id=":130_0" function="internal">