<!-- generated on Tue Feb  9 22:16:28 2021 by Eclipse SUMO netconvert Version 1.8.0
<configuration xmlns:xsi="http://www.w3.org/2001/XMLSchema-instance" xsi:noNamespaceSchemaLocation="http://sumo.dlr.de/xsd/netconvertConfiguration.xsd">

    <input>
        <node-files value="./converted_scenarios/scenario-factory/ESP_SantBoideLlobregat-3_1_I-1-1/ESP_SantBoideLlobregat-3_1_I-1-1.nod.xml"/>
        <edge-files value="./converted_scenarios/scenario-factory/ESP_SantBoideLlobregat-3_1_I-1-1/ESP_SantBoideLlobregat-3_1_I-1-1.edg.xml"/>
        <connection-files value="./converted_scenarios/scenario-factory/ESP_SantBoideLlobregat-3_1_I-1-1/ESP_SantBoideLlobregat-3_1_I-1-1.con.xml"/>
        <tllogic-files value="./converted_scenarios/scenario-factory/ESP_SantBoideLlobregat-3_1_I-1-1/ESP_SantBoideLlobregat-3_1_I-1-1.tll.xml"/>
        <type-files value="/home/zen/commonroad-interactive-benchmarks/install/commonroad-map-tool/crmapconverter/sumo_map/templates/DEU.typ.xml"/>
    </input>

    <output>
        <output-file value="./converted_scenarios/scenario-factory/ESP_SantBoideLlobregat-3_1_I-1-1/ESP_SantBoideLlobregat-3_1_I-1-1.net.xml"/>
    </output>

    <processing>
        <geometry.remove.keep-edges.explicit value="true"/>
        <geometry.avoid-overlap value="true"/>
        <offset.disable-normalization value="true"/>
    </processing>

    <junctions>
        <no-turnarounds value="true"/>
        <junctions.internal-link-detail value="20"/>
    </junctions>

    <report>
        <aggregate-warnings value="5"/>
    </report>

    <random_number>
        <seed value="1234"/>
    </random_number>

</configuration>
--><net xmlns:xsi="http://www.w3.org/2001/XMLSchema-instance" version="1.6" junctionCornerDetail="5" junctionLinkDetail="20" limitTurnSpeed="5.50" xsi:noNamespaceSchemaLocation="http://sumo.dlr.de/xsd/net_file.xsd">

    <location netOffset="0.00,0.00" convBoundary="-985.42,-559.53,-751.90,-390.28" origBoundary="-985.42,-559.53,-751.90,-390.28" projParameter="!"/>

    <type id="highway.bridleway" priority="1" speed="2.78" allow="pedestrian" oneway="1" width="2.00"/>
    <type id="highway.bus_guideway" priority="1" speed="27.78" allow="bus" oneway="1"/>
    <type id="highway.cycleway" priority="1" speed="8.33" allow="bicycle" oneway="0" width="1.00"/>
    <type id="highway.footway" priority="1" speed="2.78" allow="pedestrian" oneway="1" width="2.00"/>
    <type id="highway.ford" priority="1" speed="2.78" allow="army" oneway="0"/>
    <type id="highway.living_street" priority="2" speed="2.78" disallow="tram rail_urban rail rail_electric rail_fast ship" oneway="0"/>
    <type id="highway.motorway" priority="14" speed="39.44" allow="private emergency authority army vip passenger hov taxi bus coach delivery truck trailer motorcycle evehicle custom1 custom2" oneway="1"/>
    <type id="highway.motorway_link" priority="9" speed="22.22" allow="private emergency authority army vip passenger hov taxi bus coach delivery truck trailer motorcycle evehicle custom1 custom2" oneway="1"/>
    <type id="highway.path" priority="1" speed="2.78" allow="pedestrian bicycle" oneway="0" width="2.00"/>
    <type id="highway.pedestrian" priority="1" speed="2.78" allow="pedestrian" oneway="1" width="2.00"/>
    <type id="highway.primary" priority="12" speed="27.78" disallow="pedestrian tram rail_urban rail rail_electric rail_fast ship" oneway="0"/>
    <type id="highway.primary_link" priority="7" speed="22.22" disallow="pedestrian tram rail_urban rail rail_electric rail_fast ship" oneway="0"/>
    <type id="highway.raceway" priority="15" speed="83.33" allow="vip" oneway="0"/>
    <type id="highway.residential" priority="3" speed="13.89" disallow="pedestrian tram rail_urban rail rail_electric rail_fast ship" oneway="0"/>
    <type id="highway.secondary" priority="11" speed="27.78" disallow="pedestrian tram rail_urban rail rail_electric rail_fast ship" oneway="0"/>
    <type id="highway.secondary_link" priority="6" speed="22.22" disallow="pedestrian tram rail_urban rail rail_electric rail_fast ship" oneway="0"/>
    <type id="highway.service" priority="1" speed="5.56" allow="pedestrian delivery bicycle" oneway="0"/>
    <type id="highway.stairs" priority="1" speed="1.39" allow="pedestrian" oneway="1" width="2.00"/>
    <type id="highway.step" priority="1" speed="1.39" allow="pedestrian" oneway="1" width="2.00"/>
    <type id="highway.steps" priority="1" speed="1.39" allow="pedestrian" oneway="1" width="2.00"/>
    <type id="highway.tertiary" priority="10" speed="22.22" disallow="pedestrian tram rail_urban rail rail_electric rail_fast ship" oneway="0"/>
    <type id="highway.tertiary_link" priority="5" speed="22.22" disallow="pedestrian tram rail_urban rail rail_electric rail_fast ship" oneway="0"/>
    <type id="highway.track" priority="1" speed="5.56" allow="pedestrian motorcycle moped bicycle" oneway="0"/>
    <type id="highway.trunk" priority="13" speed="27.78" disallow="pedestrian bicycle tram rail_urban rail rail_electric rail_fast ship" oneway="0"/>
    <type id="highway.trunk_link" priority="8" speed="22.22" disallow="pedestrian bicycle tram rail_urban rail rail_electric rail_fast ship" oneway="0"/>
    <type id="highway.unclassified" priority="4" speed="13.89" disallow="pedestrian tram rail_urban rail rail_electric rail_fast ship" oneway="0"/>
    <type id="highway.unsurfaced" priority="1" speed="8.33" disallow="tram rail_urban rail rail_electric rail_fast ship" oneway="0"/>
    <type id="railway.highspeed" priority="21" speed="69.44" allow="rail_fast" oneway="1"/>
    <type id="railway.light_rail" priority="19" speed="27.78" allow="rail_urban" oneway="1"/>
    <type id="railway.preserved" priority="16" speed="27.78" allow="rail" oneway="1"/>
    <type id="railway.rail" priority="20" speed="44.44" allow="rail" oneway="1"/>
    <type id="railway.subway" priority="18" speed="27.78" allow="rail_urban" oneway="1"/>
    <type id="railway.tram" priority="17" speed="13.89" allow="tram" oneway="1"/>

    <edge id=":14_0" function="internal">
        <lane id=":14_0_0" index="0" disallow="pedestrian tram rail_urban rail rail_electric rail_fast ship" speed="36.11" length="3.00" width="3.50" shape="-848.36,-458.19 -846.85,-455.60"/>
        <lane id=":14_0_1" index="1" disallow="pedestrian tram rail_urban rail rail_electric rail_fast ship" speed="36.11" length="3.00" width="3.50" shape="-851.38,-456.43 -849.87,-453.84"/>
    </edge>
    <edge id=":33_0" function="internal">
        <lane id=":33_0_0" index="0" disallow="pedestrian tram rail_urban rail rail_electric rail_fast ship" speed="36.11" length="3.00" width="3.50" shape="-852.90,-452.08 -854.41,-454.67"/>
    </edge>
    <edge id=":36_0" function="internal">
        <lane id=":36_0_0" index="0" disallow="pedestrian tram rail_urban rail rail_electric rail_fast ship" speed="36.11" length="4.34" width="3.50" shape="-872.72,-486.16 -875.07,-489.81"/>
    </edge>
    <edge id=":36_1" function="internal">
        <lane id=":36_1_0" index="0" disallow="pedestrian tram rail_urban rail rail_electric rail_fast ship" speed="36.11" length="8.17" width="3.50" shape="-869.01,-493.49 -864.82,-486.48"/>
        <lane id=":36_1_1" index="1" disallow="pedestrian tram rail_urban rail rail_electric rail_fast ship" speed="31.73" length="5.81" width="3.50" shape="-871.95,-491.71 -868.99,-486.71"/>
    </edge>
    <edge id=":38_0" function="internal">
        <lane id=":38_0_0" index="0" disallow="pedestrian tram rail_urban rail rail_electric rail_fast ship" speed="13.29" length="20.98" width="3.49" shape="-862.75,-469.00 -867.21,-476.30 -869.24,-478.83 -870.80,-480.31 -872.13,-481.23 -873.11,-481.67 -877.41,-482.28"/>
    </edge>
    <edge id=":38_1" function="internal">
        <lane id=":38_1_0" index="0" disallow="pedestrian tram rail_urban rail rail_electric rail_fast ship" speed="36.11" length="19.65" width="3.49" shape="-862.75,-469.00 -868.18,-478.34 -872.62,-485.99"/>
    </edge>
    <edge id=":38_2" function="internal">
        <lane id=":38_2_0" index="0" disallow="pedestrian tram rail_urban rail rail_electric rail_fast ship" speed="36.11" length="25.03" width="3.49" shape="-852.88,-477.50 -865.00,-480.59 -871.10,-481.55 -877.41,-482.28"/>
    </edge>
    <edge id=":38_3" function="internal">
        <lane id=":38_3_0" index="0" disallow="pedestrian tram rail_urban rail rail_electric rail_fast ship" speed="15.48" length="22.13" width="3.49" shape="-852.88,-477.50 -865.97,-481.21 -869.37,-482.53 -870.73,-483.28 -871.14,-483.61 -872.62,-485.99"/>
    </edge>
    <edge id=":38_4" function="internal">
        <lane id=":38_4_0" index="0" disallow="pedestrian tram rail_urban rail rail_electric rail_fast ship" speed="36.11" length="15.94" width="3.50" shape="-864.72,-486.30 -862.13,-481.85 -856.70,-472.52"/>
        <lane id=":38_4_1" index="1" disallow="pedestrian tram rail_urban rail rail_electric rail_fast ship" speed="36.11" length="18.25" width="3.50" shape="-868.89,-486.54 -865.16,-480.09 -859.73,-470.76"/>
    </edge>
    <edge id=":39_0" function="internal">
        <lane id=":39_0_0" index="0" disallow="pedestrian tram rail_urban rail rail_electric rail_fast ship" speed="36.11" length="47.26" width="3.50" shape="-819.55,-394.81 -831.44,-415.23 -843.33,-435.65"/>
    </edge>
    <edge id=":39_1" function="internal">
        <lane id=":39_1_0" index="0" disallow="pedestrian tram rail_urban rail rail_electric rail_fast ship" speed="23.42" length="52.90" width="3.50" shape="-796.55,-413.15 -806.47,-415.84 -814.80,-418.47 -821.55,-420.95 -827.21,-423.38 -831.78,-425.71 -835.30,-427.84 -838.20,-429.96 -840.49,-432.02 -842.18,-433.95 -843.33,-435.65"/>
    </edge>
    <edge id=":39_2" function="internal">
        <lane id=":39_2_0" index="0" disallow="pedestrian tram rail_urban rail rail_electric rail_fast ship" speed="22.43" length="48.45" width="3.50" shape="-837.29,-439.18 -835.86,-437.03 -833.88,-434.65 -831.28,-432.16 -828.44,-429.94 -824.99,-427.68 -820.92,-425.45 -815.78,-423.07 -810.01,-420.83 -803.15,-418.59 -795.69,-416.55"/>
    </edge>
    <edge id=":39_3" function="internal">
        <lane id=":39_3_0" index="0" disallow="pedestrian tram rail_urban rail rail_electric rail_fast ship" speed="36.11" length="47.27" width="3.50" shape="-840.31,-437.42 -828.42,-416.99 -816.52,-396.57"/>
    </edge>
    <edge id=":40_0" function="internal">
        <lane id=":40_0_0" index="0" disallow="pedestrian tram rail_urban rail rail_electric rail_fast ship" speed="9.48" length="19.39" width="3.50" shape="-890.66,-482.45 -890.99,-482.31 -892.37,-481.35 -893.55,-480.16 -894.86,-478.34 -896.14,-475.85 -897.30,-472.70 -898.29,-468.91 -898.93,-465.61"/>
    </edge>
    <edge id=":40_1" function="internal">
        <lane id=":40_1_0" index="0" disallow="pedestrian tram rail_urban rail rail_electric rail_fast ship" speed="36.11" length="14.35" width="3.50" shape="-890.52,-483.74 -901.00,-484.92 -904.78,-485.35"/>
    </edge>
    <edge id=":40_2" function="internal">
        <lane id=":40_2_0" index="0" disallow="pedestrian tram rail_urban rail rail_electric rail_fast ship" speed="8.44" length="16.41" width="3.50" shape="-902.38,-466.18 -901.96,-469.71 -901.92,-472.67 -902.16,-475.02 -902.70,-477.32 -903.34,-478.98 -904.21,-480.53 -905.19,-481.81"/>
    </edge>
    <edge id=":41_0" function="internal">
        <lane id=":41_0_0" index="0" disallow="pedestrian tram rail_urban rail rail_electric rail_fast ship" speed="36.11" length="6.55" width="3.50" shape="-828.35,-471.00 -834.69,-472.64"/>
    </edge>
    <edge id=":41_1" function="internal">
        <lane id=":41_1_0" index="0" disallow="pedestrian tram rail_urban rail rail_electric rail_fast ship" speed="10.12" length="21.86" width="3.50" shape="-827.14,-475.87 -827.23,-476.03 -828.09,-478.17 -828.63,-480.41 -828.91,-483.28 -828.83,-486.16 -830.83,-475.04"/>
    </edge>

    <edge id="125133" from="38" to="40" priority="3" type="highway.residential" spreadType="center" length="13.19">
        <lane id="125133_0" index="0" disallow="pedestrian tram rail_urban rail rail_electric rail_fast ship" speed="36.11" length="13.19" width="3.49" customShape="1" shape="-877.41,-482.28 -880.14,-482.58 -885.87,-483.21 -886.00,-483.22 -890.52,-483.73"/>
    </edge>
    <edge id="125135" from="40" to="4" priority="3" type="highway.residential" spreadType="center" length="81.16">
        <lane id="125135_0" index="0" disallow="pedestrian tram rail_urban rail rail_electric rail_fast ship" speed="36.11" length="81.16" width="3.50" customShape="1" shape="-904.79,-485.33 -957.73,-491.43 -985.42,-494.62"/>
    </edge>
    <edge id="125410" from="29" to="36" priority="3" type="highway.residential" spreadType="center" length="86.99" shape="-922.07,-559.53 -884.73,-509.70">
        <lane id="125410_0" index="0" disallow="pedestrian tram rail_urban rail rail_electric rail_fast ship" speed="36.11" length="86.99" width="3.48" customShape="1" shape="-922.07,-559.53 -918.45,-556.08 -918.36,-555.99 -859.12,-499.49"/>
    </edge>
    <edge id="125484" from="39" to="27" priority="3" type="highway.residential" spreadType="center" length="33.25" shape="-817.92,-417.72 -763.45,-408.43">
        <lane id="125484_0" index="0" disallow="pedestrian tram rail_urban rail rail_electric rail_fast ship" speed="36.11" length="33.25" width="3.50" customShape="1" shape="-795.69,-416.55 -779.58,-412.49 -763.45,-408.43"/>
    </edge>
    <edge id="125485" from="30" to="39" priority="3" type="highway.residential" spreadType="center" length="33.29" shape="-764.28,-405.03 -818.51,-414.27">
        <lane id="125485_0" index="0" disallow="pedestrian tram rail_urban rail rail_electric rail_fast ship" speed="36.11" length="33.29" width="3.50" customShape="1" shape="-764.28,-405.03 -780.43,-409.10 -796.56,-413.16"/>
    </edge>
    <edge id="125674" from="36" to="38" priority="3" type="highway.residential" spreadType="center" length="0.20" shape="-883.26,-510.68 -863.32,-481.70">
        <lane id="125674_0" index="0" disallow="pedestrian tram rail_urban rail rail_electric rail_fast ship" speed="36.11" length="0.21" width="3.50" customShape="1" shape="-864.82,-486.48 -864.72,-486.30"/>
        <lane id="125674_1" index="1" disallow="pedestrian tram rail_urban rail rail_electric rail_fast ship" speed="36.11" length="0.20" width="3.50" customShape="1" shape="-868.99,-486.71 -868.89,-486.54"/>
    </edge>
    <edge id="125676" from="38" to="36" priority="3" type="highway.residential" spreadType="center" length="0.20" shape="-867.77,-478.95 -887.58,-507.71">
        <lane id="125676_0" index="0" disallow="pedestrian tram rail_urban rail rail_electric rail_fast ship" speed="36.11" length="0.20" width="3.49" customShape="1" shape="-872.62,-485.99 -872.72,-486.16"/>
    </edge>
    <edge id="125736" from="28" to="41" priority="3" type="highway.residential" spreadType="center" length="78.83">
        <lane id="125736_0" index="0" disallow="pedestrian tram rail_urban rail rail_electric rail_fast ship" speed="36.11" length="78.83" width="3.50" customShape="1" shape="-751.90,-451.78 -783.64,-459.72 -828.38,-470.90"/>
    </edge>
    <edge id="125740" from="41" to="38" priority="3" type="highway.residential" spreadType="center" length="18.83">
        <lane id="125740_0" index="0" disallow="pedestrian tram rail_urban rail rail_electric rail_fast ship" speed="36.11" length="18.83" width="3.50" customShape="1" shape="-834.71,-472.56 -846.50,-475.76 -846.62,-475.80 -852.88,-477.50"/>
    </edge>
    <edge id="126300" from="39" to="26" priority="3" type="highway.residential" spreadType="center" length="5.26" shape="-816.43,-416.29 -813.89,-392.02">
        <lane id="126300_0" index="0" disallow="pedestrian tram rail_urban rail rail_electric rail_fast ship" speed="36.11" length="5.26" width="3.50" customShape="1" shape="-816.52,-396.57 -816.46,-396.47 -816.39,-396.35 -813.89,-392.02"/>
    </edge>
    <edge id="126301" from="31" to="39" priority="3" type="highway.residential" spreadType="center" length="5.24" shape="-816.92,-390.28 -819.84,-415.91">
        <lane id="126301_0" index="0" disallow="pedestrian tram rail_urban rail rail_electric rail_fast ship" speed="36.11" length="5.24" width="3.38" customShape="1" shape="-816.92,-390.28 -819.43,-394.61 -819.49,-394.70 -819.55,-394.81"/>
    </edge>
    <edge id="126303" from="14" to="39" priority="3" type="highway.residential" spreadType="center" length="19.01" shape="-849.11,-456.02 -815.39,-418.13">
        <lane id="126303_0" index="0" disallow="pedestrian tram rail_urban rail rail_electric rail_fast ship" speed="36.11" length="19.01" width="3.50" customShape="1" shape="-846.85,-455.60 -842.44,-448.04 -837.28,-439.17"/>
        <lane id="126303_1" index="1" disallow="pedestrian tram rail_urban rail rail_electric rail_fast ship" speed="36.11" length="19.01" width="3.50" customShape="1" shape="-849.87,-453.84 -845.47,-446.28 -840.30,-437.41"/>
    </edge>
    <edge id="126305" from="39" to="33" priority="3" type="highway.residential" spreadType="center" length="19.01" shape="-819.42,-414.78 -853.65,-453.38">
        <lane id="126305_0" index="0" disallow="pedestrian tram rail_urban rail rail_electric rail_fast ship" speed="36.11" length="19.01" width="3.50" customShape="1" shape="-843.33,-435.65 -848.49,-444.51 -852.90,-452.08"/>
    </edge>
    <edge id="126309" from="33" to="38" priority="3" type="highway.residential" spreadType="center" length="16.58" shape="-853.65,-453.38 -867.96,-479.26">
        <lane id="126309_0" index="0" disallow="pedestrian tram rail_urban rail rail_electric rail_fast ship" speed="36.11" length="16.58" width="3.50" customShape="1" shape="-854.41,-454.67 -859.21,-462.91 -862.75,-469.00"/>
    </edge>
    <edge id="126317" from="40" to="5" priority="3" type="highway.residential" spreadType="center" length="59.88" shape="-899.09,-475.21 -908.73,-406.54">
        <lane id="126317_0" index="0" disallow="pedestrian tram rail_urban rail rail_electric rail_fast ship" speed="36.11" length="59.88" width="3.50" customShape="1" shape="-898.93,-465.61 -903.83,-436.08 -908.73,-406.54"/>
    </edge>
    <edge id="126318" from="17" to="40" priority="3" type="highway.residential" spreadType="center" length="59.88" shape="-912.18,-407.12 -902.55,-475.70">
        <lane id="126318_0" index="0" disallow="pedestrian tram rail_urban rail rail_electric rail_fast ship" speed="36.11" length="59.88" width="3.50" customShape="1" shape="-912.18,-407.12 -907.28,-436.65 -902.38,-466.19"/>
    </edge>
    <edge id="126401" from="41" to="22" priority="3" type="highway.residential" spreadType="center" length="71.06">
        <lane id="126401_0" index="0" disallow="pedestrian tram rail_urban rail rail_electric rail_fast ship" speed="36.11" length="71.06" width="3.50" customShape="1" shape="-830.83,-475.04 -823.72,-517.06 -818.98,-545.10"/>
    </edge>
    <edge id="132021" from="36" to="37" priority="3" type="highway.residential" spreadType="center" length="63.41" shape="-887.44,-507.51 -914.40,-539.49">
        <lane id="132021_0" index="0" disallow="pedestrian tram rail_urban rail rail_electric rail_fast ship" speed="36.11" length="63.41" width="3.50" customShape="1" shape="-875.07,-489.81 -875.32,-490.21 -880.45,-497.68 -887.38,-506.97 -896.16,-518.01 -907.14,-531.15 -914.40,-539.49"/>
    </edge>
    <edge id="132046" from="38" to="14" priority="3" type="highway.residential" spreadType="center" length="16.58" shape="-863.54,-482.06 -849.11,-456.02">
        <lane id="132046_0" index="0" disallow="pedestrian tram rail_urban rail rail_electric rail_fast ship" speed="36.11" length="16.58" width="3.50" customShape="1" shape="-856.70,-472.52 -853.16,-466.44 -848.36,-458.19"/>
        <lane id="132046_1" index="1" disallow="pedestrian tram rail_urban rail rail_electric rail_fast ship" speed="36.11" length="16.59" width="3.50" customShape="1" shape="-859.73,-470.76 -856.18,-464.68 -851.38,-456.43"/>
    </edge>

    <junction id="14" type="priority" x="-849.11" y="-456.02" incLanes="132046_0 132046_1" intLanes=":14_0_0 :14_0_1" shape="-851.38,-452.96 -845.34,-456.48 -846.84,-459.08 -852.89,-455.55" rightOfWay="edgePriority">
        <request index="0" response="00" foes="00" cont="0"/>
        <request index="1" response="00" foes="00" cont="0"/>
    </junction>
    <junction id="17" type="dead_end" x="-912.18" y="-407.12" incLanes="" intLanes="" shape="-910.45,-406.83 -913.90,-407.40" rightOfWay="edgePriority"/>
    <junction id="22" type="dead_end" x="-818.98" y="-545.10" incLanes="126401_0" intLanes="" shape="-820.70,-545.39 -817.25,-544.81" rightOfWay="edgePriority"/>
    <junction id="26" type="dead_end" x="-813.89" y="-392.02" incLanes="126300_0" intLanes="" shape="-812.38,-392.89 -815.41,-391.14" rightOfWay="edgePriority"/>
    <junction id="27" type="dead_end" x="-763.45" y="-408.43" incLanes="125484_0" intLanes="" shape="-763.03,-410.13 -763.88,-406.73" rightOfWay="edgePriority"/>
    <junction id="28" type="dead_end" x="-751.90" y="-451.78" incLanes="" intLanes="" shape="-751.48,-453.48 -752.33,-450.08" rightOfWay="edgePriority"/>
    <junction id="29" type="dead_end" x="-922.07" y="-559.53" incLanes="" intLanes="" shape="-923.27,-558.27 -920.86,-560.79" rightOfWay="edgePriority"/>
    <junction id="30" type="dead_end" x="-764.28" y="-405.03" incLanes="" intLanes="" shape="-763.85,-406.72 -764.71,-403.33" rightOfWay="edgePriority"/>
    <junction id="31" type="dead_end" x="-816.92" y="-390.28" incLanes="" intLanes="" shape="-815.46,-391.13 -818.38,-389.44" rightOfWay="edgePriority"/>
    <junction id="33" type="priority" x="-853.65" y="-453.38" incLanes="126305_0" intLanes=":33_0_0" shape="-854.41,-451.20 -851.38,-452.96 -852.89,-455.55 -855.92,-453.79" rightOfWay="edgePriority">
        <request index="0" response="0" foes="0" cont="0"/>
    </junction>
    <junction id="36" type="priority" x="-886.15" y="-508.70" incLanes="125676_0 125410_0" intLanes=":36_0_0 :36_1_0 :36_1_1" shape="-871.64,-480.90 -862.60,-486.14 -857.58,-500.42 -876.56,-488.90">
        <request index="0" response="000" foes="000" cont="0"/>
        <request index="1" response="000" foes="000" cont="0"/>
        <request index="2" response="000" foes="000" cont="0"/>
    </junction>
    <junction id="37" type="dead_end" x="-914.40" y="-539.49" incLanes="132021_0" intLanes="" shape="-915.72,-538.34 -913.08,-540.64"/>
    <junction id="38" type="priority" x="-866.38" y="-480.02" incLanes="126309_0 125740_0 125674_0 125674_1" intLanes=":38_0_0 :38_1_0 :38_2_0 :38_3_0 :38_4_0 :38_4_1" shape="-864.26,-468.12 -855.19,-473.40 -855.88,-475.21 -855.73,-475.73 -855.26,-476.01 -854.47,-476.04 -853.34,-475.81 -852.42,-479.19 -866.26,-492.44 -875.25,-487.03 -877.22,-484.01 -877.60,-480.54 -875.42,-479.99 -873.22,-478.84 -871.00,-477.07 -868.77,-474.70 -866.52,-471.71">
        <request index="0" response="000000" foes="000100" cont="0"/>
        <request index="1" response="000000" foes="001100" cont="0"/>
        <request index="2" response="110011" foes="110011" cont="0"/>
        <request index="3" response="110010" foes="110010" cont="0"/>
        <request index="4" response="000000" foes="001100" cont="0"/>
        <request index="5" response="000000" foes="001100" cont="0"/>
    </junction>
    <junction id="39" type="priority" x="-818.16" y="-415.99" incLanes="126301_0 125485_0 126303_0 126303_1" intLanes=":39_0_0 :39_1_0 :39_2_0 :39_3_0" shape="-821.01,-393.96 -815.01,-397.45 -816.75,-402.51 -815.91,-406.65 -813.00,-409.73 -808.54,-411.64 -803.02,-412.26 -796.97,-411.46 -795.26,-418.25 -805.44,-421.13 -814.25,-424.32 -821.68,-427.80 -827.75,-431.58 -832.44,-435.67 -835.77,-440.05 -844.84,-434.77">
        <request index="0" response="0000" foes="0010" cont="0"/>
        <request index="1" response="1001" foes="1001" cont="0"/>
        <request index="2" response="0000" foes="0000" cont="0"/>
        <request index="3" response="0000" foes="0010" cont="0"/>
    </junction>
    <junction id="4" type="dead_end" x="-985.42" y="-494.62" incLanes="125135_0" intLanes="" shape="-985.62,-492.88 -985.22,-496.35" rightOfWay="edgePriority"/>
    <junction id="40" type="priority" x="-900.83" y="-475.41" incLanes="125133_0 126318_0" intLanes=":40_0_0 :40_1_0 :40_2_0" shape="-890.71,-481.99 -890.33,-485.46 -904.59,-487.07 -904.99,-483.60 -903.27,-481.51 -902.94,-479.10 -902.97,-475.80 -903.36,-471.59 -904.10,-466.47 -897.20,-465.33 -896.23,-470.53 -895.22,-474.76 -894.16,-478.03 -893.06,-480.32 -891.91,-481.64">
        <request index="0" response="000" foes="000" cont="0"/>
        <request index="1" response="100" foes="100" cont="0"/>
        <request index="2" response="000" foes="010" cont="0"/>
    </junction>
    <junction id="41" type="priority" x="-830.07" y="-477.47" incLanes="125736_0" intLanes=":41_0_0 :41_1_0" shape="-828.80,-469.21 -827.95,-472.60 -828.73,-473.00 -828.97,-473.32 -829.11,-473.72 -829.16,-474.19 -829.11,-474.75 -832.56,-475.33 -832.86,-474.56 -833.11,-474.32 -833.42,-474.19 -833.80,-474.17 -834.25,-474.25 -835.17,-470.87">
        <request index="0" response="00" foes="00" cont="0"/>
        <request index="1" response="00" foes="00" cont="0"/>
    </junction>
    <junction id="5" type="dead_end" x="-908.73" y="-406.54" incLanes="126317_0" intLanes="" shape="-907.00,-406.26 -910.45,-406.83" rightOfWay="edgePriority"/>

    <connection from="125133" to="126317" fromLane="0" toLane="0" contPos="-4.00" shape="-886.12,-483.24 -887.80,-483.27 -889.45,-482.97 -890.99,-482.31 -892.37,-481.35 -893.55,-480.16 -894.86,-478.34 -896.14,-475.85 -897.30,-472.70 -898.29,-468.91 -898.93,-465.61" via=":40_0_0" dir="r" state="M"/>
    <connection from="125133" to="125135" fromLane="0" toLane="0" contPos="-4.00" shape="-886.12,-483.24 -901.00,-484.92 -915.88,-486.61" via=":40_1_0" dir="s" state="m"/>
    <connection from="125410" to="125674" fromLane="0" toLane="0" contPos="-4.00" shape="-918.27,-555.90 -911.09,-548.78 -904.18,-541.39 -897.23,-533.37 -890.57,-525.09 -883.92,-516.18 -877.58,-507.04 -871.27,-497.27 -865.55,-487.73" via=":36_1_0" dir="s" state="M"/>
    <connection from="125410" to="125674" fromLane="0" toLane="1" contPos="-4.00" shape="-918.27,-555.90 -913.67,-551.25 -908.66,-545.61 -902.96,-538.57 -896.65,-530.10 -889.77,-520.18 -882.09,-508.37 -873.68,-494.65 -868.57,-485.98" via=":36_1_1" dir="s" state="M"/>
    <connection from="125485" to="126305" fromLane="0" toLane="0" contPos="-4.00" shape="-796.56,-413.16 -806.47,-415.84 -814.80,-418.47 -821.55,-420.95 -827.21,-423.38 -831.78,-425.71 -835.30,-427.84 -838.20,-429.96 -840.49,-432.02 -842.18,-433.95 -843.33,-435.65" via=":39_1_0" dir="s" state="m"/>
    <connection from="125674" to="132046" fromLane="0" toLane="0" contPos="-4.00" shape="-865.42,-487.51 -862.13,-481.85 -858.84,-476.19" via=":38_4_0" dir="s" state="M"/>
    <connection from="125674" to="132046" fromLane="1" toLane="1" contPos="-4.00" shape="-868.46,-485.78 -865.16,-480.09 -861.87,-474.44" via=":38_4_1" dir="s" state="M"/>
    <connection from="125676" to="132021" fromLane="0" toLane="0" contPos="-4.00" via=":36_0_0" dir="s" state="M"/>
    <connection from="125736" to="125740" fromLane="0" toLane="0" contPos="-4.00" shape="-815.37,-467.65 -839.99,-474.01 -846.38,-475.73" via=":41_0_0" dir="s" state="M"/>
    <connection from="125736" to="126401" fromLane="0" toLane="0" contPos="-4.00" shape="-815.37,-467.65 -818.13,-468.49 -820.77,-469.65 -822.74,-470.85 -824.51,-472.32 -826.03,-474.06 -827.23,-476.03 -828.09,-478.17 -828.63,-480.41 -828.91,-483.28 -828.83,-486.16 -828.47,-489.02" via=":41_1_0" dir="l" state="M"/>
    <connection from="125740" to="125133" fromLane="0" toLane="0" contPos="-4.00" shape="-860.49,-479.57 -865.00,-480.59 -871.10,-481.55 -874.16,-481.92" via=":38_2_0" dir="s" state="m"/>
    <connection from="125740" to="125676" fromLane="0" toLane="0" contPos="-4.00" shape="-860.49,-479.57 -865.97,-481.21 -869.37,-482.53 -870.73,-483.28 -871.14,-483.61 -871.46,-483.98" via=":38_3_0" dir="l" state="m"/>
    <connection from="126301" to="126305" fromLane="0" toLane="0" contPos="-4.00" shape="-819.55,-394.81 -831.44,-415.23 -843.33,-435.65" via=":39_0_0" dir="s" state="M"/>
    <connection from="126303" to="125484" fromLane="0" toLane="0" contPos="-4.00" shape="-837.29,-439.18 -835.86,-437.03 -833.88,-434.65 -831.28,-432.16 -828.44,-429.94 -824.99,-427.68 -820.92,-425.45 -815.78,-423.07 -810.01,-420.83 -803.15,-418.59 -795.69,-416.55" via=":39_2_0" dir="R" state="M"/>
    <connection from="126303" to="126300" fromLane="1" toLane="0" contPos="-4.00" shape="-840.31,-437.42 -828.42,-416.99 -816.52,-396.57" via=":39_3_0" dir="s" state="M"/>
    <connection from="126305" to="126309" fromLane="0" toLane="0" contPos="-4.00" via=":33_0_0" dir="s" state="M"/>
    <connection from="126309" to="125133" fromLane="0" toLane="0" contPos="-4.00" shape="-864.88,-472.67 -867.21,-476.30 -869.24,-478.83 -870.80,-480.31 -872.13,-481.23 -873.11,-481.67 -874.16,-481.92" via=":38_0_0" dir="r" state="M"/>
    <connection from="126309" to="125676" fromLane="0" toLane="0" contPos="-4.00" shape="-864.88,-472.67 -868.18,-478.34 -871.46,-483.98" via=":38_1_0" dir="s" state="M"/>
    <connection from="126318" to="125135" fromLane="0" toLane="0" contPos="-4.00" shape="-902.38,-466.18 -901.96,-469.71 -901.92,-472.67 -902.16,-475.02 -902.70,-477.32 -903.34,-478.98 -904.21,-480.53 -905.29,-481.93 -906.58,-483.15 -908.03,-484.17 -910.15,-485.23 -912.39,-485.97 -915.30,-486.54 -915.88,-486.61" via=":40_2_0" dir="r" state="M"/>
    <connection from="132046" to="126303" fromLane="0" toLane="0" contPos="-4.00" via=":14_0_0" dir="s" state="M"/>
    <connection from="132046" to="126303" fromLane="1" toLane="1" contPos="-4.00" via=":14_0_1" dir="s" state="M"/>

    <connection from=":14_0" to="126303" fromLane="0" toLane="0" dir="s" state="M"/>
    <connection from=":14_0" to="126303" fromLane="1" toLane="1" dir="s" state="M"/>
    <connection from=":33_0" to="126309" fromLane="0" toLane="0" dir="s" state="M"/>