<routes>
	<vehicle depart="0.1" departLane="0" departPos="1.0" departSpeed="1.3901621" id="316" type="bicycle">
		<route edges="125740 125133"/>
	</vehicle>
	<vehicle depart="0.1" departLane="0" departPos="19.327002167461988" departSpeed="6.9271277" id="334" type="bicycle">
		<route edges="132046 126303 125484"/>
	</vehicle>
	<vehicle depart="0.1" departLane="0" departPos="15.096032127073848" departSpeed="0.28034864" id="37" type="passenger">
		<route edges="125740 125133"/>
	</vehicle>
	<vehicle depart="0.1" departLane="0" departPos="6.608614573980488" departSpeed="3.2300392" id="39" type="passenger">
		<route edges="126309 125676 132021"/>
	</vehicle>
	<vehicle depart="0.1" departLane="0" departPos="13.570383329344796" departSpeed="3.484709" id="312" type="passenger">
		<route edges="125133 125135"/>
	</vehicle>
	<vehicle depart="0.1" departLane="0" departPos="18.019169158011373" departSpeed="2.2276928" id="325" type="passenger">
		<route edges="126305 126309 125133"/>
	</vehicle>
	<vehicle depart="0.1" departLane="1" departPos="7.9990446164534985" departSpeed="20.552756" id="355" type="passenger">
		<route edges="132046 126303 126300"/>
	</vehicle>
	<vehicle depart="0.1" departLane="0" departPos="4.960350837802435" departSpeed="0.15573691" id="310" type="motorcycle">
		<route edges="125740 125133"/>
	</vehicle>
	<vehicle depart="0.1" departLane="0" departPos="77.58840106352068" departSpeed="20.775447" id="356" type="motorcycle">
		<route edges=":36_1 125674 132046 126303 125484"/>
	</vehicle>
	<vehicle depart="0.1" departLane="0" departPos="12.928181797874611" departSpeed="0.40335676" id="35" type="truck">
		<route edges=":38_3 125676 132021"/>
	</vehicle>
</routes>
