<routes>
	<vehicle depart="0.1" departLane="0" departPos="31.0222443221468" departSpeed="0.44691079" id="37" type="bicycle">
		<route edges=":25_0 102811"/>
	</vehicle>
	<vehicle depart="0.1" departLane="0" departPos="50.22679878854671" departSpeed="0.36899946" id="31" type="passenger">
		<route edges=":25_0 102811 102718"/>
	</vehicle>
	<vehicle depart="0.1" departLane="0" departPos="35.25314204754842" departSpeed="0.44824172" id="36" type="passenger">
		<route edges=":25_0 102811"/>
	</vehicle>
	<vehicle depart="0.1" departLane="0" departPos="42.5236803598305" departSpeed="0.3518847" id="312" type="passenger">
		<route edges=":25_0 102811"/>
	</vehicle>
	<vehicle depart="0.1" departLane="0" departPos="25.814493030418102" departSpeed="0.40837873" id="316" type="passenger">
		<route edges=":25_0 102811"/>
	</vehicle>
	<vehicle depart="0.1" departLane="0" departPos="17.174816766193356" departSpeed="0.53141248" id="319" type="passenger">
		<route edges=":25_0 102811"/>
	</vehicle>
	<vehicle depart="0.1" departLane="0" departPos="11.495076561223854" departSpeed="0.026272228" id="321" type="passenger">
		<route edges=":25_0 102811"/>
	</vehicle>
	<vehicle depart="0.1" departLane="0" departPos="10.260620277562031" departSpeed="6.6717472" id="339" type="passenger">
		<route edges=":25_1 102303"/>
	</vehicle>
	<vehicle depart="0.1" departLane="0" departPos="8.640779922028091" departSpeed="0.31470023" id="30" type="truck">
		<route edges=":27_2 102625 102303"/>
	</vehicle>
	<vehicle depart="0.1" departLane="0" departPos="3.75" departSpeed="0.36453641" id="325" type="truck">
		<route edges=":25_0 102811"/>
	</vehicle>
</routes>
