<routes>
	<vehicle depart="0.1" departLane="0" departPos="61.54792579153374" departSpeed="2.4607721" id="325" type="passenger">
		<route edges="52711 52255"/>
	</vehicle>
	<vehicle depart="0.1" departLane="0" departPos="10.732768525393897" departSpeed="12.1536" id="332" type="passenger">
		<route edges=":58_4 52256 52712"/>
	</vehicle>
	<vehicle depart="0.1" departLane="0" departPos="47.92986342359444" departSpeed="1.5667633" id="333" type="passenger">
		<route edges="52711 52255"/>
	</vehicle>
	<vehicle depart="0.1" departLane="0" departPos="2.5" departSpeed="3.3981587" id="336" type="passenger">
		<route edges=":58_0 52252"/>
	</vehicle>
	<vehicle depart="0.1" departLane="0" departPos="27.182346503094454" departSpeed="1.384312" id="341" type="passenger">
		<route edges="52711 52255"/>
	</vehicle>
	<vehicle depart="0.1" departLane="0" departPos="40.535677741539075" departSpeed="2.024763" id="346" type="passenger">
		<route edges="52246 52256"/>
	</vehicle>
	<vehicle depart="0.1" departLane="0" departPos="31.93247636777351" departSpeed="1.1509714" id="358" type="passenger">
		<route edges="52246 52256"/>
	</vehicle>
	<vehicle depart="0.1" departLane="0" departPos="23.37331942851399" departSpeed="1.0353118" id="369" type="passenger">
		<route edges="52246 52256"/>
	</vehicle>
	<vehicle depart="0.1" departLane="0" departPos="29.01332959901189" departSpeed="0.52458836" id="331" type="truck">
		<route edges="52258 52255"/>
	</vehicle>
</routes>
